MODEL 1
REMARK VINA RESULT:    -9.114      0.000      0.000
REMARK INTER + INTRA:         -10.329
REMARK INTER:                 -10.060
REMARK INTRA:                  -0.269
REMARK UNBOUND:                 0.383
REMARK  Name = ZINC000014650526
REMARK  5 active torsions:
REMARK  status: ('A' for Active; 'I' for Inactive)
REMARK    1  A    between atoms: C_2  and  C_3
REMARK    2  A    between atoms: C_2  and  C_4
REMARK    3  A    between atoms: C_6  and  C_7
REMARK    4  A    between atoms: C_8  and  O_9
REMARK    5  A    between atoms: O_9  and  C_10
REMARK                            x       y       z     vdW  Elec       q    Type
REMARK                         _______ _______ _______ _____ _____    ______ ____
ROOT
ATOM      1  C   UNL     1      -0.424   2.786 -23.321  0.00  0.00    +0.068 A 
ATOM      2  C   UNL     1      -1.052   3.201 -24.380  0.00  0.00    +0.129 A 
ATOM      3  C   UNL     1      -0.388   3.726 -25.367  0.00  0.00    +0.047 A 
ATOM      4  C   UNL     1       0.905   3.837 -25.293  0.00  0.00    +0.015 A 
ATOM      5  C   UNL     1       1.534   3.422 -24.234  0.00  0.00    +0.018 A 
ATOM      6  C   UNL     1       2.826   3.533 -24.161  0.00  0.00    +0.018 A 
ATOM      7  C   UNL     1       3.456   3.118 -23.101  0.00  0.00    +0.092 A 
ATOM      8  C   UNL     1       2.792   2.593 -22.115  0.00  0.00    +0.337 A 
ATOM      9  O   UNL     1       1.498   2.482 -22.188  0.00  0.00    -0.422 OA
ATOM     10  O   UNL     1       3.420   2.178 -21.055  0.00  0.00    -0.245 OA
ATOM     11  C   UNL     1       0.869   2.897 -23.248  0.00  0.00    +0.148 A 
ENDROOT
BRANCH   1  14
ATOM     12  C   UNL     1      -2.071   2.311 -21.485  0.00  0.00    +0.178 C 
ATOM     13  O   UNL     1      -1.255   1.299 -21.475  0.00  0.00    -0.358 OA
ATOM     14  C   UNL     1      -1.088   2.261 -22.335  0.00  0.00    +0.189 C 
BRANCH  12  16
ATOM     15  C   UNL     1      -2.963   3.801 -20.051  0.00  0.00    +0.010 C 
ATOM     16  C   UNL     1      -3.110   2.924 -21.001  0.00  0.00    -0.049 C 
ATOM     17  C   UNL     1      -4.295   2.662 -21.466  0.00  0.00    +0.041 C 
ENDBRANCH  12  16
ENDBRANCH   1  14
BRANCH   2  18
ATOM     18  O   UNL     1      -2.346   3.090 -24.453  0.00  0.00    -0.495 OA
ATOM     19  C   UNL     1      -3.068   4.116 -24.793  0.00  0.00    +0.277 C 
ENDBRANCH   2  18
TORSDOF 3
ENDMDL
