MODEL 1
REMARK VINA RESULT:    -9.551      0.000      0.000
REMARK INTER + INTRA:          -9.551
REMARK INTER:                  -9.551
REMARK INTRA:                   0.000
REMARK UNBOUND:                 0.000
REMARK  Name = ZINC000012416954
REMARK  4 active torsions:
REMARK  status: ('A' for Active; 'I' for Inactive)
REMARK    1  A    between atoms: C_1  and  C_2
REMARK    2  A    between atoms: C_6  and  C_7
REMARK    3  A    between atoms: C_6  and  C_8
REMARK    4  A    between atoms: C_12  and  C_13
REMARK                            x       y       z     vdW  Elec       q    Type
REMARK                         _______ _______ _______ _____ _____    ______ ____
ROOT
ATOM      1  C   UNL     1      -4.429   2.367 -20.428  0.00  0.00    +0.016 C 
ATOM      2  C   UNL     1      -4.054   2.744 -21.585  0.00  0.00    +0.056 C 
ATOM      3  C   UNL     1      -2.830   2.616 -21.973  0.00  0.00    +0.037 C 
ATOM      4  C   UNL     1      -2.038   2.126 -21.207  0.00  0.00    -0.030 C 
ATOM      5  C   UNL     1      -0.795   1.929 -21.432  0.00  0.00    -0.024 C 
ATOM      6  C   UNL     1       0.012   2.166 -22.491  0.00  0.00    -0.010 C 
ATOM      7  C   UNL     1      -0.210   2.763 -23.856  0.00  0.00    +0.085 C 
ATOM      8  C   UNL     1      -1.262   3.356 -24.729  0.00  0.00    +0.137 C 
ATOM      9  C   UNL     1      -2.541   3.569 -24.524  0.00  0.00    +0.053 C 
ATOM     10  C   UNL     1      -3.103   3.298 -23.520  0.00  0.00    +0.018 C 
ATOM     11  C   UNL     1      -4.350   3.547 -23.423  0.00  0.00    +0.075 C 
ATOM     12  C   UNL     1      -3.240   4.114 -25.482  0.00  0.00    +0.015 C 
ATOM     13  O   UNL     1      -0.869   3.734 -25.901  0.00  0.00    -0.297 OA
ATOM     14  C   UNL     1       0.984   1.621 -21.691  0.00  0.00    +0.015 C 
ATOM     15  C   UNL     1       1.238   2.021 -22.837  0.00  0.00    +0.015 C 
ATOM     16  C   UNL     1      -4.834   3.238 -22.371  0.00  0.00    +0.136 C 
ATOM     17  O   UNL     1      -6.061   3.414 -22.101  0.00  0.00    -0.297 OA
ENDROOT
TORSDOF 0
ENDMDL
