MODEL 1
REMARK VINA RESULT:   -11.057      0.000      0.000
REMARK INTER + INTRA:         -13.195
REMARK INTER:                 -13.294
REMARK INTRA:                   0.098
REMARK UNBOUND:                 0.448
REMARK  Name = ZINC000008382388
REMARK  4 active torsions:
REMARK  status: ('A' for Active; 'I' for Inactive)
REMARK    1  A    between atoms: C_2  and  C_29
REMARK    2  A    between atoms: N_3  and  C_4
REMARK    3  A    between atoms: C_4  and  C_13
REMARK    4  A    between atoms: C_5  and  C_6
REMARK                            x       y       z     vdW  Elec       q    Type
REMARK                         _______ _______ _______ _____ _____    ______ ____
ROOT
ATOM      1  C   UNL     1       2.560   2.590 -23.816  0.00  0.00    +0.097 C 
ATOM      2  C   UNL     1       2.388   1.497 -23.137  0.00  0.00    +0.039 C 
ENDROOT
BRANCH   1   3
ATOM      3  C   UNL     1       1.611   3.015 -24.651  0.00  0.00    +0.261 C 
ATOM      4  N   UNL     1       0.326   3.103 -24.245  0.00  0.00    -0.296 N 
ATOM      5  C   UNL     1      -0.673   3.526 -25.051  0.00  0.00    +0.117 C 
ATOM      6  C   UNL     1      -1.834   3.537 -24.469  0.00  0.00    +0.054 C 
ATOM      7  C   UNL     1      -1.791   3.245 -23.570  0.00  0.00    +0.018 C 
ATOM      8  C   UNL     1      -1.338   2.925 -22.800  0.00  0.00    +0.027 C 
ATOM      9  C   UNL     1      -2.329   2.878 -22.123  0.00  0.00    +0.130 C 
ATOM     10  N   UNL     1      -3.495   3.367 -23.047  0.00  0.00    -0.312 N 
ATOM     11  C   UNL     1      -4.738   3.490 -22.772  0.00  0.00    +0.251 A 
ATOM     12  O   UNL     1      -5.174   3.185 -21.578  0.00  0.00    -0.268 OA
ATOM     13  C   UNL     1      -5.585   3.927 -23.702  0.00  0.00    +0.070 A 
ATOM     14  C   UNL     1      -5.160   4.251 -24.950  0.00  0.00    +0.007 A 
ATOM     15  C   UNL     1      -3.884   4.148 -25.306  0.00  0.00    +0.022 A 
ATOM     16  C   UNL     1      -3.023   3.733 -24.454  0.00  0.00    +0.027 A 
ATOM     17  C   UNL     1      -0.069   2.774 -22.998  0.00  0.00    +0.113 C 
ATOM     18  O   UNL     1       1.933   3.347 -25.873  0.00  0.00    -0.269 OA
ENDBRANCH   1   3
BRANCH   2  19
ATOM     19  C   UNL     1       3.320   1.076 -22.314  0.00  0.00    +0.012 A 
ATOM     20  C   UNL     1       4.512   0.806 -22.781  0.00  0.00    +0.011 A 
ATOM     21  C   UNL     1       5.447   0.386 -21.975  0.00  0.00    +0.001 A 
ATOM     22  C   UNL     1       5.199   0.235 -20.703  0.00  0.00    +0.003 A 
ATOM     23  C   UNL     1       4.007   0.505 -20.235  0.00  0.00    +0.039 A 
ATOM     24  C   UNL     1       3.071   0.925 -21.043  0.00  0.00    +0.131 A 
ATOM     25  F   UNL     1       1.882   1.195 -20.576  0.00  0.00    -0.205 F 
ENDBRANCH   2  19
BRANCH   1  28
ATOM     26  O   UNL     1       2.597   4.873 -22.504  0.00  0.00    -0.270 OA
ATOM     27  C   UNL     1       3.699   4.406 -23.017  0.00  0.00    +0.248 C 
ATOM     28  N   UNL     1       3.683   3.272 -23.669  0.00  0.00    -0.277 N 
ATOM     29  H   UNL     1       4.519   2.922 -24.055  0.00  0.00    +0.155 HD
BRANCH  27  30
ATOM     30  C   UNL     1       4.825   5.075 -22.877  0.00  0.00    +0.037 A 
ATOM     31  C   UNL     1       5.947   4.548 -23.297  0.00  0.00    +0.013 A 
ATOM     32  C   UNL     1       7.065   5.206 -23.161  0.00  0.00    +0.001 A 
ATOM     33  C   UNL     1       7.068   6.388 -22.609  0.00  0.00    +0.000 A 
ATOM     34  C   UNL     1       5.947   6.915 -22.189  0.00  0.00    +0.001 A 
ATOM     35  C   UNL     1       4.829   6.257 -22.325  0.00  0.00    +0.013 A 
ENDBRANCH  27  30
ENDBRANCH   1  28
TORSDOF 4
ENDMDL
