MODEL 1
REMARK VINA RESULT:    -7.157      0.000      0.000
REMARK INTER + INTRA:          -9.168
REMARK INTER:                  -9.202
REMARK INTRA:                   0.034
REMARK UNBOUND:                -0.337
REMARK  Name = ZINC000000689650
REMARK  8 active torsions:
REMARK  status: ('A' for Active; 'I' for Inactive)
REMARK    1  A    between atoms: C_1  and  O_2
REMARK    2  A    between atoms: O_2  and  C_3
REMARK    3  A    between atoms: C_5  and  O_6
REMARK    4  A    between atoms: O_6  and  C_7
REMARK    5  A    between atoms: C_12  and  C_13
REMARK    6  A    between atoms: C_21  and  C_22
REMARK    7  A    between atoms: C_25  and  C_26
REMARK    8  A    between atoms: C_25  and  C_27
REMARK                            x       y       z     vdW  Elec       q    Type
REMARK                         _______ _______ _______ _____ _____    ______ ____
ROOT
ATOM      1  C   UNL     1       4.163   2.941 -23.781  0.00  0.00    +0.135 A 
ATOM      2  C   UNL     1       5.427   2.650 -23.690  0.00  0.00    +0.092 A 
ATOM      3  C   UNL     1       6.259   3.519 -23.199  0.00  0.00    +0.138 A 
ATOM      4  C   UNL     1       5.828   4.678 -22.799  0.00  0.00    +0.106 A 
ATOM      5  C   UNL     1       6.661   5.548 -22.307  0.00  0.00    +0.197 A 
ATOM      6  C   UNL     1       6.230   6.707 -21.908  0.00  0.00    +0.098 A 
ATOM      7  C   UNL     1       4.965   6.998 -21.999  0.00  0.00    +0.139 A 
ATOM      8  O   UNL     1       4.133   6.128 -22.490  0.00  0.00    -0.454 OA
ATOM      9  O   UNL     1       7.925   5.258 -22.216  0.00  0.00    -0.287 OA
ATOM     10  C   UNL     1       4.564   4.969 -22.890  0.00  0.00    +0.154 A 
ATOM     11  C   UNL     1       3.731   4.100 -23.381  0.00  0.00    +0.069 A 
ENDROOT
BRANCH  11  12
ATOM     12  C   UNL     1       2.467   4.390 -23.472  0.00  0.00    +0.010 C 
ATOM     13  C   UNL     1       1.952   5.343 -24.190  0.00  0.00    +0.195 C 
ATOM     14  O   UNL     1       0.663   5.321 -24.023  0.00  0.00    -0.490 OA
ATOM     15  C   UNL     1       0.382   4.352 -23.203  0.00  0.00    +0.111 C 
ATOM     16  C   UNL     1      -0.156   3.465 -22.420  0.00  0.00    +0.059 C 
ATOM     17  C   UNL     1      -0.845   4.742 -23.380  0.00  0.00    +0.059 C 
ATOM     18  C   UNL     1       1.497   3.777 -22.863  0.00  0.00    -0.110 C 
ATOM     19  O   UNL     1       1.620   2.766 -22.054  0.00  0.00    -0.829 OA
ENDBRANCH  11  12
BRANCH   7  20
ATOM     20  C   UNL     1       4.534   8.156 -21.599  0.00  0.00    +0.017 A 
ATOM     21  C   UNL     1       4.273   9.087 -22.468  0.00  0.00    +0.011 A 
ATOM     22  C   UNL     1       3.842  10.247 -22.069  0.00  0.00    +0.001 A 
ATOM     23  C   UNL     1       3.672  10.476 -20.800  0.00  0.00    +0.000 A 
ATOM     24  C   UNL     1       3.934   9.545 -19.931  0.00  0.00    +0.001 A 
ATOM     25  C   UNL     1       4.365   8.385 -20.331  0.00  0.00    +0.011 A 
ENDBRANCH   7  20
BRANCH   1  27
ATOM     26  C   UNL     1       3.468   0.809 -23.991  0.00  0.00    +0.277 C 
ATOM     27  O   UNL     1       3.330   2.071 -24.272  0.00  0.00    -0.494 OA
ENDBRANCH   1  27
BRANCH   3  28
ATOM     28  O   UNL     1       7.523   3.229 -23.107  0.00  0.00    -0.494 OA
ATOM     29  C   UNL     1       8.168   2.800 -24.150  0.00  0.00    +0.277 C 
ENDBRANCH   3  28
TORSDOF 4
ENDMDL
