MODEL 1
REMARK VINA RESULT:    -9.974      0.000      0.000
REMARK INTER + INTRA:         -10.215
REMARK INTER:                 -11.162
REMARK INTRA:                   0.947
REMARK UNBOUND:                 0.926
REMARK  Name = ZINC000096316354
REMARK  4 active torsions:
REMARK  status: ('A' for Active; 'I' for Inactive)
REMARK    1  A    between atoms: C_1  and  O_2
REMARK    2  A    between atoms: O_2  and  C_3
REMARK    3  A    between atoms: C_7  and  O_8
REMARK    4  A    between atoms: O_8  and  C_9
REMARK                            x       y       z     vdW  Elec       q    Type
REMARK                         _______ _______ _______ _____ _____    ______ ____
ROOT
ATOM      1  C   UNL     1      -2.773   3.713 -25.319  0.00  0.00    +0.159 C 
ATOM      2  C   UNL     1      -1.635   3.360 -24.929  0.00  0.00    +0.158 C 
ATOM      3  O   UNL     1      -0.171   3.204 -25.278  0.00  0.00    -0.452 OA
ATOM      4  C   UNL     1       0.655   2.651 -24.151  0.00  0.00    +0.174 A 
ATOM      5  C   UNL     1       1.807   2.294 -23.760  0.00  0.00    +0.162 A 
ATOM      6  C   UNL     1       1.959   1.852 -22.583  0.00  0.00    +0.050 A 
ATOM      7  C   UNL     1       0.981   1.766 -21.807  0.00  0.00    +0.008 A 
ATOM      8  C   UNL     1      -0.157   2.119 -22.197  0.00  0.00    -0.038 A 
ATOM      9  C   UNL     1      -1.159   2.034 -21.409  0.00  0.00    +0.058 C 
ATOM     10  C   UNL     1      -2.295   2.387 -21.798  0.00  0.00    +0.088 C 
ATOM     11  C   UNL     1      -2.449   2.829 -22.975  0.00  0.00    +0.051 C 
ATOM     12  C   UNL     1      -3.601   3.185 -23.365  0.00  0.00    -0.017 C 
ATOM     13  N   UNL     1      -3.629   2.761 -22.141  0.00  0.00    -0.300 N 
ATOM     14  C   UNL     1      -4.587   2.656 -21.322  0.00  0.00    +0.328 C 
ATOM     15  O   UNL     1      -4.392   2.213 -20.164  0.00  0.00    -0.279 OA
ATOM     16  C   UNL     1      -3.836   3.259 -23.446  0.00  0.00    +0.109 C 
ATOM     17  C   UNL     1      -2.713   3.344 -24.299  0.00  0.00    +0.039 C 
ATOM     18  C   UNL     1      -0.332   2.563 -23.364  0.00  0.00    +0.016 A 
ATOM     19  C   UNL     1      -1.469   2.914 -23.748  0.00  0.00    +0.070 C 
ATOM     20  C   UNL     1      -3.757   3.623 -24.528  0.00  0.00    +0.045 C 
ENDROOT
BRANCH   1  22
ATOM     21  C   UNL     1      -3.340   3.389 -27.386  0.00  0.00    +0.277 C 
ATOM     22  O   UNL     1      -2.934   4.152 -26.481  0.00  0.00    -0.492 OA
ENDBRANCH   1  22
BRANCH   5  23
ATOM     23  O   UNL     1       2.789   2.379 -24.534  0.00  0.00    -0.491 OA
ATOM     24  C   UNL     1       3.954   2.309 -24.079  0.00  0.00    +0.277 C 
ENDBRANCH   5  23
TORSDOF 2
ENDMDL
