MODEL 1
REMARK VINA RESULT:   -10.133      0.000      0.000
REMARK INTER + INTRA:         -10.133
REMARK INTER:                 -10.133
REMARK INTRA:                   0.000
REMARK UNBOUND:                 0.000
REMARK  Name = ZINC000001567077
REMARK  2 active torsions:
REMARK  status: ('A' for Active; 'I' for Inactive)
REMARK    1  A    between atoms: C_8  and  C_9
REMARK    2  A    between atoms: C_13  and  C_14
REMARK                            x       y       z     vdW  Elec       q    Type
REMARK                         _______ _______ _______ _____ _____    ______ ____
ROOT
ATOM      1  C   UNL     1       0.462   1.511 -21.328  0.00  0.00    +0.020 C 
ATOM      2  C   UNL     1       0.089   2.070 -22.440  0.00  0.00    +0.040 C 
ATOM      3  C   UNL     1       0.851   2.328 -23.460  0.00  0.00    +0.336 C 
ATOM      4  O   UNL     1       0.120   2.887 -24.378  0.00  0.00    -0.457 OA
ATOM      5  C   UNL     1      -1.095   2.975 -23.924  0.00  0.00    +0.189 C 
ATOM      6  C   UNL     1      -2.186   3.449 -24.447  0.00  0.00    +0.056 C 
ATOM      7  C   UNL     1      -3.298   3.420 -23.773  0.00  0.00    -0.007 C 
ATOM      8  C   UNL     1      -4.389   3.894 -24.296  0.00  0.00    +0.011 C 
ATOM      9  C   UNL     1      -5.499   3.864 -23.621  0.00  0.00    +0.001 C 
ATOM     10  C   UNL     1      -5.519   3.360 -22.423  0.00  0.00    +0.007 C 
ATOM     11  C   UNL     1      -4.428   2.885 -21.899  0.00  0.00    +0.012 C 
ATOM     12  C   UNL     1      -4.447   2.380 -20.701  0.00  0.00    +0.012 C 
ATOM     13  C   UNL     1      -3.278   3.924 -24.971  0.00  0.00    +0.016 C 
ATOM     14  C   UNL     1      -3.316   2.915 -22.574  0.00  0.00    -0.064 C 
ATOM     15  C   UNL     1      -2.225   2.440 -22.051  0.00  0.00    -0.015 C 
ATOM     16  O   UNL     1       2.123   2.071 -23.548  0.00  0.00    -0.245 OA
ATOM     17  C   UNL     1      -1.115   2.470 -22.726  0.00  0.00    +0.089 C 
ENDROOT
TORSDOF 0
ENDMDL
