MODEL 1
REMARK VINA RESULT:    -9.641      0.000      0.000
REMARK INTER + INTRA:         -11.260
REMARK INTER:                 -12.134
REMARK INTRA:                   0.873
REMARK UNBOUND:                 2.045
REMARK  Name = ZINC000005430812
REMARK  13 active torsions:
REMARK  status: ('A' for Active; 'I' for Inactive)
REMARK    1  A    between atoms: C_1  and  O_2
REMARK    2  A    between atoms: O_2  and  C_3
REMARK    3  A    between atoms: C_4  and  O_5
REMARK    4  A    between atoms: C_11  and  O_12
REMARK    5  A    between atoms: C_13  and  C_14
REMARK    6  A    between atoms: C_14  and  C_15
REMARK    7  A    between atoms: C_16  and  C_17
REMARK    8  A    between atoms: C_16  and  C_18
REMARK    9  A    between atoms: C_19  and  O_20
REMARK   10  A    between atoms: C_25  and  C_26
REMARK   11  A    between atoms: C_26  and  C_27
REMARK   12  A    between atoms: C_28  and  C_29
REMARK   13  A    between atoms: C_28  and  C_30
REMARK                            x       y       z     vdW  Elec       q    Type
REMARK                         _______ _______ _______ _____ _____    ______ ____
ROOT
ATOM      1  C   UNL     1      -3.028   2.676 -22.427  0.00  0.00    +0.166 A 
ATOM      2  C   UNL     1      -2.951   1.910 -21.378  0.00  0.00    +0.162 A 
ATOM      3  C   UNL     1      -1.790   1.530 -20.933  0.00  0.00    +0.096 A 
ATOM      4  C   UNL     1      -0.705   1.916 -21.537  0.00  0.00    +0.143 A 
ATOM      5  O   UNL     1       0.456   1.537 -21.092  0.00  0.00    -0.454 OA
ATOM      6  C   UNL     1       1.541   1.923 -21.696  0.00  0.00    +0.146 A 
ATOM      7  C   UNL     1       2.702   1.543 -21.251  0.00  0.00    +0.093 A 
ATOM      8  C   UNL     1       3.787   1.929 -21.855  0.00  0.00    +0.127 A 
ATOM      9  C   UNL     1       3.711   2.695 -22.903  0.00  0.00    +0.040 A 
ATOM     10  C   UNL     1       2.550   3.074 -23.347  0.00  0.00    +0.138 A 
ATOM     11  C   UNL     1       1.464   2.688 -22.744  0.00  0.00    +0.106 A 
ATOM     12  C   UNL     1       0.303   3.067 -23.188  0.00  0.00    +0.204 A 
ATOM     13  O   UNL     1       0.227   3.833 -24.237  0.00  0.00    -0.286 OA
ATOM     14  C   UNL     1      -0.782   2.682 -22.585  0.00  0.00    +0.072 A 
ATOM     15  C   UNL     1      -1.943   3.061 -23.030  0.00  0.00    +0.016 A 
ENDROOT
BRANCH   8  16
ATOM     16  O   UNL     1       4.948   1.550 -21.410  0.00  0.00    -0.506 OA
ATOM     17  H   UNL     1       5.002   0.901 -20.736  0.00  0.00    +0.292 HD
ENDBRANCH   8  16
BRANCH  10  18
ATOM     18  O   UNL     1       2.474   3.839 -24.396  0.00  0.00    -0.506 OA
ATOM     19  H   UNL     1       2.111   3.507 -25.193  0.00  0.00    +0.292 HD
ENDBRANCH  10  18
BRANCH   2  20
ATOM     20  O   UNL     1      -4.036   1.524 -20.775  0.00  0.00    -0.503 OA
ATOM     21  H   UNL     1      -4.403   0.683 -20.963  0.00  0.00    +0.292 HD
ENDBRANCH   2  20
BRANCH   1  23
ATOM     22  C   UNL     1      -4.992   3.726 -22.101  0.00  0.00    +0.277 C 
ATOM     23  O   UNL     1      -4.188   3.055 -22.871  0.00  0.00    -0.491 OA
ENDBRANCH   1  23
BRANCH   9  24
ATOM     24  C   UNL     1       4.795   3.081 -23.506  0.00  0.00    +0.069 C 
BRANCH  24  25
ATOM     25  C   UNL     1       5.318   4.238 -23.225  0.00  0.00    -0.023 C 
ATOM     26  C   UNL     1       6.610   4.365 -23.146  0.00  0.00    -0.079 C 
ATOM     27  C   UNL     1       7.378   3.336 -23.348  0.00  0.00    +0.038 C 
ATOM     28  C   UNL     1       7.132   5.521 -22.865  0.00  0.00    +0.038 C 
ENDBRANCH  24  25
ENDBRANCH   9  24
BRANCH  15  29
ATOM     29  C   UNL     1      -2.019   3.826 -24.078  0.00  0.00    +0.067 C 
BRANCH  29  30
ATOM     30  C   UNL     1      -2.293   3.312 -25.240  0.00  0.00    -0.023 C 
ATOM     31  C   UNL     1      -3.252   3.811 -25.962  0.00  0.00    -0.079 C 
ATOM     32  C   UNL     1      -3.937   4.824 -25.522  0.00  0.00    +0.038 C 
ATOM     33  C   UNL     1      -3.526   3.297 -27.124  0.00  0.00    +0.038 C 
ENDBRANCH  29  30
ENDBRANCH  15  29
TORSDOF 8
ENDMDL
