MODEL 1
REMARK VINA RESULT:   -11.206      0.000      0.000
REMARK INTER + INTRA:         -12.323
REMARK INTER:                 -12.174
REMARK INTRA:                  -0.148
REMARK UNBOUND:                -0.134
REMARK  Name = COc1ccc2c3c1O[C@@]1(C)[C@@H](O)C=C[C@H]4[C@@H](C2)N(C)CC[C@]341      ZINC000100393604
REMARK  5 active torsions:
REMARK  status: ('A' for Active; 'I' for Inactive)
REMARK    1  A    between atoms: C_1  and  O_2
REMARK    2  A    between atoms: O_2  and  C_3
REMARK    3  A    between atoms: C_10  and  C_11
REMARK    4  A    between atoms: C_12  and  O_13
REMARK    5  A    between atoms: N_19  and  C_20
REMARK                            x       y       z     vdW  Elec       q    Type
REMARK                         _______ _______ _______ _____ _____    ______ ____
ROOT
ATOM      1  C   UNL     1       0.433   2.218 -23.385  0.00  0.00    +0.162 A 
ATOM      2  C   UNL     1       0.403   1.858 -22.173  0.00  0.00    +0.050 A 
ATOM      3  C   UNL     1      -0.663   1.913 -21.520  0.00  0.00    +0.008 A 
ATOM      4  C   UNL     1      -1.713   2.327 -22.069  0.00  0.00    -0.034 A 
ATOM      5  C   UNL     1      -1.703   2.690 -23.276  0.00  0.00    +0.012 A 
ATOM      6  C   UNL     1      -2.750   3.104 -23.822  0.00  0.00    +0.058 C 
ATOM      7  C   UNL     1      -3.876   3.590 -24.547  0.00  0.00    +0.067 C 
ATOM      8  C   UNL     1      -5.093   3.663 -23.835  0.00  0.00    +0.132 C 
ATOM      9  N   UNL     1      -5.086   3.253 -22.486  0.00  0.00    +0.236 N 
ATOM     10  H   UNL     1      -5.937   3.284 -21.924  0.00  0.00    +0.203 HD
ATOM     11  C   UNL     1      -6.122   3.286 -21.785  0.00  0.00    +0.190 C 
ATOM     12  C   UNL     1      -3.843   2.798 -21.957  0.00  0.00    +0.076 C 
ATOM     13  C   UNL     1      -3.817   3.159 -23.170  0.00  0.00    +0.075 C 
ATOM     14  C   UNL     1      -4.874   3.577 -23.723  0.00  0.00    -0.019 C 
ATOM     15  C   UNL     1      -4.856   3.936 -24.923  0.00  0.00    +0.004 C 
ATOM     16  C   UNL     1      -3.781   3.882 -25.587  0.00  0.00    +0.181 C 
ATOM     17  C   UNL     1      -2.734   3.469 -25.042  0.00  0.00    +0.148 C 
ATOM     18  C   UNL     1      -2.431   3.755 -26.222  0.00  0.00    +0.060 C 
ATOM     19  O   UNL     1      -1.263   3.166 -25.192  0.00  0.00    -0.478 OA
ATOM     20  C   UNL     1      -2.799   2.385 -21.408  0.00  0.00    +0.090 C 
ATOM     21  C   UNL     1      -0.629   2.637 -23.939  0.00  0.00    +0.167 A 
ENDROOT
BRANCH   1  23
ATOM     22  C   UNL     1       2.166   3.201 -24.241  0.00  0.00    +0.277 C 
ATOM     23  O   UNL     1       1.500   2.161 -24.035  0.00  0.00    -0.491 OA
ENDBRANCH   1  23
BRANCH  16  24
ATOM     24  O   UNL     1      -3.765   4.242 -26.786  0.00  0.00    -0.384 OA
ATOM     25  H   UNL     1      -4.402   3.712 -27.291  0.00  0.00    +0.210 HD
ENDBRANCH  16  24
TORSDOF 2
ENDMDL
