MODEL 1
REMARK VINA RESULT:   -10.513      0.000      0.000
REMARK INTER + INTRA:          -9.534
REMARK INTER:                 -11.839
REMARK INTRA:                   2.305
REMARK UNBOUND:                 2.208
REMARK  Name = ZINC000096316371
REMARK  6 active torsions:
REMARK  status: ('A' for Active; 'I' for Inactive)
REMARK    1  A    between atoms: C_1  and  O_2
REMARK    2  A    between atoms: O_2  and  C_3
REMARK    3  A    between atoms: C_12  and  O_13
REMARK    4  A    between atoms: O_13  and  C_14
REMARK    5  A    between atoms: N_20  and  C_21
REMARK    6  A    between atoms: C_22  and  C_23
REMARK                            x       y       z     vdW  Elec       q    Type
REMARK                         _______ _______ _______ _____ _____    ______ ____
ROOT
ATOM      1  C   UNL     1      -2.774   3.609 -25.408  0.00  0.00    +0.142 C 
ATOM      2  C   UNL     1      -3.921   3.718 -24.884  0.00  0.00    +0.045 C 
ATOM      3  C   UNL     1      -4.100   3.404 -23.683  0.00  0.00    +0.009 C 
ATOM      4  C   UNL     1      -3.131   2.976 -22.989  0.00  0.00    -0.007 C 
ATOM      5  C   UNL     1      -3.320   2.661 -21.775  0.00  0.00    +0.096 C 
ATOM      6  C   UNL     1      -2.363   2.237 -21.087  0.00  0.00    +0.094 C 
ATOM      7  C   UNL     1      -1.205   2.125 -21.605  0.00  0.00    -0.034 A 
ATOM      8  C   UNL     1      -0.245   1.700 -20.915  0.00  0.00    +0.008 A 
ATOM      9  C   UNL     1       0.893   1.591 -21.429  0.00  0.00    +0.050 A 
ATOM     10  C   UNL     1       1.084   1.905 -22.642  0.00  0.00    +0.162 A 
ATOM     11  C   UNL     1       0.113   2.334 -23.337  0.00  0.00    +0.168 A 
ATOM     12  O   UNL     1      -0.345   2.835 -24.678  0.00  0.00    -0.473 OA
ATOM     13  C   UNL     1      -1.034   2.443 -22.814  0.00  0.00    +0.016 A 
ATOM     14  N   UNL     1      -4.474   3.132 -22.471  0.00  0.00    +0.239 N 
ATOM     15  H   UNL     1      -5.388   3.210 -22.024  0.00  0.00    +0.204 HD
ATOM     16  C   UNL     1      -5.588   3.220 -21.905  0.00  0.00    +0.191 C 
ATOM     17  C   UNL     1      -4.300   3.492 -23.824  0.00  0.00    +0.133 C 
ATOM     18  C   UNL     1      -3.006   3.358 -24.377  0.00  0.00    +0.071 C 
ATOM     19  C   UNL     1      -1.993   2.866 -23.500  0.00  0.00    +0.077 C 
ATOM     20  C   UNL     1      -1.815   3.186 -24.722  0.00  0.00    +0.178 C 
ATOM     21  C   UNL     1      -1.359   3.419 -25.866  0.00  0.00    +0.065 C 
ENDROOT
BRANCH   1  23
ATOM     22  C   UNL     1      -3.401   3.526 -27.484  0.00  0.00    +0.276 C 
ATOM     23  O   UNL     1      -2.599   3.924 -26.609  0.00  0.00    -0.495 OA
ENDBRANCH   1  23
BRANCH  10  24
ATOM     24  O   UNL     1       2.223   1.794 -23.151  0.00  0.00    -0.491 OA
ATOM     25  C   UNL     1       2.918   0.777 -22.921  0.00  0.00    +0.277 C 
ENDBRANCH  10  24
TORSDOF 2
ENDMDL
