MODEL 1
REMARK VINA RESULT:   -10.995      0.000      0.000
REMARK INTER + INTRA:         -12.068
REMARK INTER:                 -11.952
REMARK INTRA:                  -0.115
REMARK UNBOUND:                -0.108
REMARK  Name = COc1ccc2c3c1O[C@@H]1[C@H](O)C=C[C@H]4[C@@H](C2)N(C=O)CC[C@]314       ZINC000253503938
REMARK  3 active torsions:
REMARK  status: ('A' for Active; 'I' for Inactive)
REMARK    1  A    between atoms: C_1  and  O_2
REMARK    2  A    between atoms: O_2  and  C_3
REMARK    3  A    between atoms: C_11  and  O_12
REMARK                            x       y       z     vdW  Elec       q    Type
REMARK                         _______ _______ _______ _____ _____    ______ ____
ROOT
ATOM      1  C   UNL     1       0.864   2.657 -23.966  0.00  0.00    +0.162 A 
ATOM      2  C   UNL     1       1.005   2.201 -22.794  0.00  0.00    +0.050 A 
ATOM      3  C   UNL     1       0.021   2.102 -22.030  0.00  0.00    +0.008 A 
ATOM      4  C   UNL     1      -1.112   2.457 -22.427  0.00  0.00    -0.038 A 
ATOM      5  C   UNL     1      -1.276   2.914 -23.588  0.00  0.00    +0.012 A 
ATOM      6  C   UNL     1      -2.409   3.266 -23.979  0.00  0.00    +0.049 C 
ATOM      7  C   UNL     1      -3.649   3.699 -24.535  0.00  0.00    +0.035 C 
ATOM      8  C   UNL     1      -4.778   3.600 -23.696  0.00  0.00    +0.109 C 
ATOM      9  N   UNL     1      -4.582   3.086 -22.397  0.00  0.00    -0.300 N 
ATOM     10  C   UNL     1      -5.533   2.960 -21.576  0.00  0.00    +0.328 C 
ATOM     11  O   UNL     1      -6.700   3.292 -21.894  0.00  0.00    -0.279 OA
ATOM     12  C   UNL     1      -3.253   2.712 -22.047  0.00  0.00    +0.088 C 
ATOM     13  C   UNL     1      -3.397   3.169 -23.217  0.00  0.00    +0.046 C 
ATOM     14  C   UNL     1      -4.544   3.526 -23.614  0.00  0.00    -0.022 C 
ATOM     15  C   UNL     1      -4.689   3.978 -24.771  0.00  0.00    +0.004 C 
ATOM     16  C   UNL     1      -3.699   4.081 -25.550  0.00  0.00    +0.178 C 
ATOM     17  C   UNL     1      -2.566   3.726 -25.153  0.00  0.00    +0.217 C 
ATOM     18  O   UNL     1      -1.099   3.579 -25.489  0.00  0.00    -0.481 OA
ATOM     19  C   UNL     1      -2.120   2.358 -21.651  0.00  0.00    +0.058 C 
ATOM     20  C   UNL     1      -0.284   3.015 -24.363  0.00  0.00    +0.167 A 
ENDROOT
BRANCH   1  22
ATOM     21  C   UNL     1       2.739   1.872 -24.719  0.00  0.00    +0.277 C 
ATOM     22  O   UNL     1       1.852   2.755 -24.726  0.00  0.00    -0.491 OA
ENDBRANCH   1  22
BRANCH  16  23
ATOM     23  O   UNL     1      -3.850   4.533 -26.705  0.00  0.00    -0.384 OA
ATOM     24  H   UNL     1      -4.516   4.006 -27.174  0.00  0.00    +0.210 HD
ENDBRANCH  16  23
TORSDOF 2
ENDMDL
