MODEL 1
REMARK VINA RESULT:   -11.104      0.000      0.000
REMARK INTER + INTRA:         -12.909
REMARK INTER:                 -12.371
REMARK INTRA:                  -0.537
REMARK UNBOUND:                 0.142
REMARK  Name = ZINC000071404305
REMARK  8 active torsions:
REMARK  status: ('A' for Active; 'I' for Inactive)
REMARK    1  A    between atoms: C_1  and  C_2
REMARK    2  A    between atoms: C_2  and  C_3
REMARK    3  A    between atoms: C_4  and  C_5
REMARK    4  A    between atoms: C_5  and  C_6
REMARK    5  A    between atoms: C_6  and  C_7
REMARK    6  A    between atoms: C_7  and  C_8
REMARK    7  A    between atoms: C_18  and  C_19
REMARK    8  A    between atoms: N_23  and  C_24
REMARK                            x       y       z     vdW  Elec       q    Type
REMARK                         _______ _______ _______ _____ _____    ______ ____
ROOT
ATOM      1  C   UNL     1       3.367   1.451 -22.098  0.00  0.00    +0.127 C 
ATOM      2  C   UNL     1       3.230   2.101 -23.214  0.00  0.00    +0.021 C 
ATOM      3  C   UNL     1       2.058   2.521 -23.589  0.00  0.00    +0.013 C 
ATOM      4  C   UNL     1       1.018   2.289 -22.841  0.00  0.00    +0.041 A 
ATOM      5  C   UNL     1       1.154   1.638 -21.723  0.00  0.00    +0.131 A 
ATOM      6  C   UNL     1       0.113   1.407 -20.977  0.00  0.00    +0.047 A 
ATOM      7  C   UNL     1      -1.059   1.827 -21.350  0.00  0.00    +0.014 A 
ATOM      8  C   UNL     1      -1.192   2.476 -22.466  0.00  0.00    +0.008 A 
ATOM      9  C   UNL     1      -2.232   2.992 -23.054  0.00  0.00    +0.008 A 
ATOM     10  C   UNL     1      -3.489   3.032 -22.722  0.00  0.00    +0.014 A 
ATOM     11  C   UNL     1      -4.347   3.622 -23.500  0.00  0.00    -0.050 A 
ATOM     12  C   UNL     1      -3.951   4.172 -24.609  0.00  0.00    +0.005 A 
ATOM     13  C   UNL     1      -2.695   4.131 -24.940  0.00  0.00    +0.027 A 
ATOM     14  C   UNL     1      -5.605   3.661 -23.168  0.00  0.00    +0.044 C 
ATOM     15  C   UNL     1      -1.834   3.542 -24.163  0.00  0.00    +0.050 A 
ATOM     16  N   UNL     1      -0.552   3.367 -24.262  0.00  0.00    -0.342 N 
ATOM     17  C   UNL     1       0.202   3.777 -25.237  0.00  0.00    +0.149 C 
ATOM     18  C   UNL     1      -0.155   2.709 -23.214  0.00  0.00    +0.061 A 
ATOM     19  C   UNL     1       3.929   0.803 -21.122  0.00  0.00    +0.060 C 
ATOM     20  O   UNL     1       2.326   1.219 -21.351  0.00  0.00    -0.481 OA
ENDROOT
BRANCH   1  21
ATOM     21  C   UNL     1       4.600   1.457 -22.505  0.00  0.00    +0.056 C 
BRANCH  21  22
ATOM     22  C   UNL     1       5.417   2.377 -22.084  0.00  0.00    +0.031 C 
BRANCH  22  25
ATOM     23  C   UNL     1       7.499   4.363 -23.970  0.00  0.00    +0.038 C 
ATOM     24  C   UNL     1       6.503   3.988 -23.223  0.00  0.00    -0.080 C 
ATOM     25  C   UNL     1       6.414   2.752 -22.831  0.00  0.00    -0.028 C 
ATOM     26  C   UNL     1       5.596   4.850 -22.868  0.00  0.00    +0.038 C 
ENDBRANCH  22  25
ENDBRANCH  21  22
ENDBRANCH   1  21
TORSDOF 3
ENDMDL
