MODEL 1
REMARK VINA RESULT:   -10.073      0.000      0.000
REMARK INTER + INTRA:          -6.864
REMARK INTER:                 -11.651
REMARK INTRA:                   4.788
REMARK UNBOUND:                 6.154
REMARK  Name = ZINC000096316392
REMARK  9 active torsions:
REMARK  status: ('A' for Active; 'I' for Inactive)
REMARK    1  A    between atoms: C_1  and  C_2
REMARK    2  A    between atoms: C_2  and  C_3
REMARK    3  A    between atoms: C_3  and  C_4
REMARK    4  A    between atoms: C_4  and  C_5
REMARK    5  A    between atoms: C_8  and  O_9
REMARK    6  A    between atoms: O_9  and  C_10
REMARK    7  A    between atoms: N_18  and  C_19
REMARK    8  A    between atoms: C_25  and  O_26
REMARK    9  A    between atoms: O_26  and  C_27
REMARK                            x       y       z     vdW  Elec       q    Type
REMARK                         _______ _______ _______ _____ _____    ______ ____
ROOT
ATOM      1  C   UNL     1      -1.476   3.205 -23.780  0.00  0.00    +0.181 C 
ATOM      2  O   UNL     1      -1.821   3.069 -22.311  0.00  0.00    -0.473 OA
ATOM      3  C   UNL     1      -3.299   3.145 -22.031  0.00  0.00    +0.168 A 
ATOM      4  C   UNL     1      -4.215   3.114 -21.150  0.00  0.00    +0.162 A 
ATOM      5  C   UNL     1      -5.428   3.240 -21.503  0.00  0.00    +0.050 A 
ATOM      6  C   UNL     1      -5.727   3.393 -22.713  0.00  0.00    +0.008 A 
ATOM      7  C   UNL     1      -4.818   3.423 -23.584  0.00  0.00    -0.034 A 
ATOM      8  C   UNL     1      -5.118   3.579 -24.816  0.00  0.00    +0.094 C 
ATOM      9  C   UNL     1      -4.212   3.609 -25.683  0.00  0.00    +0.096 C 
ATOM     10  C   UNL     1      -2.997   3.483 -25.333  0.00  0.00    -0.007 C 
ATOM     11  C   UNL     1      -2.083   3.513 -26.212  0.00  0.00    +0.009 C 
ATOM     12  C   UNL     1      -0.879   3.390 -25.873  0.00  0.00    +0.045 C 
ATOM     13  N   UNL     1      -3.259   3.656 -26.749  0.00  0.00    +0.239 N 
ATOM     14  H   UNL     1      -3.533   3.783 -27.724  0.00  0.00    +0.204 HD
ATOM     15  C   UNL     1      -3.615   3.812 -27.943  0.00  0.00    +0.191 C 
ATOM     16  C   UNL     1      -1.896   3.520 -26.394  0.00  0.00    +0.133 C 
ATOM     17  C   UNL     1      -1.589   3.348 -25.021  0.00  0.00    +0.071 C 
ATOM     18  C   UNL     1      -3.604   3.300 -23.252  0.00  0.00    +0.016 A 
ATOM     19  C   UNL     1      -0.572   3.235 -24.651  0.00  0.00    +0.142 C 
ATOM     20  C   UNL     1      -2.701   3.330 -24.123  0.00  0.00    +0.077 C 
ENDROOT
BRANCH   4  21
ATOM     21  O   UNL     1      -3.921   2.961 -19.939  0.00  0.00    -0.491 OA
ATOM     22  C   UNL     1      -3.085   3.721 -19.393  0.00  0.00    +0.277 C 
ENDBRANCH   4  21
BRANCH  19  23
ATOM     23  O   UNL     1       0.632   3.112 -24.315  0.00  0.00    -0.495 OA
ATOM     24  C   UNL     1       1.526   3.055 -25.195  0.00  0.00    +0.276 C 
ENDBRANCH  19  23
BRANCH   1  25
ATOM     25  C   UNL     1      -0.356   3.058 -23.172  0.00  0.00    +0.057 C 
BRANCH  25  26
ATOM     26  C   UNL     1      -0.276   2.561 -22.000  0.00  0.00    +0.004 C 
BRANCH  26  28
ATOM     27  C   UNL     1       1.531   1.475 -21.442  0.00  0.00    +0.004 C 
ATOM     28  C   UNL     1       0.316   1.473 -21.789  0.00  0.00    -0.003 C 
ENDBRANCH  26  28
ENDBRANCH  25  26
ENDBRANCH   1  25
TORSDOF 5
ENDMDL
