MODEL 1
REMARK VINA RESULT:    -9.012      0.000      0.000
REMARK INTER + INTRA:         -11.767
REMARK INTER:                 -11.781
REMARK INTRA:                   0.013
REMARK UNBOUND:                 0.669
REMARK  Name = ZINC000001614079
REMARK  12 active torsions:
REMARK  status: ('A' for Active; 'I' for Inactive)
REMARK    1  A    between atoms: C_1  and  O_2
REMARK    2  A    between atoms: O_2  and  C_3
REMARK    3  A    between atoms: C_6  and  C_7
REMARK    4  A    between atoms: C_12  and  O_13
REMARK    5  A    between atoms: C_14  and  O_15
REMARK    6  A    between atoms: O_15  and  C_16
REMARK    7  A    between atoms: C_17  and  O_18
REMARK    8  A    between atoms: O_18  and  C_19
REMARK    9  A    between atoms: C_20  and  O_21
REMARK   10  A    between atoms: O_21  and  C_22
REMARK   11  A    between atoms: C_26  and  O_27
REMARK   12  A    between atoms: O_27  and  C_28
REMARK                            x       y       z     vdW  Elec       q    Type
REMARK                         _______ _______ _______ _____ _____    ______ ____
ROOT
ATOM      1  C   UNL     1       0.958   2.286 -22.365  0.00  0.00    +0.140 A 
ATOM      2  C   UNL     1       1.470   1.200 -21.867  0.00  0.00    +0.098 A 
ATOM      3  C   UNL     1       2.759   1.076 -21.766  0.00  0.00    +0.197 A 
ATOM      4  C   UNL     1       3.538   2.038 -22.163  0.00  0.00    +0.113 A 
ATOM      5  C   UNL     1       4.829   1.914 -22.062  0.00  0.00    +0.177 A 
ATOM      6  C   UNL     1       5.607   2.876 -22.460  0.00  0.00    +0.208 A 
ATOM      7  C   UNL     1       5.095   3.962 -22.958  0.00  0.00    +0.211 A 
ATOM      8  C   UNL     1       3.805   4.086 -23.059  0.00  0.00    +0.209 A 
ATOM      9  C   UNL     1       3.026   3.124 -22.662  0.00  0.00    +0.188 A 
ATOM     10  O   UNL     1       3.271  -0.010 -21.267  0.00  0.00    -0.287 OA
ATOM     11  O   UNL     1       1.736   3.248 -22.763  0.00  0.00    -0.451 OA
ENDROOT
BRANCH   1  15
ATOM     12  C   UNL     1      -2.912   2.659 -22.670  0.00  0.00    +0.162 A 
ATOM     13  C   UNL     1      -2.360   2.541 -21.499  0.00  0.00    +0.050 A 
ATOM     14  C   UNL     1      -1.070   2.417 -21.398  0.00  0.00    +0.015 A 
ATOM     15  C   UNL     1      -0.332   2.410 -22.467  0.00  0.00    +0.021 A 
ATOM     16  C   UNL     1      -0.884   2.528 -23.638  0.00  0.00    +0.061 A 
ATOM     17  C   UNL     1      -2.173   2.653 -23.740  0.00  0.00    +0.162 A 
BRANCH  12  19
ATOM     18  C   UNL     1      -4.875   3.370 -21.826  0.00  0.00    +0.277 C 
ATOM     19  O   UNL     1      -4.202   2.783 -22.771  0.00  0.00    -0.491 OA
ENDBRANCH  12  19
BRANCH  17  20
ATOM     20  O   UNL     1      -2.725   2.770 -24.911  0.00  0.00    -0.491 OA
ATOM     21  C   UNL     1      -2.124   3.443 -25.848  0.00  0.00    +0.277 C 
ENDBRANCH  17  20
ENDBRANCH   1  15
BRANCH   8  22
ATOM     22  O   UNL     1       3.294   5.173 -23.558  0.00  0.00    -0.488 OA
ATOM     23  C   UNL     1       2.851   6.105 -22.768  0.00  0.00    +0.277 C 
ENDBRANCH   8  22
BRANCH   7  24
ATOM     24  O   UNL     1       5.874   4.924 -23.356  0.00  0.00    -0.488 OA
ATOM     25  C   UNL     1       6.331   5.787 -22.497  0.00  0.00    +0.277 C 
ENDBRANCH   7  24
BRANCH   6  26
ATOM     26  O   UNL     1       6.897   2.752 -22.358  0.00  0.00    -0.488 OA
ATOM     27  C   UNL     1       7.616   2.553 -23.423  0.00  0.00    +0.277 C 
ENDBRANCH   6  26
BRANCH   5  28
ATOM     28  O   UNL     1       5.340   0.828 -21.564  0.00  0.00    -0.503 OA
ATOM     29  H   UNL     1       5.535   0.102 -22.123  0.00  0.00    +0.292 HD
ENDBRANCH   5  28
TORSDOF 7
ENDMDL
