MODEL 1
REMARK VINA RESULT:   -10.440      0.000      0.000
REMARK INTER + INTRA:           5.242
REMARK INTER:                 -14.010
REMARK INTRA:                  19.252
REMARK UNBOUND:                19.953
REMARK  Name = ZINC000004104903
REMARK  14 active torsions:
REMARK  status: ('A' for Active; 'I' for Inactive)
REMARK    1  A    between atoms: C_1  and  O_2
REMARK    2  A    between atoms: O_2  and  C_3
REMARK    3  A    between atoms: C_3  and  C_5
REMARK    4  A    between atoms: C_9  and  C_10
REMARK    5  A    between atoms: C_9  and  C_11
REMARK    6  A    between atoms: C_17  and  C_18
REMARK    7  A    between atoms: C_18  and  C_19
REMARK    8  A    between atoms: C_18  and  C_20
REMARK    9  A    between atoms: C_21  and  O_22
REMARK   10  A    between atoms: O_22  and  C_23
REMARK   11  A    between atoms: C_23  and  C_24
REMARK   12  A    between atoms: C_26  and  O_27
REMARK   13  A    between atoms: O_27  and  C_28
REMARK   14  A    between atoms: C_28  and  C_29
REMARK                            x       y       z     vdW  Elec       q    Type
REMARK                         _______ _______ _______ _____ _____    ______ ____
ROOT
ATOM      1  C   UNL     1      -1.999   3.276 -23.224  0.00  0.00    +0.100 C 
ATOM      2  C   UNL     1      -2.020   4.044 -24.299  0.00  0.00    +0.023 C 
ATOM      3  C   UNL     1      -3.166   4.537 -24.750  0.00  0.00    +0.002 C 
ATOM      4  C   UNL     1      -4.296   4.261 -24.122  0.00  0.00    +0.007 C 
ATOM      5  C   UNL     1      -4.286   3.495 -23.048  0.00  0.00    -0.031 C 
ATOM      6  C   UNL     1      -4.722   2.819 -22.006  0.00  0.00    +0.011 C 
ATOM      7  C   UNL     1      -5.574   3.750 -23.134  0.00  0.00    +0.011 C 
ATOM      8  C   UNL     1      -0.834   2.766 -22.754  0.00  0.00    +0.019 A 
ATOM      9  C   UNL     1       0.325   3.025 -23.363  0.00  0.00    +0.178 A 
ATOM     10  C   UNL     1       1.455   2.523 -22.896  0.00  0.00    +0.177 A 
ATOM     11  C   UNL     1       1.433   1.761 -21.821  0.00  0.00    +0.002 A 
ATOM     12  C   UNL     1       0.288   1.500 -21.212  0.00  0.00    +0.011 A 
ATOM     13  C   UNL     1      -0.843   2.005 -21.682  0.00  0.00    -0.039 A 
ATOM     14  C   UNL     1      -1.990   1.737 -21.064  0.00  0.00    +0.036 C 
ATOM     15  C   UNL     1      -3.132   2.237 -21.524  0.00  0.00    +0.010 C 
ATOM     16  C   UNL     1      -3.140   3.004 -22.600  0.00  0.00    +0.016 C 
ENDROOT
BRANCH  11  17
ATOM     17  C   UNL     1       2.521   1.284 -21.380  0.00  0.00    +0.017 C 
ATOM     18  C   UNL     1       2.965   1.702 -20.250  0.00  0.00    +0.012 C 
ATOM     19  C   UNL     1       3.184   0.375 -22.068  0.00  0.00    +0.012 C 
ENDBRANCH  11  17
BRANCH   1  20
ATOM     20  C   UNL     1      -1.121   3.611 -23.880  0.00  0.00    +0.318 C 
ATOM     21  O   UNL     1      -0.960   3.214 -24.186  0.00  0.00    -0.250 OA
BRANCH  20  23
ATOM     22  C   UNL     1      -0.744   5.694 -23.081  0.00  0.00    +0.280 C 
ATOM     23  O   UNL     1      -0.509   4.760 -23.968  0.00  0.00    -0.467 OA
ENDBRANCH  20  23
ENDBRANCH   1  20
BRANCH   9  24
ATOM     24  O   UNL     1       0.461   3.779 -24.451  0.00  0.00    -0.422 OA
BRANCH  24  25
ATOM     25  C   UNL     1       1.165   3.505 -25.476  0.00  0.00    +0.309 C 
ATOM     26  O   UNL     1       1.563   4.499 -26.250  0.00  0.00    -0.251 OA
ATOM     27  C   UNL     1       1.485   2.281 -25.757  0.00  0.00    +0.136 C 
ENDBRANCH  24  25
ENDBRANCH   9  24
BRANCH  10  28
ATOM     28  O   UNL     1       2.752   2.854 -23.635  0.00  0.00    -0.422 OA
BRANCH  28  29
ATOM     29  C   UNL     1       3.782   3.811 -23.254  0.00  0.00    +0.309 C 
ATOM     30  O   UNL     1       3.445   5.078 -22.875  0.00  0.00    -0.251 OA
ATOM     31  C   UNL     1       5.066   3.485 -23.262  0.00  0.00    +0.136 C 
ENDBRANCH  28  29
ENDBRANCH  10  28
TORSDOF 7
ENDMDL
