MODEL 1
REMARK VINA RESULT:    -8.842      0.000      0.000
REMARK INTER + INTRA:         -11.062
REMARK INTER:                 -10.755
REMARK INTRA:                  -0.307
REMARK UNBOUND:                -0.411
REMARK  Name = ZINC000036020269
REMARK  5 active torsions:
REMARK  status: ('A' for Active; 'I' for Inactive)
REMARK    1  A    between atoms: N_6  and  C1*_7
REMARK    2  A    between atoms: C4*_9  and  C5*_10
REMARK    3  A    between atoms: C5*_10  and  O5*_11
REMARK    4  A    between atoms: C3*_12  and  O3*_13
REMARK    5  A    between atoms: C2*_14  and  O2*_15
REMARK                            x       y       z     vdW  Elec       q    Type
REMARK                         _______ _______ _______ _____ _____    ______ ____
ROOT
ATOM      1  O   UNL     1      -5.523   2.584 -21.291  0.00  0.00    -0.265 OA
ATOM      2  C   UNL     1      -4.356   2.798 -21.822  0.00  0.00    +0.282 A 
ATOM      3  N   UNL     1      -3.281   2.401 -21.210  0.00  0.00    -0.273 N 
ATOM      4  H   UNL     1      -3.350   1.938 -20.344  0.00  0.00    +0.173 HD
ATOM      5  C   UNL     1      -2.114   2.615 -21.741  0.00  0.00    +0.333 A 
ATOM      6  N   UNL     1      -2.022   3.226 -22.884  0.00  0.00    -0.247 N 
ATOM      7  C   UNL     1      -3.098   3.624 -23.497  0.00  0.00    +0.170 A 
ATOM      8  N   UNL     1      -3.006   4.235 -24.641  0.00  0.00    -0.234 NA
ATOM      9  C   UNL     1      -4.081   4.633 -25.253  0.00  0.00    +0.133 A 
ATOM     10  C   UNL     1      -5.248   4.419 -24.722  0.00  0.00    +0.131 A 
ATOM     11  N   UNL     1      -5.340   3.807 -23.578  0.00  0.00    -0.245 NA
ATOM     12  O   UNL     1      -1.038   2.217 -21.129  0.00  0.00    -0.246 OA
ATOM     13  C   UNL     1      -4.265   3.410 -22.966  0.00  0.00    +0.171 A 
ENDROOT
BRANCH   6  14
ATOM     14  C1* UNL     1      -0.855   3.440 -23.415  0.00  0.00    +0.257 C 
ATOM     15  O4* UNL     1      -0.150   2.577 -24.086  0.00  0.00    -0.346 OA
ATOM     16  C4* UNL     1       0.952   3.159 -24.454  0.00  0.00    +0.177 C 
ATOM     17  C3* UNL     1       0.931   4.381 -24.012  0.00  0.00    +0.178 C 
ATOM     18  C2* UNL     1      -0.187   4.554 -23.370  0.00  0.00    +0.195 C 
BRANCH  17  19
ATOM     19  O3* UNL     1       1.861   5.272 -24.181  0.00  0.00    -0.386 OA
ATOM     20  H3* UNL     1       2.339   5.087 -25.005  0.00  0.00    +0.210 HD
ENDBRANCH  17  19
BRANCH  18  21
ATOM     21  O2* UNL     1      -0.569   5.651 -22.785  0.00  0.00    -0.385 OA
ATOM     22  H2* UNL     1      -0.815   5.460 -21.866  0.00  0.00    +0.210 HD
ENDBRANCH  18  21
BRANCH  16  23
ATOM     23  C5* UNL     1       1.910   2.613 -25.144  0.00  0.00    +0.190 C 
BRANCH  23  24
ATOM     24  O5* UNL     1       1.694   2.231 -26.368  0.00  0.00    -0.392 OA
ATOM     25  H5* UNL     1       1.739   3.000 -26.958  0.00  0.00    +0.210 HD
ENDBRANCH  23  24
ENDBRANCH  16  23
ENDBRANCH   6  14
TORSDOF 5
ENDMDL
