MODEL 1
REMARK VINA RESULT:    -9.450      0.000      0.000
REMARK INTER + INTRA:          -9.726
REMARK INTER:                  -9.726
REMARK INTRA:                   0.000
REMARK UNBOUND:                 0.000
REMARK  Name = ZINC000004104697
REMARK  4 active torsions:
REMARK  status: ('A' for Active; 'I' for Inactive)
REMARK    1  A    between atoms: C_1  and  C_2
REMARK    2  A    between atoms: C_2  and  C_3
REMARK    3  A    between atoms: C_12  and  C_13
REMARK    4  A    between atoms: C_12  and  O_14
REMARK                            x       y       z     vdW  Elec       q    Type
REMARK                         _______ _______ _______ _____ _____    ______ ____
ROOT
ATOM      1  C   UNL     1      -3.681   3.971 -25.586  0.00  0.00    +0.012 C 
ATOM      2  C   UNL     1      -2.592   3.477 -25.074  0.00  0.00    -0.021 C 
ATOM      3  C   UNL     1      -1.779   2.952 -24.206  0.00  0.00    +0.065 C 
ATOM      4  C   UNL     1      -0.833   2.432 -23.480  0.00  0.00    +0.137 C 
ATOM      5  C   UNL     1      -0.883   2.049 -22.239  0.00  0.00    +0.075 C 
ATOM      6  C   UNL     1      -1.890   2.090 -21.417  0.00  0.00    +0.011 C 
ATOM      7  C   UNL     1      -3.095   2.525 -21.634  0.00  0.00    -0.004 C 
ATOM      8  C   UNL     1      -4.031   2.518 -20.732  0.00  0.00    +0.007 C 
ATOM      9  C   UNL     1      -5.106   3.016 -21.266  0.00  0.00    +0.035 C 
ATOM     10  C   UNL     1      -4.836   3.329 -22.497  0.00  0.00    +0.067 C 
ATOM     11  C   UNL     1      -4.824   3.723 -23.736  0.00  0.00    +0.041 C 
ATOM     12  C   UNL     1      -3.592   3.026 -22.725  0.00  0.00    +0.028 C 
ATOM     13  O   UNL     1       0.312   2.276 -24.074  0.00  0.00    -0.297 OA
ATOM     14  C   UNL     1      -1.800   3.566 -26.100  0.00  0.00    +0.012 C 
ATOM     15  C   UNL     1      -3.007   3.216 -23.870  0.00  0.00    +0.012 C 
ENDROOT
BRANCH  10  16
ATOM     16  O   UNL     1      -6.076   3.715 -22.529  0.00  0.00    -0.389 OA
ATOM     17  H   UNL     1      -6.525   3.431 -21.716  0.00  0.00    +0.210 HD
ENDBRANCH  10  16
TORSDOF 1
ENDMDL
