MODEL 1
REMARK VINA RESULT:   -10.525      0.000      0.000
REMARK INTER + INTRA:         -10.764
REMARK INTER:                 -11.826
REMARK INTRA:                   1.062
REMARK UNBOUND:                 0.991
REMARK  Name = COC1=C[C@]2(C)Oc3c(OC)ccc4c3[C@@]23CCN(C)[C@H](C4)C3=C1              ZINC000096316410
REMARK  6 active torsions:
REMARK  status: ('A' for Active; 'I' for Inactive)
REMARK    1  A    between atoms: C_1  and  O_2
REMARK    2  A    between atoms: O_2  and  C_3
REMARK    3  A    between atoms: C_5  and  C_6
REMARK    4  A    between atoms: C_9  and  O_10
REMARK    5  A    between atoms: O_10  and  C_11
REMARK    6  A    between atoms: N_19  and  C_20
REMARK                            x       y       z     vdW  Elec       q    Type
REMARK                         _______ _______ _______ _____ _____    ______ ____
ROOT
ATOM      1  C   UNL     1       0.582   2.222 -22.569  0.00  0.00    +0.120 C 
ATOM      2  C   UNL     1      -0.356   2.201 -21.718  0.00  0.00    +0.066 C 
ATOM      3  C   UNL     1      -1.508   2.562 -22.053  0.00  0.00    +0.143 C 
ATOM      4  O   UNL     1      -2.943   2.776 -21.628  0.00  0.00    -0.477 OA
ATOM      5  C   UNL     1      -3.825   3.289 -22.731  0.00  0.00    +0.168 A 
ATOM      6  C   UNL     1      -4.992   3.655 -23.071  0.00  0.00    +0.162 A 
ATOM      7  C   UNL     1      -5.205   4.037 -24.260  0.00  0.00    +0.050 A 
ATOM      8  C   UNL     1      -4.275   4.055 -25.099  0.00  0.00    +0.008 A 
ATOM      9  C   UNL     1      -3.120   3.693 -24.761  0.00  0.00    -0.034 A 
ATOM     10  C   UNL     1      -2.171   3.710 -25.610  0.00  0.00    +0.094 C 
ATOM     11  C   UNL     1      -1.021   3.349 -25.272  0.00  0.00    +0.097 C 
ATOM     12  C   UNL     1      -0.804   2.966 -24.084  0.00  0.00    -0.003 C 
ATOM     13  N   UNL     1       0.323   2.959 -24.991  0.00  0.00    +0.239 N 
ATOM     14  H   UNL     1       1.058   2.986 -25.698  0.00  0.00    +0.204 HD
ATOM     15  C   UNL     1       1.215   2.998 -25.869  0.00  0.00    +0.191 C 
ATOM     16  C   UNL     1       0.599   2.527 -23.675  0.00  0.00    +0.133 C 
ATOM     17  C   UNL     1      -0.470   2.516 -22.751  0.00  0.00    +0.071 C 
ATOM     18  C   UNL     1      -2.888   3.309 -23.581  0.00  0.00    +0.016 A 
ATOM     19  C   UNL     1      -1.574   2.239 -20.843  0.00  0.00    +0.062 C 
ATOM     20  C   UNL     1      -1.736   2.948 -23.246  0.00  0.00    +0.074 C 
ATOM     21  C   UNL     1       0.361   2.601 -23.743  0.00  0.00    +0.051 C 
ENDROOT
BRANCH   1  23
ATOM     22  C   UNL     1       2.686   2.674 -22.289  0.00  0.00    +0.277 C 
ATOM     23  O   UNL     1       1.734   1.861 -22.236  0.00  0.00    -0.495 OA
ENDBRANCH   1  23
BRANCH   6  24
ATOM     24  O   UNL     1      -5.926   3.638 -22.236  0.00  0.00    -0.491 OA
ATOM     25  C   UNL     1      -6.299   2.552 -21.733  0.00  0.00    +0.277 C 
ENDBRANCH   6  24
TORSDOF 2
ENDMDL
