MODEL 1
REMARK VINA RESULT:    -8.938      0.000      0.000
REMARK INTER + INTRA:          -8.877
REMARK INTER:                  -9.548
REMARK INTRA:                   0.671
REMARK UNBOUND:                 1.106
REMARK  Name = ZINC000014952150
REMARK  2 active torsions:
REMARK  status: ('A' for Active; 'I' for Inactive)
REMARK    1  A    between atoms: C_2  and  C_3
REMARK    2  A    between atoms: C_4  and  C_5
REMARK                            x       y       z     vdW  Elec       q    Type
REMARK                         _______ _______ _______ _____ _____    ______ ____
ROOT
ATOM      1  C   UNL     1       3.685   4.147 -23.278  0.00  0.00    +0.090 C 
ATOM      2  C   UNL     1       2.627   4.904 -23.317  0.00  0.00    +0.054 C 
ATOM      3  C   UNL     1       2.706   6.150 -22.953  0.00  0.00    -0.022 C 
ATOM      4  C   UNL     1       3.842   6.639 -22.552  0.00  0.00    -0.027 C 
ATOM      5  C   UNL     1       4.898   5.883 -22.514  0.00  0.00    +0.015 C 
ATOM      6  C   UNL     1       6.033   6.372 -22.112  0.00  0.00    +0.008 C 
ATOM      7  C   UNL     1       7.091   5.615 -22.074  0.00  0.00    +0.001 C 
ATOM      8  C   UNL     1       7.012   4.370 -22.437  0.00  0.00    +0.000 C 
ATOM      9  C   UNL     1       5.876   3.880 -22.839  0.00  0.00    +0.005 C 
ATOM     10  C   UNL     1       4.820   4.637 -22.877  0.00  0.00    +0.009 C 
ENDROOT
BRANCH   2  11
ATOM     11  C   UNL     1       1.492   4.414 -23.718  0.00  0.00    -0.036 A 
ATOM     12  C   UNL     1       1.236   4.323 -24.990  0.00  0.00    +0.008 A 
ATOM     13  C   UNL     1       0.101   3.833 -25.390  0.00  0.00    +0.050 A 
ATOM     14  C   UNL     1      -0.779   3.433 -24.520  0.00  0.00    +0.166 A 
ATOM     15  C   UNL     1      -0.523   3.524 -23.248  0.00  0.00    +0.167 A 
ATOM     16  O   UNL     1      -1.549   3.063 -22.597  0.00  0.00    -0.453 OA
ATOM     17  C   UNL     1      -2.440   2.688 -23.466  0.00  0.00    +0.466 C 
ATOM     18  O   UNL     1      -1.963   2.916 -24.654  0.00  0.00    -0.453 OA
ATOM     19  C   UNL     1       0.614   4.014 -22.847  0.00  0.00    +0.053 A 
ENDBRANCH   2  11
BRANCH   1  21
ATOM     20  O   UNL     1       3.732   2.581 -24.896  0.00  0.00    -0.275 OA
ATOM     21  C   UNL     1       3.606   2.902 -23.642  0.00  0.00    +0.220 C 
ATOM     22  N   UNL     1       3.401   1.977 -22.752  0.00  0.00    -0.301 N 
ATOM     23  C   UNL     1       3.303   0.700 -22.984  0.00  0.00    +0.108 C 
ATOM     24  C   UNL     1       3.100   0.100 -21.849  0.00  0.00    +0.020 C 
ATOM     25  C   UNL     1       3.072   1.005 -20.915  0.00  0.00    +0.020 C 
ATOM     26  C   UNL     1       3.259   2.165 -21.473  0.00  0.00    +0.108 C 
ENDBRANCH   1  21
TORSDOF 2
ENDMDL
