MODEL 1
REMARK VINA RESULT:   -11.222      0.000      0.000
REMARK INTER + INTRA:         -11.991
REMARK INTER:                 -11.840
REMARK INTRA:                  -0.150
REMARK UNBOUND:                -0.113
REMARK  Name = COc1ccc2c3c1O[C@]1(C)C(=O)C=C[C@@H]4[C@@H](C2)N(C)CC[C@]341          ZINC000100393552
REMARK  4 active torsions:
REMARK  status: ('A' for Active; 'I' for Inactive)
REMARK    1  A    between atoms: C_1  and  O_2
REMARK    2  A    between atoms: O_2  and  C_3
REMARK    3  A    between atoms: C_10  and  C_11
REMARK    4  A    between atoms: N_19  and  C_20
REMARK                            x       y       z     vdW  Elec       q    Type
REMARK                         _______ _______ _______ _____ _____    ______ ____
ROOT
ATOM      1  C   UNL     1       0.850   2.231 -23.207  0.00  0.00    +0.162 A 
ATOM      2  C   UNL     1       0.814   1.888 -21.990  0.00  0.00    +0.050 A 
ATOM      3  C   UNL     1      -0.262   1.927 -21.351  0.00  0.00    +0.008 A 
ATOM      4  C   UNL     1      -1.313   2.308 -21.919  0.00  0.00    -0.034 A 
ATOM      5  C   UNL     1      -1.297   2.653 -23.131  0.00  0.00    +0.013 A 
ATOM      6  C   UNL     1      -2.347   3.033 -23.695  0.00  0.00    +0.062 C 
ATOM      7  C   UNL     1      -3.475   3.481 -24.441  0.00  0.00    +0.067 C 
ATOM      8  C   UNL     1      -4.703   3.535 -23.746  0.00  0.00    +0.132 C 
ATOM      9  N   UNL     1      -4.703   3.145 -22.391  0.00  0.00    +0.236 N 
ATOM     10  H   UNL     1      -5.561   3.164 -21.839  0.00  0.00    +0.203 HD
ATOM     11  C   UNL     1      -5.748   3.164 -21.703  0.00  0.00    +0.190 C 
ATOM     12  C   UNL     1      -3.456   2.729 -21.840  0.00  0.00    +0.076 C 
ATOM     13  C   UNL     1      -3.424   3.072 -23.058  0.00  0.00    +0.076 C 
ATOM     14  C   UNL     1      -4.483   3.456 -23.630  0.00  0.00    -0.013 C 
ATOM     15  C   UNL     1      -4.458   3.797 -24.835  0.00  0.00    +0.046 C 
ATOM     16  C   UNL     1      -3.375   3.760 -25.485  0.00  0.00    +0.200 C 
ATOM     17  O   UNL     1      -3.353   4.102 -26.689  0.00  0.00    -0.288 OA
ATOM     18  C   UNL     1      -2.325   3.380 -24.921  0.00  0.00    +0.180 C 
ATOM     19  C   UNL     1      -2.014   3.656 -26.102  0.00  0.00    +0.065 C 
ATOM     20  O   UNL     1      -0.845   3.111 -25.048  0.00  0.00    -0.473 OA
ATOM     21  C   UNL     1      -2.409   2.349 -21.272  0.00  0.00    +0.090 C 
ATOM     22  C   UNL     1      -0.214   2.616 -23.780  0.00  0.00    +0.167 A 
ENDROOT
BRANCH   1  24
ATOM     23  C   UNL     1       2.615   3.226 -23.977  0.00  0.00    +0.277 C 
ATOM     24  O   UNL     1       1.927   2.191 -23.843  0.00  0.00    -0.491 OA
ENDBRANCH   1  24
TORSDOF 1
ENDMDL
