MODEL 1
REMARK VINA RESULT:   -10.530      0.000      0.000
REMARK INTER + INTRA:         -10.829
REMARK INTER:                 -11.824
REMARK INTRA:                   0.995
REMARK UNBOUND:                 0.932
REMARK  Name = COC1=C[C@@]2(C)Oc3c(OC)ccc4c3[C@@]23CCN(C)[C@H](C4)C3=C1             ZINC000096316409
REMARK  6 active torsions:
REMARK  status: ('A' for Active; 'I' for Inactive)
REMARK    1  A    between atoms: C_1  and  O_2
REMARK    2  A    between atoms: O_2  and  C_3
REMARK    3  A    between atoms: C_5  and  C_6
REMARK    4  A    between atoms: C_9  and  O_10
REMARK    5  A    between atoms: O_10  and  C_11
REMARK    6  A    between atoms: N_19  and  C_20
REMARK                            x       y       z     vdW  Elec       q    Type
REMARK                         _______ _______ _______ _____ _____    ______ ____
ROOT
ATOM      1  C   UNL     1       0.583   2.265 -22.487  0.00  0.00    +0.120 C 
ATOM      2  C   UNL     1      -0.367   2.256 -21.649  0.00  0.00    +0.066 C 
ATOM      3  C   UNL     1      -1.517   2.600 -22.007  0.00  0.00    +0.143 C 
ATOM      4  O   UNL     1      -2.960   2.812 -21.607  0.00  0.00    -0.477 OA
ATOM      5  C   UNL     1      -3.830   3.295 -22.733  0.00  0.00    +0.168 A 
ATOM      6  C   UNL     1      -4.995   3.644 -23.097  0.00  0.00    +0.162 A 
ATOM      7  C   UNL     1      -5.194   3.999 -24.296  0.00  0.00    +0.050 A 
ATOM      8  C   UNL     1      -4.252   4.006 -25.123  0.00  0.00    +0.008 A 
ATOM      9  C   UNL     1      -3.100   3.660 -24.761  0.00  0.00    -0.034 A 
ATOM     10  C   UNL     1      -2.139   3.667 -25.597  0.00  0.00    +0.094 C 
ATOM     11  C   UNL     1      -0.991   3.322 -25.236  0.00  0.00    +0.097 C 
ATOM     12  C   UNL     1      -0.788   2.967 -24.036  0.00  0.00    -0.003 C 
ATOM     13  N   UNL     1       0.352   2.948 -24.928  0.00  0.00    +0.239 N 
ATOM     14  H   UNL     1       1.096   2.966 -25.625  0.00  0.00    +0.204 HD
ATOM     15  C   UNL     1       1.255   2.975 -25.794  0.00  0.00    +0.191 C 
ATOM     16  C   UNL     1       0.613   2.547 -23.599  0.00  0.00    +0.133 C 
ATOM     17  C   UNL     1      -0.469   2.548 -22.690  0.00  0.00    +0.071 C 
ATOM     18  C   UNL     1      -2.882   3.304 -23.570  0.00  0.00    +0.016 A 
ATOM     19  C   UNL     1      -1.597   2.303 -20.791  0.00  0.00    +0.062 C 
ATOM     20  C   UNL     1      -1.731   2.959 -23.212  0.00  0.00    +0.074 C 
ATOM     21  C   UNL     1       0.375   2.618 -23.672  0.00  0.00    +0.051 C 
ENDROOT
BRANCH   1  23
ATOM     22  C   UNL     1       2.161   0.777 -22.410  0.00  0.00    +0.277 C 
ATOM     23  O   UNL     1       1.733   1.921 -22.131  0.00  0.00    -0.495 OA
ENDBRANCH   1  23
BRANCH   6  24
ATOM     24  O   UNL     1      -5.940   3.638 -22.274  0.00  0.00    -0.491 OA
ATOM     25  C   UNL     1      -6.293   2.565 -21.732  0.00  0.00    +0.277 C 
ENDBRANCH   6  24
TORSDOF 2
ENDMDL
