MODEL 1
REMARK VINA RESULT:    -9.967      0.000      0.000
REMARK INTER + INTRA:         -10.209
REMARK INTER:                 -11.155
REMARK INTRA:                   0.947
REMARK UNBOUND:                 0.924
REMARK  Name = COC1=C2Oc3c(OC)ccc4c3[C@@]23CCN(C=O)[C@@H](C4)[C@@H]3C=C1            ZINC000253505553
REMARK  4 active torsions:
REMARK  status: ('A' for Active; 'I' for Inactive)
REMARK    1  A    between atoms: C_1  and  O_2
REMARK    2  A    between atoms: O_2  and  C_3
REMARK    3  A    between atoms: C_7  and  O_8
REMARK    4  A    between atoms: O_8  and  C_9
REMARK                            x       y       z     vdW  Elec       q    Type
REMARK                         _______ _______ _______ _____ _____    ______ ____
ROOT
ATOM      1  C   UNL     1      -2.774   3.717 -25.310  0.00  0.00    +0.159 C 
ATOM      2  C   UNL     1      -1.637   3.363 -24.917  0.00  0.00    +0.158 C 
ATOM      3  O   UNL     1      -0.172   3.204 -25.261  0.00  0.00    -0.452 OA
ATOM      4  C   UNL     1       0.650   2.652 -24.131  0.00  0.00    +0.174 A 
ATOM      5  C   UNL     1       1.801   2.294 -23.737  0.00  0.00    +0.162 A 
ATOM      6  C   UNL     1       1.949   1.854 -22.558  0.00  0.00    +0.050 A 
ATOM      7  C   UNL     1       0.969   1.771 -21.785  0.00  0.00    +0.008 A 
ATOM      8  C   UNL     1      -0.167   2.126 -22.178  0.00  0.00    -0.038 A 
ATOM      9  C   UNL     1      -1.172   2.043 -21.393  0.00  0.00    +0.058 C 
ATOM     10  C   UNL     1      -2.307   2.397 -21.785  0.00  0.00    +0.088 C 
ATOM     11  C   UNL     1      -2.457   2.837 -22.963  0.00  0.00    +0.051 C 
ATOM     12  C   UNL     1      -3.607   3.194 -23.357  0.00  0.00    -0.017 C 
ATOM     13  N   UNL     1      -3.639   2.772 -22.133  0.00  0.00    -0.300 N 
ATOM     14  C   UNL     1      -4.599   2.670 -21.316  0.00  0.00    +0.328 C 
ATOM     15  O   UNL     1      -4.408   2.229 -20.156  0.00  0.00    -0.279 OA
ATOM     16  C   UNL     1      -3.842   3.268 -23.439  0.00  0.00    +0.109 C 
ATOM     17  C   UNL     1      -2.717   3.350 -24.289  0.00  0.00    +0.039 C 
ATOM     18  C   UNL     1      -0.339   2.567 -23.347  0.00  0.00    +0.016 A 
ATOM     19  C   UNL     1      -1.474   2.919 -23.734  0.00  0.00    +0.070 C 
ATOM     20  C   UNL     1      -3.759   3.630 -24.521  0.00  0.00    +0.045 C 
ENDROOT
BRANCH   1  22
ATOM     21  C   UNL     1      -3.334   3.389 -27.379  0.00  0.00    +0.277 C 
ATOM     22  O   UNL     1      -2.931   4.154 -26.473  0.00  0.00    -0.492 OA
ENDBRANCH   1  22
BRANCH   5  23
ATOM     23  O   UNL     1       2.785   2.376 -24.508  0.00  0.00    -0.491 OA
ATOM     24  C   UNL     1       3.949   2.313 -24.049  0.00  0.00    +0.277 C 
ENDBRANCH   5  23
TORSDOF 2
ENDMDL
