MODEL 1
REMARK VINA RESULT:    -9.752      0.000      0.000
REMARK INTER + INTRA:          -9.752
REMARK INTER:                  -9.752
REMARK INTRA:                   0.000
REMARK UNBOUND:                 0.000
REMARK  Name = ZINC000004104809
REMARK  3 active torsions:
REMARK  status: ('A' for Active; 'I' for Inactive)
REMARK    1  A    between atoms: C_1  and  C_2
REMARK    2  A    between atoms: C_10  and  C_11
REMARK    3  A    between atoms: C_15  and  C_16
REMARK                            x       y       z     vdW  Elec       q    Type
REMARK                         _______ _______ _______ _____ _____    ______ ____
ROOT
ATOM      1  C   UNL     1      -0.247   2.269 -22.340  0.00  0.00    +0.019 C 
ATOM      2  C   UNL     1      -0.616   2.774 -23.480  0.00  0.00    +0.101 C 
ATOM      3  C   UNL     1       0.155   2.992 -24.504  0.00  0.00    +0.311 C 
ATOM      4  O   UNL     1      -0.572   3.503 -25.453  0.00  0.00    -0.458 OA
ATOM      5  C   UNL     1      -1.792   3.601 -25.015  0.00  0.00    +0.212 C 
ATOM      6  C   UNL     1      -2.882   4.042 -25.569  0.00  0.00    +0.191 C 
ATOM      7  O   UNL     1      -3.973   4.484 -26.123  0.00  0.00    -0.361 OA
ATOM      8  C   UNL     1      -3.999   4.034 -24.904  0.00  0.00    +0.097 C 
ATOM      9  C   UNL     1      -5.273   4.283 -24.839  0.00  0.00    +0.044 C 
ATOM     10  C   UNL     1      -4.026   3.583 -23.685  0.00  0.00    +0.037 C 
ATOM     11  C   UNL     1      -5.143   3.574 -23.019  0.00  0.00    +0.003 C 
ATOM     12  C   UNL     1      -5.169   3.124 -21.800  0.00  0.00    +0.003 C 
ATOM     13  C   UNL     1      -4.079   2.683 -21.246  0.00  0.00    -0.014 C 
ATOM     14  C   UNL     1      -4.106   2.232 -20.027  0.00  0.00    +0.007 C 
ATOM     15  C   UNL     1      -2.963   2.691 -21.911  0.00  0.00    +0.004 C 
ATOM     16  C   UNL     1      -2.936   3.142 -23.131  0.00  0.00    +0.008 C 
ATOM     17  O   UNL     1       1.429   2.742 -24.569  0.00  0.00    -0.251 OA
ATOM     18  C   UNL     1      -1.819   3.151 -23.796  0.00  0.00    +0.046 C 
ENDROOT
TORSDOF 0
ENDMDL
