MODEL 1
REMARK VINA RESULT:    -9.507      0.000      0.000
REMARK INTER + INTRA:          -6.041
REMARK INTER:                  -9.769
REMARK INTRA:                   3.728
REMARK UNBOUND:                 7.634
REMARK  Name = ZINC000002018257
REMARK  13 active torsions:
REMARK  status: ('A' for Active; 'I' for Inactive)
REMARK    1  A    between atoms: C_1  and  O_2
REMARK    2  A    between atoms: O_2  and  C_3
REMARK    3  A    between atoms: C_7  and  O_8
REMARK    4  A    between atoms: O_8  and  C_9
REMARK    5  A    between atoms: C_10  and  O_11
REMARK    6  A    between atoms: O_11  and  C_12
REMARK    7  A    between atoms: C_16  and  O_17
REMARK    8  A    between atoms: O_17  and  C_18
REMARK    9  A    between atoms: C_23  and  N_24
REMARK   10  A    between atoms: N_24  and  C_25
REMARK   11  A    between atoms: N_24  and  C_26
REMARK   12  A    between atoms: C_26  and  C_27
REMARK   13  A    between atoms: C_32  and  O_33
REMARK                            x       y       z     vdW  Elec       q    Type
REMARK                         _______ _______ _______ _____ _____    ______ ____
ROOT
ATOM      1  C   UNL     1       6.195   7.901 -21.596  0.00  0.00    +0.165 A 
ATOM      2  C   UNL     1       4.997   7.808 -22.093  0.00  0.00    +0.054 A 
ATOM      3  C   UNL     1       4.496   6.640 -22.358  0.00  0.00    -0.032 A 
ATOM      4  C   UNL     1       5.187   5.564 -22.127  0.00  0.00    +0.031 A 
ATOM      5  C   UNL     1       4.851   4.326 -22.327  0.00  0.00    -0.005 A 
ATOM      6  C   UNL     1       5.902   3.672 -21.927  0.00  0.00    +0.013 A 
ATOM      7  C   UNL     1       6.101   2.389 -21.909  0.00  0.00    +0.050 A 
ATOM      8  C   UNL     1       5.298   1.437 -22.286  0.00  0.00    +0.167 A 
ATOM      9  C   UNL     1       4.097   1.540 -22.776  0.00  0.00    +0.221 A 
ATOM     10  C   UNL     1       3.402   2.614 -23.008  0.00  0.00    +0.064 A 
ATOM     11  O   UNL     1       3.513   0.416 -23.072  0.00  0.00    -0.284 OA
ATOM     12  C   UNL     1       3.740   3.853 -22.808  0.00  0.00    +0.012 A 
ATOM     13  C   UNL     1       2.689   4.508 -23.207  0.00  0.00    +0.096 C 
ATOM     14  C   UNL     1       2.488   5.791 -23.226  0.00  0.00    +0.064 C 
ATOM     15  C   UNL     1       6.385   5.660 -21.629  0.00  0.00    +0.173 A 
ATOM     16  C   UNL     1       3.294   6.739 -22.848  0.00  0.00    +0.042 C 
ATOM     17  C   UNL     1       6.891   6.827 -21.363  0.00  0.00    +0.204 A 
ENDROOT
BRANCH  13  18
ATOM     18  N   UNL     1       1.706   3.778 -23.648  0.00  0.00    +0.242 N 
ATOM     19  H   UNL     1       1.125   3.220 -24.275  0.00  0.00    +0.204 HD
ATOM     20  C   UNL     1       1.711   3.353 -24.877  0.00  0.00    +0.191 C 
BRANCH  18  21
ATOM     21  C   UNL     1       0.718   3.474 -22.860  0.00  0.00    +0.172 C 
BRANCH  21  22
ATOM     22  C   UNL     1      -0.505   3.546 -23.295  0.00  0.00    +0.038 A 
ATOM     23  C   UNL     1      -1.041   4.704 -23.538  0.00  0.00    +0.012 A 
ATOM     24  C   UNL     1      -2.265   4.775 -23.974  0.00  0.00    +0.001 A 
ATOM     25  C   UNL     1      -2.951   3.686 -24.164  0.00  0.00    +0.004 A 
ATOM     26  C   UNL     1      -2.413   2.529 -23.921  0.00  0.00    +0.046 A 
ATOM     27  C   UNL     1      -1.191   2.458 -23.486  0.00  0.00    +0.125 A 
BRANCH  27  28
ATOM     28  O   UNL     1      -0.654   1.300 -23.242  0.00  0.00    -0.506 OA
ATOM     29  H   UNL     1      -1.199   0.546 -23.129  0.00  0.00    +0.292 HD
ENDBRANCH  27  28
ENDBRANCH  21  22
ENDBRANCH  18  21
ENDBRANCH  13  18
BRANCH   8  30
ATOM     30  O   UNL     1       5.755   0.228 -22.159  0.00  0.00    -0.491 OA
ATOM     31  C   UNL     1       5.810  -0.325 -20.983  0.00  0.00    +0.277 C 
ENDBRANCH   8  30
BRANCH  17  32
ATOM     32  O   UNL     1       8.087   6.921 -20.866  0.00  0.00    -0.488 OA
ATOM     33  C   UNL     1       8.267   6.832 -19.583  0.00  0.00    +0.277 C 
ENDBRANCH  17  32
BRANCH   1  35
ATOM     34  C   UNL     1       5.922  10.045 -20.960  0.00  0.00    +0.277 C 
ATOM     35  O   UNL     1       6.700   9.070 -21.330  0.00  0.00    -0.491 OA
ENDBRANCH   1  35
BRANCH  15  36
ATOM     36  O   UNL     1       7.078   4.584 -21.398  0.00  0.00    -0.491 OA
ATOM     37  C   UNL     1       7.992   4.206 -22.242  0.00  0.00    +0.277 C 
ENDBRANCH  15  36
TORSDOF 8
ENDMDL
