MODEL 1
REMARK VINA RESULT:   -10.238      0.000      0.000
REMARK INTER + INTRA:         -12.265
REMARK INTER:                 -12.071
REMARK INTRA:                  -0.194
REMARK UNBOUND:                -0.232
REMARK  Name = ZINC000000338403
REMARK  6 active torsions:
REMARK  status: ('A' for Active; 'I' for Inactive)
REMARK    1  A    between atoms: C_1  and  O_2
REMARK    2  A    between atoms: O_2  and  C_3
REMARK    3  A    between atoms: C_8  and  O_9
REMARK    4  A    between atoms: O_9  and  C_10
REMARK    5  A    between atoms: C_15  and  O_16
REMARK    6  A    between atoms: C_17  and  O_18
REMARK                            x       y       z     vdW  Elec       q    Type
REMARK                         _______ _______ _______ _____ _____    ______ ____
ROOT
ATOM      1  C   UNL     1      -3.297   3.493 -23.276  0.00  0.00    +0.162 A 
ATOM      2  C   UNL     1      -2.577   3.716 -24.334  0.00  0.00    +0.053 A 
ATOM      3  C   UNL     1      -1.320   3.385 -24.347  0.00  0.00    -0.030 A 
ATOM      4  C   UNL     1      -0.783   2.831 -23.300  0.00  0.00    +0.008 A 
ATOM      5  C   UNL     1       0.475   2.500 -23.313  0.00  0.00    +0.100 C 
ATOM      6  C   UNL     1       1.011   1.947 -22.266  0.00  0.00    +0.095 C 
ATOM      7  C   UNL     1       2.268   1.616 -22.279  0.00  0.00    -0.030 A 
ATOM      8  C   UNL     1       2.805   1.062 -21.232  0.00  0.00    +0.053 A 
ATOM      9  C   UNL     1       4.062   0.731 -21.244  0.00  0.00    +0.158 A 
ATOM     10  C   UNL     1       4.782   0.954 -22.303  0.00  0.00    +0.159 A 
ATOM     11  C   UNL     1       4.246   1.508 -23.350  0.00  0.00    +0.058 A 
ATOM     12  C   UNL     1       2.989   1.838 -23.338  0.00  0.00    +0.004 A 
ATOM     13  C   UNL     1       2.451   2.392 -24.384  0.00  0.00    +0.169 C 
ATOM     14  N   UNL     1       1.195   2.723 -24.372  0.00  0.00    +0.244 N 
ATOM     15  H   UNL     1       0.507   3.150 -24.992  0.00  0.00    +0.204 HD
ATOM     16  C   UNL     1       0.658   3.276 -25.418  0.00  0.00    +0.137 C 
ATOM     17  C   UNL     1      -1.503   2.609 -22.241  0.00  0.00    +0.058 A 
ATOM     18  C   UNL     1      -0.600   3.608 -25.406  0.00  0.00    +0.086 C 
ATOM     19  C   UNL     1      -2.761   2.940 -22.229  0.00  0.00    +0.162 A 
ENDROOT
BRANCH   1  21
ATOM     20  C   UNL     1      -5.157   4.130 -24.373  0.00  0.00    +0.277 C 
ATOM     21  O   UNL     1      -4.554   3.824 -23.263  0.00  0.00    -0.491 OA
ENDBRANCH   1  21
BRANCH  10  22
ATOM     22  O   UNL     1       6.040   0.623 -22.316  0.00  0.00    -0.503 OA
ATOM     23  H   UNL     1       6.354  -0.002 -22.939  0.00  0.00    +0.292 HD
ENDBRANCH  10  22
BRANCH   9  24
ATOM     24  O   UNL     1       4.599   0.178 -20.198  0.00  0.00    -0.503 OA
ATOM     25  H   UNL     1       4.104  -0.429 -19.683  0.00  0.00    +0.292 HD
ENDBRANCH   9  24
BRANCH  19  26
ATOM     26  O   UNL     1      -3.481   2.717 -21.170  0.00  0.00    -0.491 OA
ATOM     27  C   UNL     1      -3.291   3.423 -20.094  0.00  0.00    +0.277 C 
ENDBRANCH  19  26
TORSDOF 4
ENDMDL
