MODEL 1
REMARK VINA RESULT:   -11.358      0.000      0.000
REMARK INTER + INTRA:         -12.022
REMARK INTER:                 -12.022
REMARK INTRA:                   0.000
REMARK UNBOUND:                 0.000
REMARK  Name = ZINC000013651795
REMARK  3 active torsions:
REMARK  status: ('A' for Active; 'I' for Inactive)
REMARK    1  A    between atoms: C_1  and  C_2
REMARK    2  A    between atoms: C_9  and  O_10
REMARK    3  A    between atoms: C_20  and  O_21
REMARK                            x       y       z     vdW  Elec       q    Type
REMARK                         _______ _______ _______ _____ _____    ______ ____
ROOT
ATOM      1  C   UNL     1      -4.524   3.832 -23.854  0.00  0.00    +0.014 C 
ATOM      2  C   UNL     1      -3.680   3.262 -23.045  0.00  0.00    -0.003 C 
ATOM      3  C   UNL     1      -3.167   3.604 -24.190  0.00  0.00    +0.010 C 
ATOM      4  C   UNL     1      -1.913   3.367 -24.438  0.00  0.00    +0.009 C 
ATOM      5  C   UNL     1      -1.172   2.787 -23.541  0.00  0.00    +0.023 C 
ATOM      6  C   UNL     1       0.082   2.549 -23.788  0.00  0.00    -0.040 A 
ATOM      7  C   UNL     1       0.594   2.892 -24.932  0.00  0.00    +0.008 A 
ATOM      8  C   UNL     1       1.849   2.654 -25.180  0.00  0.00    +0.047 A 
ATOM      9  C   UNL     1       2.589   2.074 -24.283  0.00  0.00    +0.131 A 
ATOM     10  C   UNL     1       2.076   1.732 -23.139  0.00  0.00    +0.063 A 
ATOM     11 BR   UNL     1       2.818   1.152 -22.242  0.00  0.00    -0.046 Br
ATOM     12  C   UNL     1       0.823   1.969 -22.891  0.00  0.00    -0.026 A 
ATOM     13  C   UNL     1       0.310   1.627 -21.746  0.00  0.00    +0.037 C 
ATOM     14  C   UNL     1      -0.944   1.865 -21.499  0.00  0.00    +0.009 C 
ATOM     15  C   UNL     1      -1.685   2.445 -22.396  0.00  0.00    +0.000 C 
ATOM     16  C   UNL     1      -4.879   3.384 -22.558  0.00  0.00    +0.121 C 
ATOM     17  C   UNL     1      -4.879   2.879 -21.360  0.00  0.00    +0.032 C 
ATOM     18  C   UNL     1      -3.680   2.446 -21.107  0.00  0.00    +0.007 C 
ATOM     19  C   UNL     1      -2.939   2.682 -22.148  0.00  0.00    +0.001 C 
ENDROOT
BRANCH   9  20
ATOM     20  O   UNL     1       3.844   1.836 -24.530  0.00  0.00    -0.506 OA
ATOM     21  H   UNL     1       4.131   0.960 -24.692  0.00  0.00    +0.292 HD
ENDBRANCH   9  20
BRANCH  16  22
ATOM     22  O   UNL     1      -5.899   3.916 -23.163  0.00  0.00    -0.391 OA
ATOM     23  H   UNL     1      -6.593   4.115 -22.514  0.00  0.00    +0.210 HD
ENDBRANCH  16  22
TORSDOF 2
ENDMDL
