MODEL 1
REMARK VINA RESULT:    -8.825      0.000      0.000
REMARK INTER + INTRA:         -13.851
REMARK INTER:                 -12.941
REMARK INTRA:                  -0.909
REMARK UNBOUND:                -0.125
REMARK  Name = ZINC000002556716
REMARK  11 active torsions:
REMARK  status: ('A' for Active; 'I' for Inactive)
REMARK    1  A    between atoms: C_1  and  C_2
REMARK    2  A    between atoms: C_2  and  O_3
REMARK    3  A    between atoms: O_3  and  C_4
REMARK    4  A    between atoms: C_4  and  C_6
REMARK    5  A    between atoms: C_6  and  C_7
REMARK    6  A    between atoms: C_6  and  N_15
REMARK    7  A    between atoms: C_7  and  C_8
REMARK    8  A    between atoms: C_11  and  O_12
REMARK    9  A    between atoms: C_16  and  O_18
REMARK   10  A    between atoms: O_18  and  C_19
REMARK   11  A    between atoms: C_19  and  C_20
REMARK                            x       y       z     vdW  Elec       q    Type
REMARK                         _______ _______ _______ _____ _____    ______ ____
ROOT
ATOM      1  C   UNL     1       1.686   1.811 -22.429  0.00  0.00    +0.189 C 
ENDROOT
BRANCH   1   2
ATOM      2  N   UNL     1       0.673   2.227 -21.727  0.00  0.00    -0.268 N 
ATOM      3  H   UNL     1       0.823   2.677 -20.864  0.00  0.00    +0.153 HD
ATOM      4  C   UNL     1      -0.538   2.048 -22.164  0.00  0.00    +0.401 C 
ATOM      5  O   UNL     1      -0.737   1.454 -23.304  0.00  0.00    -0.226 OA
BRANCH   4   6
ATOM      6  O   UNL     1      -1.551   2.464 -21.462  0.00  0.00    -0.446 OA
BRANCH   6   7
ATOM      7  C   UNL     1      -2.115   3.600 -21.746  0.00  0.00    +0.269 C 
BRANCH   7   8
ATOM      8  C   UNL     1      -3.281   3.620 -22.323  0.00  0.00    -0.010 A 
ATOM      9  C   UNL     1      -3.377   3.934 -23.581  0.00  0.00    +0.007 A 
ATOM     10  C   UNL     1      -4.542   3.954 -24.158  0.00  0.00    +0.000 A 
ATOM     11  C   UNL     1      -5.610   3.660 -23.477  0.00  0.00    +0.000 A 
ATOM     12  C   UNL     1      -5.513   3.346 -22.219  0.00  0.00    +0.000 A 
ATOM     13  C   UNL     1      -4.348   3.326 -21.642  0.00  0.00    +0.007 A 
ENDBRANCH   7   8
ENDBRANCH   6   7
ENDBRANCH   4   6
ENDBRANCH   1   2
BRANCH   1  14
ATOM     14  C   UNL     1       2.302   0.717 -22.096  0.00  0.00    +0.328 C 
ATOM     15  O   UNL     1       2.351  -0.280 -22.928  0.00  0.00    -0.249 OA
BRANCH  14  16
ATOM     16  O   UNL     1       2.871   0.620 -20.931  0.00  0.00    -0.464 OA
BRANCH  16  18
ATOM     17  C   UNL     1       5.015   1.223 -20.599  0.00  0.00    +0.048 C 
ATOM     18  C   UNL     1       4.129   0.303 -20.846  0.00  0.00    +0.229 C 
ENDBRANCH  16  18
ENDBRANCH  14  16
ENDBRANCH   1  14
BRANCH   1  19
ATOM     19  C   UNL     1       2.081   2.492 -23.464  0.00  0.00    +0.069 C 
BRANCH  19  20
ATOM     20  C   UNL     1       3.139   3.242 -23.383  0.00  0.00    -0.045 A 
ATOM     21  C   UNL     1       3.033   4.475 -22.985  0.00  0.00    +0.007 A 
ATOM     22  C   UNL     1       4.091   5.225 -22.904  0.00  0.00    +0.045 A 
ATOM     23  C   UNL     1       5.257   4.743 -23.221  0.00  0.00    +0.117 A 
ATOM     24  C   UNL     1       5.362   3.510 -23.620  0.00  0.00    +0.045 A 
ATOM     25  C   UNL     1       4.304   2.759 -23.701  0.00  0.00    +0.007 A 
BRANCH  23  26
ATOM     26  O   UNL     1       6.315   5.493 -23.140  0.00  0.00    -0.507 OA
ATOM     27  H   UNL     1       7.137   5.180 -23.463  0.00  0.00    +0.292 HD
ENDBRANCH  23  26
ENDBRANCH  19  20
ENDBRANCH   1  19
TORSDOF 10
ENDMDL
