MODEL 1
REMARK VINA RESULT:    -8.152      0.000      0.000
REMARK INTER + INTRA:         -10.218
REMARK INTER:                 -11.136
REMARK INTRA:                   0.918
REMARK UNBOUND:                 0.793
REMARK  Name = COc1ccc2c(c1)OC[C@@H](c1c(OC)cc(OC)c(OC)c1OC)C2=O                    ZINC000253402590
REMARK  11 active torsions:
REMARK  status: ('A' for Active; 'I' for Inactive)
REMARK    1  A    between atoms: C_1  and  O_2
REMARK    2  A    between atoms: O_2  and  C_3
REMARK    3  A    between atoms: C_11  and  C_12
REMARK    4  A    between atoms: C_13  and  O_14
REMARK    5  A    between atoms: O_14  and  C_15
REMARK    6  A    between atoms: C_17  and  O_18
REMARK    7  A    between atoms: O_18  and  C_19
REMARK    8  A    between atoms: C_20  and  O_21
REMARK    9  A    between atoms: O_21  and  C_22
REMARK   10  A    between atoms: C_23  and  O_24
REMARK   11  A    between atoms: O_24  and  C_25
REMARK                            x       y       z     vdW  Elec       q    Type
REMARK                         _______ _______ _______ _____ _____    ______ ____
ROOT
ATOM      1  C   UNL     1      -2.402   3.815 -23.029  0.00  0.00    +0.053 A 
ATOM      2  C   UNL     1      -2.963   3.505 -21.898  0.00  0.00    +0.131 A 
ATOM      3  C   UNL     1      -4.253   3.359 -21.830  0.00  0.00    +0.095 A 
ATOM      4  C   UNL     1      -4.982   3.524 -22.894  0.00  0.00    +0.169 A 
ATOM      5  C   UNL     1      -4.421   3.835 -24.025  0.00  0.00    +0.204 A 
ATOM      6  C   UNL     1      -3.131   3.981 -24.093  0.00  0.00    +0.173 A 
ENDROOT
BRANCH   1  14
ATOM      7  C   UNL     1       3.525   3.353 -23.415  0.00  0.00    +0.124 A 
ATOM      8  C   UNL     1       3.001   2.165 -23.464  0.00  0.00    +0.046 A 
ATOM      9  C   UNL     1       1.710   2.018 -23.397  0.00  0.00    +0.018 A 
ATOM     10  C   UNL     1       0.944   3.062 -23.281  0.00  0.00    +0.060 A 
ATOM     11  C   UNL     1       1.468   4.251 -23.232  0.00  0.00    +0.134 A 
ATOM     12  O   UNL     1       0.702   5.294 -23.115  0.00  0.00    -0.490 OA
ATOM     13  C   UNL     1      -0.589   5.149 -23.048  0.00  0.00    +0.245 C 
ATOM     14  C   UNL     1      -1.112   3.961 -23.097  0.00  0.00    +0.135 C 
ATOM     15  C   UNL     1      -0.345   2.917 -23.213  0.00  0.00    +0.177 C 
ATOM     16  O   UNL     1      -0.870   1.728 -23.262  0.00  0.00    -0.291 OA
ATOM     17  C   UNL     1       2.758   4.396 -23.299  0.00  0.00    +0.092 A 
BRANCH   7  19
ATOM     18  C   UNL     1       5.393   4.472 -22.845  0.00  0.00    +0.277 C 
ATOM     19  O   UNL     1       4.815   3.498 -23.483  0.00  0.00    -0.495 OA
ENDBRANCH   7  19
ENDBRANCH   1  14
BRANCH   5  20
ATOM     20  O   UNL     1      -5.151   4.000 -25.088  0.00  0.00    -0.488 OA
ATOM     21  C   UNL     1      -5.333   3.010 -25.911  0.00  0.00    +0.277 C 
ENDBRANCH   5  20
BRANCH   4  22
ATOM     22  O   UNL     1      -6.272   3.379 -22.826  0.00  0.00    -0.491 OA
ATOM     23  C   UNL     1      -6.801   2.713 -21.843  0.00  0.00    +0.277 C 
ENDBRANCH   4  22
BRANCH   2  24
ATOM     24  O   UNL     1      -2.233   3.339 -20.835  0.00  0.00    -0.495 OA
ATOM     25  C   UNL     1      -2.688   3.703 -19.672  0.00  0.00    +0.277 C 
ENDBRANCH   2  24
BRANCH   6  26
ATOM     26  O   UNL     1      -2.571   4.291 -25.223  0.00  0.00    -0.491 OA
ATOM     27  C   UNL     1      -2.194   3.354 -26.041  0.00  0.00    +0.277 C 
ENDBRANCH   6  26
TORSDOF 6
ENDMDL
