MODEL 1
REMARK VINA RESULT:    -7.997      0.000      0.000
REMARK INTER + INTRA:         -11.352
REMARK INTER:                 -10.924
REMARK INTRA:                  -0.427
REMARK UNBOUND:                -0.550
REMARK  Name = ZINC000016997581
REMARK  7 active torsions:
REMARK  status: ('A' for Active; 'I' for Inactive)
REMARK    1  A    between atoms: C_1  and  O_2
REMARK    2  A    between atoms: O_2  and  C_3
REMARK    3  A    between atoms: C_3  and  C_5
REMARK    4  A    between atoms: C_5  and  C_6
REMARK    5  A    between atoms: C_5  and  N_12
REMARK    6  A    between atoms: C_6  and  C_7
REMARK    7  A    between atoms: C_13  and  C_15
REMARK                            x       y       z     vdW  Elec       q    Type
REMARK                         _______ _______ _______ _____ _____    ______ ____
ROOT
ATOM      1  C   UNL     1       0.542   2.612 -22.744  0.00  0.00    +0.188 C 
ENDROOT
BRANCH   1   2
ATOM      2  N   UNL     1      -0.677   2.906 -22.400  0.00  0.00    -0.298 N 
ATOM      3  H   UNL     1      -0.848   3.395 -21.563  0.00  0.00    +0.150 HD
ATOM      4  C   UNL     1      -1.669   2.556 -23.163  0.00  0.00    +0.245 C 
ATOM      5  O   UNL     1      -1.443   1.911 -24.268  0.00  0.00    -0.270 OA
BRANCH   4   6
ATOM      6  C   UNL     1      -2.888   2.849 -22.820  0.00  0.00    +0.037 A 
ATOM      7  C   UNL     1      -3.679   3.438 -23.665  0.00  0.00    +0.013 A 
ATOM      8  C   UNL     1      -4.898   3.732 -23.324  0.00  0.00    +0.001 A 
ATOM      9  C   UNL     1      -5.328   3.435 -22.130  0.00  0.00    +0.000 A 
ATOM     10  C   UNL     1      -4.536   2.846 -21.285  0.00  0.00    +0.001 A 
ATOM     11  C   UNL     1      -3.317   2.552 -21.626  0.00  0.00    +0.013 A 
ENDBRANCH   4   6
ENDBRANCH   1   2
BRANCH   1  12
ATOM     12  C   UNL     1       1.166   1.635 -22.154  0.00  0.00    +0.328 C 
ATOM     13  O   UNL     1       1.092   1.503 -20.863  0.00  0.00    -0.249 OA
BRANCH  12  15
ATOM     14  C   UNL     1       3.032   0.408 -22.437  0.00  0.00    +0.280 C 
ATOM     15  O   UNL     1       1.863   0.792 -22.856  0.00  0.00    -0.467 OA
ENDBRANCH  12  15
ENDBRANCH   1  12
BRANCH   1  16
ATOM     16  C   UNL     1       1.138   3.294 -23.676  0.00  0.00    +0.088 C 
BRANCH  16  17
ATOM     17  C   UNL     1       1.986   4.225 -23.360  0.00  0.00    +0.038 A 
ATOM     18  C   UNL     1       3.256   4.060 -23.139  0.00  0.00    +0.133 A 
ATOM     19  N   UNL     1       3.770   5.218 -22.851  0.00  0.00    -0.244 NA
ATOM     20  C   UNL     1       2.816   6.101 -22.893  0.00  0.00    +0.196 A 
ATOM     21  N   UNL     1       1.715   5.487 -23.208  0.00  0.00    -0.348 N 
ATOM     22  H   UNL     1       0.830   5.905 -23.313  0.00  0.00    +0.166 HD
ENDBRANCH  16  17
ENDBRANCH   1  16
TORSDOF 6
ENDMDL
