MODEL 1
REMARK VINA RESULT:    -5.812      0.000      0.000
REMARK INTER + INTRA:          -7.205
REMARK INTER:                  -7.072
REMARK INTRA:                  -0.132
REMARK UNBOUND:                -0.203
REMARK  Name = ZINC000001529432
REMARK  5 active torsions:
REMARK  status: ('A' for Active; 'I' for Inactive)
REMARK    1  A    between atoms: C_1  and  N_2
REMARK    2  A    between atoms: N_2  and  C_3
REMARK    3  A    between atoms: C_3  and  C_4
REMARK    4  A    between atoms: C_4  and  C_5
REMARK    5  A    between atoms: C_8  and  O_9
REMARK                            x       y       z     vdW  Elec       q    Type
REMARK                         _______ _______ _______ _____ _____    ______ ____
ROOT
ATOM      1  C   UNL     1      -2.855   3.516 -24.760  0.00  0.00    -0.042 A 
ATOM      2  C   UNL     1      -3.969   4.058 -25.155  0.00  0.00    +0.007 A 
ATOM      3  C   UNL     1      -4.987   4.115 -24.349  0.00  0.00    +0.045 A 
ATOM      4  C   UNL     1      -4.891   3.631 -23.146  0.00  0.00    +0.117 A 
ATOM      5  C   UNL     1      -3.777   3.089 -22.750  0.00  0.00    +0.045 A 
ATOM      6  C   UNL     1      -2.760   3.032 -23.556  0.00  0.00    +0.007 A 
ENDROOT
BRANCH   4   7
ATOM      7  O   UNL     1      -5.909   3.688 -22.339  0.00  0.00    -0.507 OA
ATOM      8  H   UNL     1      -6.238   2.904 -21.944  0.00  0.00    +0.292 HD
ENDBRANCH   4   7
BRANCH   1   9
ATOM      9  C   UNL     1      -1.837   3.459 -25.566  0.00  0.00    +0.086 C 
BRANCH   9  10
ATOM     10  C   UNL     1      -0.630   3.577 -25.098  0.00  0.00    +0.134 C 
BRANCH  10  12
ATOM     11  C   UNL     1       1.534   2.966 -25.210  0.00  0.00    +0.188 C 
ATOM     12  N   UNL     1       0.380   3.130 -25.784  0.00  0.00    +0.225 N 
ATOM     13  H   UNL     1       0.556   3.878 -26.456  0.00  0.00    +0.201 HD
ATOM     14  H   UNL     1       0.104   2.221 -26.156  0.00  0.00    +0.201 HD
ENDBRANCH  10  12
ENDBRANCH   9  10
ENDBRANCH   1   9
TORSDOF 4
ENDMDL
