MODEL 1
REMARK VINA RESULT:    -9.440      0.000      0.000
REMARK INTER + INTRA:         -12.387
REMARK INTER:                 -11.914
REMARK INTRA:                  -0.473
REMARK UNBOUND:                -0.188
REMARK  Name = ZINC000006018691
REMARK  9 active torsions:
REMARK  status: ('A' for Active; 'I' for Inactive)
REMARK    1  A    between atoms: C_1  and  O_2
REMARK    2  A    between atoms: O_2  and  C_3
REMARK    3  A    between atoms: C_6  and  C_7
REMARK    4  A    between atoms: C_12  and  O_13
REMARK    5  A    between atoms: C_14  and  O_15
REMARK    6  A    between atoms: O_15  and  C_16
REMARK    7  A    between atoms: C_17  and  O_18
REMARK    8  A    between atoms: C_23  and  O_24
REMARK    9  A    between atoms: O_24  and  C_25
REMARK                            x       y       z     vdW  Elec       q    Type
REMARK                         _______ _______ _______ _____ _____    ______ ____
ROOT
ATOM      1  C   UNL     1      -0.839   3.331 -22.748  0.00  0.00    +0.139 A 
ATOM      2  C   UNL     1      -0.196   4.314 -23.308  0.00  0.00    +0.098 A 
ATOM      3  C   UNL     1       1.099   4.267 -23.414  0.00  0.00    +0.197 A 
ATOM      4  C   UNL     1       1.751   3.239 -22.961  0.00  0.00    +0.109 A 
ATOM      5  C   UNL     1       3.046   3.193 -23.067  0.00  0.00    +0.177 A 
ATOM      6  C   UNL     1       3.700   2.164 -22.614  0.00  0.00    +0.204 A 
ATOM      7  C   UNL     1       3.058   1.181 -22.054  0.00  0.00    +0.166 A 
ATOM      8  C   UNL     1       1.762   1.228 -21.948  0.00  0.00    +0.096 A 
ATOM      9  C   UNL     1       1.110   2.256 -22.401  0.00  0.00    +0.146 A 
ATOM     10  O   UNL     1       1.740   5.249 -23.973  0.00  0.00    -0.287 OA
ATOM     11  O   UNL     1      -0.185   2.302 -22.295  0.00  0.00    -0.454 OA
ENDROOT
BRANCH   1  15
ATOM     12  C   UNL     1      -4.722   3.469 -22.430  0.00  0.00    +0.162 A 
ATOM     13  C   UNL     1      -3.990   3.275 -21.374  0.00  0.00    +0.050 A 
ATOM     14  C   UNL     1      -2.696   3.229 -21.479  0.00  0.00    +0.015 A 
ATOM     15  C   UNL     1      -2.133   3.377 -22.642  0.00  0.00    +0.021 A 
ATOM     16  C   UNL     1      -2.865   3.572 -23.699  0.00  0.00    +0.061 A 
ATOM     17  C   UNL     1      -4.160   3.618 -23.593  0.00  0.00    +0.162 A 
BRANCH  12  19
ATOM     18  C   UNL     1      -6.648   2.596 -21.656  0.00  0.00    +0.277 C 
ATOM     19  O   UNL     1      -6.018   3.516 -22.324  0.00  0.00    -0.491 OA
ENDBRANCH  12  19
BRANCH  17  20
ATOM     20  O   UNL     1      -4.892   3.812 -24.649  0.00  0.00    -0.491 OA
ATOM     21  C   UNL     1      -4.494   3.372 -25.806  0.00  0.00    +0.277 C 
ENDBRANCH  17  20
ENDBRANCH   1  15
BRANCH   7  22
ATOM     22  O   UNL     1       3.711   0.153 -21.601  0.00  0.00    -0.503 OA
ATOM     23  H   UNL     1       4.640   0.106 -21.705  0.00  0.00    +0.292 HD
ENDBRANCH   7  22
BRANCH   6  24
ATOM     24  O   UNL     1       4.994   2.118 -22.720  0.00  0.00    -0.488 OA
ATOM     25  C   UNL     1       5.741   2.631 -21.788  0.00  0.00    +0.277 C 
ENDBRANCH   6  24
BRANCH   5  26
ATOM     26  O   UNL     1       3.688   4.175 -23.627  0.00  0.00    -0.503 OA
ATOM     27  H   UNL     1       3.302   4.639 -24.344  0.00  0.00    +0.292 HD
ENDBRANCH   5  26
TORSDOF 6
ENDMDL
