MODEL 1
REMARK VINA RESULT:    -9.391      0.000      0.000
REMARK INTER + INTRA:          -4.971
REMARK INTER:                 -12.284
REMARK INTRA:                   7.313
REMARK UNBOUND:                 7.988
REMARK  Name = CCCC[C@H](O)[C@@]12Oc3c(OC)ccc4c3[C@@]13CCN(C)[C@@H](C4)C3=CC=C2OC   ZINC000253505580
REMARK  11 active torsions:
REMARK  status: ('A' for Active; 'I' for Inactive)
REMARK    1  A    between atoms: C_1  and  C_2
REMARK    2  A    between atoms: C_2  and  C_3
REMARK    3  A    between atoms: C_3  and  C_4
REMARK    4  A    between atoms: C_4  and  C_5
REMARK    5  A    between atoms: C_5  and  O_6
REMARK    6  A    between atoms: C_5  and  C_7
REMARK    7  A    between atoms: C_10  and  O_11
REMARK    8  A    between atoms: O_11  and  C_12
REMARK    9  A    between atoms: N_20  and  C_21
REMARK   10  A    between atoms: C_27  and  O_28
REMARK   11  A    between atoms: O_28  and  C_29
REMARK                            x       y       z     vdW  Elec       q    Type
REMARK                         _______ _______ _______ _____ _____    ______ ____
ROOT
ATOM      1  C   UNL     1      -1.547   3.210 -23.779  0.00  0.00    +0.206 C 
ATOM      2  O   UNL     1      -1.897   3.079 -22.314  0.00  0.00    -0.470 OA
ATOM      3  C   UNL     1      -3.366   3.153 -22.035  0.00  0.00    +0.168 A 
ATOM      4  C   UNL     1      -4.282   3.124 -21.158  0.00  0.00    +0.162 A 
ATOM      5  C   UNL     1      -5.492   3.246 -21.507  0.00  0.00    +0.050 A 
ATOM      6  C   UNL     1      -5.785   3.396 -22.716  0.00  0.00    +0.008 A 
ATOM      7  C   UNL     1      -4.884   3.425 -23.582  0.00  0.00    -0.034 A 
ATOM      8  C   UNL     1      -5.178   3.576 -24.810  0.00  0.00    +0.094 C 
ATOM      9  C   UNL     1      -4.278   3.605 -25.677  0.00  0.00    +0.096 C 
ATOM     10  C   UNL     1      -3.070   3.483 -25.324  0.00  0.00    -0.007 C 
ATOM     11  C   UNL     1      -2.158   3.512 -26.199  0.00  0.00    +0.009 C 
ATOM     12  C   UNL     1      -0.957   3.391 -25.865  0.00  0.00    +0.045 C 
ATOM     13  N   UNL     1      -3.328   3.651 -26.735  0.00  0.00    +0.239 N 
ATOM     14  H   UNL     1      -3.628   3.775 -27.701  0.00  0.00    +0.204 HD
ATOM     15  C   UNL     1      -3.684   3.803 -27.926  0.00  0.00    +0.191 C 
ATOM     16  C   UNL     1      -1.968   3.518 -26.384  0.00  0.00    +0.133 C 
ATOM     17  C   UNL     1      -1.667   3.351 -25.015  0.00  0.00    +0.071 C 
ATOM     18  C   UNL     1      -3.674   3.304 -23.253  0.00  0.00    +0.016 A 
ATOM     19  C   UNL     1      -0.646   3.240 -24.651  0.00  0.00    +0.144 C 
ATOM     20  C   UNL     1      -2.770   3.333 -24.118  0.00  0.00    +0.080 C 
ENDROOT
BRANCH   4  21
ATOM     21  O   UNL     1      -3.988   2.974 -19.949  0.00  0.00    -0.491 OA
ATOM     22  C   UNL     1      -3.150   3.729 -19.409  0.00  0.00    +0.277 C 
ENDBRANCH   4  21
BRANCH  19  23
ATOM     23  O   UNL     1       0.696   3.130 -24.510  0.00  0.00    -0.495 OA
ATOM     24  C   UNL     1       1.444   3.001 -25.551  0.00  0.00    +0.276 C 
ENDBRANCH  19  23
BRANCH   1  25
ATOM     25  C   UNL     1      -0.398   3.054 -23.074  0.00  0.00    +0.167 C 
BRANCH  25  26
ATOM     26  O   UNL     1       0.265   4.058 -22.745  0.00  0.00    -0.387 OA
ATOM     27  H   UNL     1      -0.336   4.767 -22.469  0.00  0.00    +0.210 HD
ENDBRANCH  25  26
BRANCH  25  28
ATOM     28  C   UNL     1       0.023   1.913 -22.738  0.00  0.00    +0.036 C 
BRANCH  28  29
ATOM     29  C   UNL     1       0.735   1.728 -21.712  0.00  0.00    +0.002 C 
BRANCH  29  31
ATOM     30  C   UNL     1       2.940   1.840 -21.773  0.00  0.00    +0.004 C 
ATOM     31  C   UNL     1       1.879   1.173 -21.858  0.00  0.00    -0.003 C 
ENDBRANCH  29  31
ENDBRANCH  28  29
ENDBRANCH  25  28
ENDBRANCH   1  25
TORSDOF 7
ENDMDL
