MODEL 1
REMARK VINA RESULT:   -10.048      0.000      0.000
REMARK INTER + INTRA:          -9.048
REMARK INTER:                 -10.875
REMARK INTRA:                   1.828
REMARK UNBOUND:                 1.882
REMARK  Name = C[C@@H]1CC[C@H](O)[C@]2(CO)CC[C@@H]3[C@H]([C@H]12)C3(C)C             ZINC000225364289
REMARK  6 active torsions:
REMARK  status: ('A' for Active; 'I' for Inactive)
REMARK    1  A    between atoms: C_1  and  C_2
REMARK    2  A    between atoms: C_5  and  O_6
REMARK    3  A    between atoms: C_7  and  C_8
REMARK    4  A    between atoms: C_8  and  O_9
REMARK    5  A    between atoms: C_15  and  C_16
REMARK    6  A    between atoms: C_15  and  C_17
REMARK                            x       y       z     vdW  Elec       q    Type
REMARK                         _______ _______ _______ _____ _____    ______ ____
ROOT
ATOM      1  C   UNL     1      -3.707   2.501 -21.005  0.00  0.00    +0.008 C 
ATOM      2  C   UNL     1      -3.986   3.003 -22.172  0.00  0.00    -0.010 C 
ATOM      3  C   UNL     1      -5.201   3.375 -22.446  0.00  0.00    +0.006 C 
ATOM      4  C   UNL     1      -5.479   3.877 -23.613  0.00  0.00    +0.032 C 
ATOM      5  C   UNL     1      -4.542   4.007 -24.505  0.00  0.00    +0.123 C 
ATOM      6  C   UNL     1      -3.327   3.635 -24.231  0.00  0.00    +0.023 C 
ATOM      7  C   UNL     1      -2.390   3.766 -25.123  0.00  0.00    +0.012 C 
ATOM      8  C   UNL     1      -1.175   3.394 -24.848  0.00  0.00    +0.005 C 
ATOM      9  C   UNL     1      -0.897   2.892 -23.682  0.00  0.00    -0.001 C 
ATOM     10  C   UNL     1      -1.834   2.762 -22.790  0.00  0.00    +0.003 C 
ATOM     11  C   UNL     1      -0.619   2.390 -22.515  0.00  0.00    -0.028 C 
ATOM     12  C   UNL     1       0.654   2.166 -22.664  0.00  0.00    +0.011 C 
ATOM     13  C   UNL     1      -0.782   1.966 -21.297  0.00  0.00    +0.011 C 
ATOM     14  C   UNL     1      -3.049   3.133 -23.064  0.00  0.00    +0.007 C 
ENDROOT
BRANCH   5  15
ATOM     15  O   UNL     1      -4.821   4.509 -25.672  0.00  0.00    -0.391 OA
ATOM     16  H   UNL     1      -4.166   4.203 -26.318  0.00  0.00    +0.210 HD
ENDBRANCH   5  15
BRANCH   6  17
ATOM     17  C   UNL     1      -3.606   4.137 -25.397  0.00  0.00    +0.165 C 
BRANCH  17  18
ATOM     18  O   UNL     1      -4.077   5.345 -25.489  0.00  0.00    -0.394 OA
ATOM     19  H   UNL     1      -4.185   5.719 -24.600  0.00  0.00    +0.209 HD
ENDBRANCH  17  18
ENDBRANCH   6  17
TORSDOF 3
ENDMDL
