MODEL 1
REMARK VINA RESULT:    -9.498      0.000      0.000
REMARK INTER + INTRA:         -14.315
REMARK INTER:                 -13.634
REMARK INTRA:                  -0.680
REMARK UNBOUND:                -0.652
REMARK  Name = ZINC000002138728
REMARK  10 active torsions:
REMARK  status: ('A' for Active; 'I' for Inactive)
REMARK    1  A    between atoms: C_2  and  C_3
REMARK    2  A    between atoms: C_2  and  O_13
REMARK    3  A    between atoms: C_4  and  C_5
REMARK    4  A    between atoms: C_8  and  O_9
REMARK    5  A    between atoms: C_10  and  O_11
REMARK    6  A    between atoms: O_13  and  C_14
REMARK    7  A    between atoms: C_16  and  O_17
REMARK    8  A    between atoms: C_16  and  C_18
REMARK    9  A    between atoms: C_22  and  O_23
REMARK   10  A    between atoms: C_24  and  O_25
REMARK                            x       y       z     vdW  Elec       q    Type
REMARK                         _______ _______ _______ _____ _____    ______ ____
ROOT
ATOM      1  O   UNL     1       1.559   3.992 -25.078  0.00  0.00    -0.455 OA
ENDROOT
BRANCH   1   2
ATOM      2  C   UNL     1       2.233   2.954 -24.683  0.00  0.00    +0.211 C 
ATOM      3  C   UNL     1       2.854   2.979 -23.541  0.00  0.00    +0.088 C 
ATOM      4  C   UNL     1       3.529   1.940 -23.145  0.00  0.00    +0.111 C 
ATOM      5  C   UNL     1       3.582   0.877 -23.890  0.00  0.00    +0.075 C 
ATOM      6  C   UNL     1       2.961   0.851 -25.032  0.00  0.00    +0.150 C 
ATOM      7  C   UNL     1       2.287   1.891 -25.428  0.00  0.00    +0.184 C 
BRANCH   4   8
ATOM      8  C   UNL     1       3.735   2.739 -22.140  0.00  0.00    +0.073 C 
ATOM      9  O   UNL     1       3.526   2.324 -20.927  0.00  0.00    -0.547 OA
ATOM     10  O   UNL     1       4.149   3.953 -22.350  0.00  0.00    -0.547 OA
ENDBRANCH   4   8
BRANCH   6  11
ATOM     11  O   UNL     1       3.014  -0.212 -25.778  0.00  0.00    -0.389 OA
ATOM     12  H   UNL     1       3.809  -0.178 -26.334  0.00  0.00    +0.210 HD
ENDBRANCH   6  11
BRANCH   4  13
ATOM     13  O   UNL     1       4.274   1.180 -22.400  0.00  0.00    -0.383 OA
ATOM     14  H   UNL     1       4.828   0.616 -22.964  0.00  0.00    +0.211 HD
ENDBRANCH   4  13
BRANCH   7  15
ATOM     15  O   UNL     1       1.666   1.865 -26.570  0.00  0.00    -0.386 OA
ATOM     16  H   UNL     1       0.821   2.336 -26.490  0.00  0.00    +0.210 HD
ENDBRANCH   7  15
ENDBRANCH   1   2
BRANCH   1  18
ATOM     17  O   UNL     1       1.315   5.687 -23.617  0.00  0.00    -0.246 OA
ATOM     18  C   UNL     1       0.825   4.653 -24.232  0.00  0.00    +0.332 C 
BRANCH  18  19
ATOM     19  C   UNL     1      -0.398   4.278 -24.003  0.00  0.00    +0.092 C 
ATOM     20  C   UNL     1      -0.925   4.461 -22.828  0.00  0.00    +0.015 C 
BRANCH  20  21
ATOM     21  C   UNL     1      -2.148   4.086 -22.598  0.00  0.00    -0.021 A 
ATOM     22  C   UNL     1      -2.518   3.781 -21.389  0.00  0.00    +0.012 A 
ATOM     23  C   UNL     1      -3.741   3.407 -21.160  0.00  0.00    +0.050 A 
ATOM     24  C   UNL     1      -4.594   3.337 -22.139  0.00  0.00    +0.158 A 
ATOM     25  C   UNL     1      -4.224   3.643 -23.347  0.00  0.00    +0.159 A 
ATOM     26  C   UNL     1      -3.000   4.018 -23.577  0.00  0.00    +0.057 A 
BRANCH  24  27
ATOM     27  O   UNL     1      -5.818   2.963 -21.909  0.00  0.00    -0.503 OA
ATOM     28  H   UNL     1      -6.081   2.728 -21.041  0.00  0.00    +0.292 HD
ENDBRANCH  24  27
BRANCH  25  29
ATOM     29  O   UNL     1      -5.077   3.574 -24.325  0.00  0.00    -0.503 OA
ATOM     30  H   UNL     1      -5.102   2.814 -24.873  0.00  0.00    +0.292 HD
ENDBRANCH  25  29
ENDBRANCH  20  21
ENDBRANCH  18  19
ENDBRANCH   1  18
TORSDOF 10
ENDMDL
