MODEL 1
REMARK VINA RESULT:    -8.681      0.000      0.000
REMARK INTER + INTRA:         -13.960
REMARK INTER:                 -12.519
REMARK INTRA:                  -1.441
REMARK UNBOUND:                -0.711
REMARK  Name = ZINC000001575538
REMARK  9 active torsions:
REMARK  status: ('A' for Active; 'I' for Inactive)
REMARK    1  A    between atoms: C_2  and  C_3
REMARK    2  A    between atoms: C_3  and  N_4
REMARK    3  A    between atoms: C_5  and  O_7
REMARK    4  A    between atoms: O_7  and  C_8
REMARK    5  A    between atoms: C_8  and  C_9
REMARK    6  A    between atoms: N_15  and  CA_16
REMARK    7  A    between atoms: CA_16  and  CB_17
REMARK    8  A    between atoms: CA_16  and  C_24
REMARK    9  A    between atoms: CB_17  and  CG_18
REMARK                            x       y       z     vdW  Elec       q    Type
REMARK                         _______ _______ _______ _____ _____    ______ ____
ROOT
ATOM      1  O   UNK A   0       5.295   0.706 -22.279  0.00  0.00    -0.274 OA
ATOM      2  C   UNK A   0       4.516   1.305 -21.426  0.00  0.00    +0.231 C 
ATOM      3  N   PHE A   1       4.557   2.598 -21.306  0.00  0.00    -0.306 N 
ATOM      4  H   PHE A   1       3.967   3.052 -20.661  0.00  0.00    +0.149 HD
ENDROOT
BRANCH   3   5
ATOM      5  CA  PHE A   1       5.376   3.294 -22.038  0.00  0.00    +0.123 C 
BRANCH   5   6
ATOM      6  C   PHE A   1       6.538   3.636 -21.565  0.00  0.00    +0.062 C 
ATOM      7  OXT PHE A   1       7.552   3.771 -22.367  0.00  0.00    -0.548 OA
ATOM      8  O   PHE A   1       6.685   3.842 -20.290  0.00  0.00    -0.548 OA
ENDBRANCH   5   6
BRANCH   5   9
ATOM      9  CB  PHE A   1       5.034   3.648 -23.241  0.00  0.00    +0.063 C 
BRANCH   9  10
ATOM     10  CG  PHE A   1       3.810   4.007 -23.489  0.00  0.00    -0.045 A 
ATOM     11  CD2 PHE A   1       3.028   3.229 -24.174  0.00  0.00    +0.004 A 
ATOM     12  CE2 PHE A   1       1.804   3.586 -24.423  0.00  0.00    +0.000 A 
ATOM     13  CZ  PHE A   1       1.359   4.729 -23.984  0.00  0.00    +0.000 A 
ATOM     14  CE1 PHE A   1       2.141   5.507 -23.298  0.00  0.00    +0.000 A 
ATOM     15  CD1 PHE A   1       3.365   5.150 -23.049  0.00  0.00    +0.004 A 
ENDBRANCH   9  10
ENDBRANCH   5   9
ENDBRANCH   3   5
BRANCH   2  16
ATOM     16  C   UNK A   0       3.697   0.609 -20.695  0.00  0.00    +0.203 C 
BRANCH  16  17
ATOM     17  N   UNK A   0       2.526   1.086 -20.397  0.00  0.00    -0.273 N 
ATOM     18  H   UNK A   0       2.361   1.467 -19.504  0.00  0.00    +0.153 HD
ATOM     19  C   UNK A   0       1.571   1.061 -21.279  0.00  0.00    +0.401 C 
ATOM     20  O   UNK A   0       1.787   0.559 -22.458  0.00  0.00    -0.226 OA
BRANCH  19  21
ATOM     21  O   UNK A   0       0.399   1.538 -20.980  0.00  0.00    -0.446 OA
BRANCH  21  22
ATOM     22  C   UNK A   0      -0.615   1.305 -21.760  0.00  0.00    +0.269 C 
BRANCH  22  23
ATOM     23  C   UNK A   0      -1.173   2.282 -22.410  0.00  0.00    -0.010 A 
ATOM     24  C   UNK A   0      -1.414   3.411 -21.806  0.00  0.00    +0.007 A 
ATOM     25  C   UNK A   0      -1.972   4.387 -22.457  0.00  0.00    +0.000 A 
ATOM     26  C   UNK A   0      -2.290   4.241 -23.709  0.00  0.00    +0.000 A 
ATOM     27  C   UNK A   0      -2.048   3.112 -24.313  0.00  0.00    +0.000 A 
ATOM     28  C   UNK A   0      -1.490   2.136 -23.661  0.00  0.00    +0.007 A 
ENDBRANCH  22  23
ENDBRANCH  21  22
ENDBRANCH  19  21
ENDBRANCH  16  17
ENDBRANCH   2  16
TORSDOF 9
ENDMDL
