MODEL 1
REMARK VINA RESULT:    -9.749      0.000      0.000
REMARK INTER + INTRA:         -12.261
REMARK INTER:                 -11.438
REMARK INTRA:                  -0.823
REMARK UNBOUND:                -0.803
REMARK  Name = ZINC000003581770
REMARK  5 active torsions:
REMARK  status: ('A' for Active; 'I' for Inactive)
REMARK    1  A    between atoms: C_1  and  C_2
REMARK    2  A    between atoms: C_3  and  O_4
REMARK    3  A    between atoms: C_5  and  C_6
REMARK    4  A    between atoms: C_10  and  O_11
REMARK    5  A    between atoms: C_15  and  C_16
REMARK                            x       y       z     vdW  Elec       q    Type
REMARK                         _______ _______ _______ _____ _____    ______ ____
ROOT
ATOM      1  C   UNL     1       4.248   1.125 -22.832  0.00  0.00    +0.051 C 
ATOM      2  C   UNL     1       3.025   1.516 -23.038  0.00  0.00    +0.034 A 
ATOM      3  C   UNL     1       2.688   2.013 -24.191  0.00  0.00    +0.137 A 
ATOM      4  C   UNL     1       1.466   2.404 -24.398  0.00  0.00    +0.098 A 
ATOM      5  C   UNL     1       0.581   2.299 -23.453  0.00  0.00    +0.149 A 
ATOM      6  C   UNL     1       0.918   1.802 -22.299  0.00  0.00    +0.102 A 
ATOM      7  C   UNL     1       0.033   1.697 -21.353  0.00  0.00    +0.174 C 
ATOM      8  C   UNL     1      -1.190   2.088 -21.560  0.00  0.00    +0.129 C 
ATOM      9  C   UNL     1      -1.527   2.585 -22.713  0.00  0.00    +0.211 C 
ATOM     10  O   UNL     1       0.371   1.200 -20.200  0.00  0.00    -0.292 OA
ATOM     11  O   UNL     1      -0.642   2.691 -23.659  0.00  0.00    -0.482 OA
ATOM     12  C   UNL     1       2.140   1.411 -22.092  0.00  0.00    +0.137 A 
ENDROOT
BRANCH   9  13
ATOM     13  C   UNL     1      -2.749   2.977 -22.920  0.00  0.00    -0.007 A 
ATOM     14  C   UNL     1      -3.122   3.341 -24.110  0.00  0.00    +0.007 A 
ATOM     15  C   UNL     1      -4.344   3.732 -24.318  0.00  0.00    +0.000 A 
ATOM     16  C   UNL     1      -5.194   3.760 -23.334  0.00  0.00    +0.000 A 
ATOM     17  C   UNL     1      -4.821   3.396 -22.143  0.00  0.00    +0.000 A 
ATOM     18  C   UNL     1      -3.598   3.004 -21.936  0.00  0.00    +0.007 A 
ENDBRANCH   9  13
BRANCH   4  19
ATOM     19  C   UNL     1       1.129   2.901 -25.551  0.00  0.00    +0.266 C 
ATOM     20  O   UNL     1       1.480   4.113 -25.866  0.00  0.00    -0.295 OA
ENDBRANCH   4  19
BRANCH   3  21
ATOM     21  O   UNL     1       3.573   2.118 -25.138  0.00  0.00    -0.506 OA
ATOM     22  H   UNL     1       4.445   1.803 -25.001  0.00  0.00    +0.292 HD
ENDBRANCH   3  21
BRANCH  12  23
ATOM     23  O   UNL     1       2.477   0.914 -20.939  0.00  0.00    -0.506 OA
ATOM     24  H   UNL     1       3.305   0.486 -20.837  0.00  0.00    +0.292 HD
ENDBRANCH  12  23
TORSDOF 4
ENDMDL
