MODEL 1
REMARK VINA RESULT:   -11.303      0.000      0.000
REMARK INTER + INTRA:         -12.109
REMARK INTER:                 -11.957
REMARK INTRA:                  -0.152
REMARK UNBOUND:                -0.144
REMARK  Name = COc1ccc2c3c1O[C@]1(C)C(=O)C=C[C@@]4(Br)[C@@H](C2)N(C)CC[C@@]314      ZINC000100393728
REMARK  4 active torsions:
REMARK  status: ('A' for Active; 'I' for Inactive)
REMARK    1  A    between atoms: C_1  and  O_2
REMARK    2  A    between atoms: O_2  and  C_3
REMARK    3  A    between atoms: C_10  and  C_11
REMARK    4  A    between atoms: N_20  and  C_21
REMARK                            x       y       z     vdW  Elec       q    Type
REMARK                         _______ _______ _______ _____ _____    ______ ____
ROOT
ATOM      1  C   UNL     1       0.448   2.191 -23.236  0.00  0.00    +0.162 A 
ATOM      2  C   UNL     1       0.393   1.836 -22.022  0.00  0.00    +0.050 A 
ATOM      3  C   UNL     1      -0.687   1.896 -21.390  0.00  0.00    +0.008 A 
ATOM      4  C   UNL     1      -1.722   2.310 -21.962  0.00  0.00    -0.034 A 
ATOM      5  C   UNL     1      -1.691   2.669 -23.173  0.00  0.00    +0.014 A 
ATOM      6  C   UNL     1      -2.726   3.082 -23.741  0.00  0.00    +0.075 C 
ATOM      7  C   UNL     1      -3.840   3.568 -24.492  0.00  0.00    +0.069 C 
ATOM      8  C   UNL     1      -5.071   3.646 -23.804  0.00  0.00    +0.132 C 
ATOM      9  N   UNL     1      -5.094   3.243 -22.455  0.00  0.00    +0.237 N 
ATOM     10  H   UNL     1      -5.964   3.284 -21.924  0.00  0.00    +0.203 HD
ATOM     11  C   UNL     1      -6.146   3.282 -21.776  0.00  0.00    +0.191 C 
ATOM     12  C   UNL     1      -3.864   2.787 -21.895  0.00  0.00    +0.090 C 
ATOM     13  C   UNL     1      -3.803   3.141 -23.109  0.00  0.00    +0.101 C 
ATOM     14 BR   UNL     1      -2.770   2.726 -22.533  0.00  0.00    -0.073 Br
ATOM     15  C   UNL     1      -4.855   3.557 -23.677  0.00  0.00    +0.001 C 
ATOM     16  C   UNL     1      -4.815   3.912 -24.881  0.00  0.00    +0.048 C 
ATOM     17  C   UNL     1      -3.729   3.857 -25.534  0.00  0.00    +0.200 C 
ATOM     18  O   UNL     1      -3.693   4.212 -26.733  0.00  0.00    -0.288 OA
ATOM     19  C   UNL     1      -2.687   3.443 -24.964  0.00  0.00    +0.181 C 
ATOM     20  C   UNL     1      -2.361   3.724 -26.143  0.00  0.00    +0.065 C 
ATOM     21  O   UNL     1      -1.210   3.136 -25.084  0.00  0.00    -0.473 OA
ATOM     22  C   UNL     1      -2.828   2.374 -21.325  0.00  0.00    +0.091 C 
ATOM     23  C   UNL     1      -0.602   2.610 -23.813  0.00  0.00    +0.168 A 
ENDROOT
BRANCH   1  25
ATOM     24  C   UNL     1       2.210   3.166 -24.046  0.00  0.00    +0.277 C 
ATOM     25  O   UNL     1       1.529   2.130 -23.864  0.00  0.00    -0.491 OA
ENDBRANCH   1  25
TORSDOF 1
ENDMDL
