MODEL 1
REMARK VINA RESULT:   -10.535      0.000      0.000
REMARK INTER + INTRA:         -14.241
REMARK INTER:                 -13.288
REMARK INTRA:                  -0.954
REMARK UNBOUND:                -1.243
REMARK  Name = ZINC000013309769
REMARK  4 active torsions:
REMARK  status: ('A' for Active; 'I' for Inactive)
REMARK    1  A    between atoms: C_2  and  C_15
REMARK    2  A    between atoms: N_3  and  C_4
REMARK    3  A    between atoms: C_4  and  C_5
REMARK    4  A    between atoms: C_5  and  C_6
REMARK                            x       y       z     vdW  Elec       q    Type
REMARK                         _______ _______ _______ _____ _____    ______ ____
ROOT
ATOM      1  O   UNL     1       1.400   1.581 -23.365  0.00  0.00    -0.268 OA
ATOM      2  C   UNL     1       1.637   1.322 -22.113  0.00  0.00    +0.264 C 
ATOM      3  N   UNL     1       0.648   1.153 -21.287  0.00  0.00    -0.310 N 
ATOM      4  H   UNL     1       0.828   0.956 -20.339  0.00  0.00    +0.149 HD
ENDROOT
BRANCH   2   5
ATOM      5  C   UNL     1       2.861   1.233 -21.690  0.00  0.00    +0.149 A 
ATOM      6  N   UNL     1       3.249   0.184 -21.027  0.00  0.00    -0.248 NA
ATOM      7  C   UNL     1       4.474   0.093 -20.603  0.00  0.00    +0.112 A 
ATOM      8  C   UNL     1       5.314   1.058 -20.843  0.00  0.00    +0.030 A 
ATOM      9  C   UNL     1       4.929   2.106 -21.505  0.00  0.00    +0.011 A 
ATOM     10  C   UNL     1       5.560   3.186 -21.869  0.00  0.00    +0.008 A 
ATOM     11  C   UNL     1       6.787   3.576 -21.693  0.00  0.00    +0.010 A 
ATOM     12  C   UNL     1       7.176   4.723 -22.167  0.00  0.00    +0.001 A 
ATOM     13  C   UNL     1       6.340   5.478 -22.815  0.00  0.00    +0.002 A 
ATOM     14  C   UNL     1       5.113   5.085 -22.990  0.00  0.00    +0.026 A 
ATOM     15  C   UNL     1       4.721   3.939 -22.517  0.00  0.00    +0.048 A 
ATOM     16  N   UNL     1       3.575   3.330 -22.555  0.00  0.00    -0.352 N 
ATOM     17  H   UNL     1       2.754   3.665 -22.981  0.00  0.00    +0.166 HD
ATOM     18  C   UNL     1       3.705   2.196 -21.928  0.00  0.00    +0.078 A 
ENDBRANCH   2   5
BRANCH   3  19
ATOM     19  C   UNL     1      -0.577   1.242 -21.711  0.00  0.00    +0.109 C 
BRANCH  19  20
ATOM     20  C   UNL     1      -1.301   2.274 -21.395  0.00  0.00    +0.056 C 
BRANCH  20  21
ATOM     21  C   UNL     1      -2.094   2.807 -22.278  0.00  0.00    -0.021 A 
ATOM     22  C   UNL     1      -1.731   3.337 -23.408  0.00  0.00    +0.087 A 
ATOM     23  N   UNL     1      -2.801   3.760 -24.014  0.00  0.00    -0.360 N 
ATOM     24  H   UNL     1      -2.831   4.206 -24.890  0.00  0.00    +0.165 HD
ATOM     25  C   UNL     1      -3.823   3.491 -23.258  0.00  0.00    +0.047 A 
ATOM     26  C   UNL     1      -5.098   3.707 -23.408  0.00  0.00    +0.026 A 
ATOM     27  C   UNL     1      -5.932   3.333 -22.486  0.00  0.00    +0.002 A 
ATOM     28  C   UNL     1      -5.496   2.743 -21.413  0.00  0.00    +0.001 A 
ATOM     29  C   UNL     1      -4.222   2.528 -21.264  0.00  0.00    +0.010 A 
ATOM     30  C   UNL     1      -3.387   2.902 -22.185  0.00  0.00    +0.003 A 
ENDBRANCH  20  21
ENDBRANCH  19  20
ENDBRANCH   3  19
TORSDOF 4
ENDMDL
