MODEL 1
REMARK VINA RESULT:    -9.454      0.000      0.000
REMARK INTER + INTRA:         -13.379
REMARK INTER:                 -12.741
REMARK INTRA:                  -0.638
REMARK UNBOUND:                -0.608
REMARK  Name = C=C[C@@H]1CN2CC[C@H]1C[C@H]2[C@@H](OC(=O)c1ccccc1)c1ccnc2ccccc12     ZINC000252462932
REMARK  6 active torsions:
REMARK  status: ('A' for Active; 'I' for Inactive)
REMARK    1  A    between atoms: C_2  and  C_3
REMARK    2  A    between atoms: C_10  and  C_11
REMARK    3  A    between atoms: C_11  and  O_12
REMARK    4  A    between atoms: C_11  and  C_21
REMARK    5  A    between atoms: O_12  and  C_13
REMARK    6  A    between atoms: C_13  and  C_15
REMARK                            x       y       z     vdW  Elec       q    Type
REMARK                         _______ _______ _______ _____ _____    ______ ____
ROOT
ATOM      1  C   UNL     1      -1.053   2.672 -23.807  0.00  0.00    +0.255 C 
ENDROOT
BRANCH   1   2
ATOM      2  C   UNL     1      -2.156   3.069 -24.420  0.00  0.00    +0.009 A 
ATOM      3  C   UNL     1      -2.141   3.311 -25.716  0.00  0.00    +0.028 A 
ATOM      4  C   UNL     1      -3.241   3.707 -26.330  0.00  0.00    +0.112 A 
ATOM      5  N   UNL     1      -4.357   3.860 -25.640  0.00  0.00    -0.255 NA
ATOM      6  C   UNL     1      -4.374   3.618 -24.345  0.00  0.00    +0.071 A 
ATOM      7  C   UNL     1      -5.490   3.771 -23.655  0.00  0.00    +0.028 A 
ATOM      8  C   UNL     1      -5.505   3.529 -22.360  0.00  0.00    +0.002 A 
ATOM      9  C   UNL     1      -4.405   3.133 -21.747  0.00  0.00    +0.001 A 
ATOM     10  C   UNL     1      -3.288   2.980 -22.436  0.00  0.00    +0.010 A 
ATOM     11  C   UNL     1      -3.273   3.222 -23.732  0.00  0.00    +0.007 A 
ENDBRANCH   1   2
BRANCH   1  18
ATOM     12  C   UNL     1       1.983   5.210 -23.336  0.00  0.00    +0.060 C 
ATOM     13  C   UNL     1       0.844   5.391 -22.649  0.00  0.00    +0.139 C 
ATOM     14  N   UNL     1      -0.160   4.530 -22.821  0.00  0.00    +0.241 N 
ATOM     15  H   UNL     1      -1.094   4.472 -22.416  0.00  0.00    +0.204 HD
ATOM     16  C   UNL     1       0.847   4.786 -23.111  0.00  0.00    +0.132 C 
ATOM     17  C   UNL     1       1.156   3.996 -23.863  0.00  0.00    +0.055 C 
ATOM     18  C   UNL     1      -0.047   3.513 -23.651  0.00  0.00    +0.111 C 
ATOM     19  C   UNL     1       1.087   3.337 -24.332  0.00  0.00    +0.063 C 
ATOM     20  C   UNL     1       2.091   4.176 -24.175  0.00  0.00    +0.011 C 
BRANCH  12  22
ATOM     21  C   UNL     1       4.180   5.599 -22.823  0.00  0.00    +0.004 C 
ATOM     22  C   UNL     1       2.993   6.050 -23.182  0.00  0.00    -0.026 C 
ENDBRANCH  12  22
ENDBRANCH   1  18
BRANCH   1  23
ATOM     23  O   UNL     1      -0.958   1.438 -23.352  0.00  0.00    -0.447 OA
BRANCH  23  24
ATOM     24  C   UNL     1      -0.500   1.217 -22.135  0.00  0.00    +0.340 C 
ATOM     25  O   UNL     1      -1.341   1.076 -21.129  0.00  0.00    -0.245 OA
BRANCH  24  26
ATOM     26  C   UNL     1       0.799   1.137 -21.926  0.00  0.00    +0.059 A 
ATOM     27  C   UNL     1       1.338   1.744 -20.881  0.00  0.00    +0.015 A 
ATOM     28  C   UNL     1       2.638   1.664 -20.673  0.00  0.00    +0.001 A 
ATOM     29  C   UNL     1       3.403   0.980 -21.502  0.00  0.00    +0.000 A 
ATOM     30  C   UNL     1       2.864   0.374 -22.547  0.00  0.00    +0.001 A 
ATOM     31  C   UNL     1       1.564   0.454 -22.755  0.00  0.00    +0.015 A 
ENDBRANCH  24  26
ENDBRANCH  23  24
ENDBRANCH   1  23
TORSDOF 6
ENDMDL
