MODEL 1
REMARK VINA RESULT:    -8.491      0.000      0.000
REMARK INTER + INTRA:         -11.668
REMARK INTER:                 -11.279
REMARK INTRA:                  -0.390
REMARK UNBOUND:                -0.695
REMARK  Name = O=C1c2cc3c(cc2[C@@H]2C[C@@H](OCc4ccccc4)CC[C@H]2N1Cc1ccccc1)OCO3     ZINC000247798826
REMARK  5 active torsions:
REMARK  status: ('A' for Active; 'I' for Inactive)
REMARK    1  A    between atoms: C_11  and  O_12
REMARK    2  A    between atoms: O_12  and  C_13
REMARK    3  A    between atoms: C_13  and  C_14
REMARK    4  A    between atoms: N_23  and  C_24
REMARK    5  A    between atoms: C_24  and  C_25
REMARK                            x       y       z     vdW  Elec       q    Type
REMARK                         _______ _______ _______ _____ _____    ______ ____
ROOT
ATOM      1  O   UNL     1       7.982   6.093 -21.696  0.00  0.00    -0.270 OA
ATOM      2  C   UNL     1       6.717   6.088 -21.995  0.00  0.00    +0.248 C 
ATOM      3  C   UNL     1       5.995   7.149 -21.787  0.00  0.00    +0.044 A 
ATOM      4  C   UNL     1       6.539   8.215 -21.280  0.00  0.00    +0.063 A 
ATOM      5  C   UNL     1       5.817   9.276 -21.072  0.00  0.00    +0.167 A 
ATOM      6  C   UNL     1       4.551   9.270 -21.371  0.00  0.00    +0.167 A 
ATOM      7  O   UNL     1       4.063  10.437 -21.071  0.00  0.00    -0.453 OA
ATOM      8  C   UNL     1       5.026  11.164 -20.585  0.00  0.00    +0.466 C 
ATOM      9  C   UNL     1       4.009   8.204 -21.878  0.00  0.00    +0.054 A 
ATOM     10  O   UNL     1       6.110  10.446 -20.586  0.00  0.00    -0.453 OA
ATOM     11  C   UNL     1       4.730   7.143 -22.087  0.00  0.00    -0.027 A 
ATOM     12  C   UNL     1       4.187   6.076 -22.594  0.00  0.00    +0.043 C 
ATOM     13  C   UNL     1       2.922   6.072 -22.893  0.00  0.00    +0.041 C 
ATOM     14  C   UNL     1       2.379   5.005 -23.400  0.00  0.00    +0.119 C 
ATOM     15  C   UNL     1       3.100   3.944 -23.609  0.00  0.00    +0.033 C 
ATOM     16  C   UNL     1       4.366   3.949 -23.309  0.00  0.00    +0.025 C 
ATOM     17  C   UNL     1       4.909   5.016 -22.802  0.00  0.00    +0.084 C 
ATOM     18  N   UNL     1       6.174   5.021 -22.503  0.00  0.00    -0.290 N 
ENDROOT
BRANCH  14  19
ATOM     19  O   UNL     1       1.114   4.999 -23.700  0.00  0.00    -0.372 OA
BRANCH  19  20
ATOM     20  C   UNL     1       0.488   3.871 -23.855  0.00  0.00    +0.195 C 
BRANCH  20  21
ATOM     21  C   UNL     1      -0.390   3.488 -22.976  0.00  0.00    -0.022 A 
ATOM     22  C   UNL     1      -1.418   4.240 -22.714  0.00  0.00    +0.006 A 
ATOM     23  C   UNL     1      -2.296   3.857 -21.834  0.00  0.00    +0.000 A 
ATOM     24  C   UNL     1      -2.146   2.722 -21.218  0.00  0.00    +0.000 A 
ATOM     25  C   UNL     1      -1.118   1.970 -21.480  0.00  0.00    +0.000 A 
ATOM     26  C   UNL     1      -0.240   2.353 -22.360  0.00  0.00    +0.006 A 
ENDBRANCH  20  21
ENDBRANCH  19  20
ENDBRANCH  14  19
BRANCH  18  27
ATOM     27  C   UNL     1       6.896   3.960 -22.711  0.00  0.00    +0.143 C 
BRANCH  27  28
ATOM     28  C   UNL     1       7.618   3.866 -23.787  0.00  0.00    -0.030 A 
ATOM     29  C   UNL     1       7.648   4.849 -24.637  0.00  0.00    +0.005 A 
ATOM     30  C   UNL     1       8.371   4.754 -25.714  0.00  0.00    +0.000 A 
ATOM     31  C   UNL     1       9.062   3.678 -25.941  0.00  0.00    +0.000 A 
ATOM     32  C   UNL     1       9.032   2.694 -25.091  0.00  0.00    +0.000 A 
ATOM     33  C   UNL     1       8.309   2.789 -24.013  0.00  0.00    +0.005 A 
ENDBRANCH  27  28
ENDBRANCH  18  27
TORSDOF 5
ENDMDL
