MODEL 1
REMARK VINA RESULT:    -7.775      0.000      0.000
REMARK INTER + INTRA:         -17.358
REMARK INTER:                 -14.175
REMARK INTRA:                  -3.184
REMARK UNBOUND:                -2.538
REMARK  Name = ZINC000085340904
REMARK  17 active torsions:
REMARK  status: ('A' for Active; 'I' for Inactive)
REMARK    1  A    between atoms: C_1  and  C_2
REMARK    2  A    between atoms: C_2  and  C_3
REMARK    3  A    between atoms: C_3  and  C_4
REMARK    4  A    between atoms: C_4  and  C_5
REMARK    5  A    between atoms: C_5  and  C_6
REMARK    6  A    between atoms: C_6  and  C_7
REMARK    7  A    between atoms: C_7  and  C_8
REMARK    8  A    between atoms: C_8  and  C_9
REMARK    9  A    between atoms: C_9  and  C_10
REMARK   10  A    between atoms: C_10  and  C_11
REMARK   11  A    between atoms: C_11  and  C_12
REMARK   12  A    between atoms: C_12  and  C_13
REMARK   13  A    between atoms: C_13  and  C_14
REMARK   14  A    between atoms: C_14  and  C_15
REMARK   15  A    between atoms: C_15  and  C_16
REMARK   16  A    between atoms: C_19  and  O_20
REMARK   17  A    between atoms: C_22  and  C_23
REMARK                            x       y       z     vdW  Elec       q    Type
REMARK                         _______ _______ _______ _____ _____    ______ ____
ROOT
ATOM      1  C   UNL     1      -1.231   1.819 -21.624  0.00  0.00    +0.000 C 
ENDROOT
BRANCH   1   2
ATOM      2  C   UNL     1      -1.611   2.838 -20.913  0.00  0.00    +0.000 C 
BRANCH   2   3
ATOM      3  C   UNL     1      -2.848   3.235 -20.955  0.00  0.00    +0.000 C 
BRANCH   3   4
ATOM      4  C   UNL     1      -3.799   2.376 -21.179  0.00  0.00    +0.000 C 
BRANCH   4   5
ATOM      5  C   UNL     1      -4.908   2.764 -21.735  0.00  0.00    -0.000 C 
BRANCH   5   6
ATOM      6  C   UNL     1      -4.923   3.829 -22.480  0.00  0.00    -0.000 C 
BRANCH   6   7
ATOM      7  C   UNL     1      -5.477   3.792 -23.655  0.00  0.00    -0.000 C 
BRANCH   7   8
ATOM      8  C   UNL     1      -4.812   4.190 -24.700  0.00  0.00    -0.000 C 
BRANCH   8   9
ATOM      9  C   UNL     1      -4.282   3.317 -25.505  0.00  0.00    -0.000 C 
BRANCH   9  10
ATOM     10  C   UNL     1      -3.024   3.403 -25.818  0.00  0.00    -0.000 C 
BRANCH  10  11
ATOM     11  C   UNL     1      -2.112   3.160 -24.923  0.00  0.00    -0.000 C 
BRANCH  11  13
ATOM     12  C   UNL     1      -1.146   4.855 -23.800  0.00  0.00    +0.004 C 
ATOM     13  C   UNL     1      -1.120   3.985 -24.765  0.00  0.00    -0.003 C 
ENDBRANCH  11  13
ENDBRANCH  10  11
ENDBRANCH   9  10
ENDBRANCH   8   9
ENDBRANCH   7   8
ENDBRANCH   6   7
ENDBRANCH   5   6
ENDBRANCH   4   5
ENDBRANCH   3   4
ENDBRANCH   2   3
ENDBRANCH   1   2
BRANCH   1  14
ATOM     14  C   UNL     1       0.020   1.465 -21.637  0.00  0.00    +0.005 C 
BRANCH  14  15
ATOM     15  C   UNL     1       0.785   1.818 -22.627  0.00  0.00    +0.036 C 
BRANCH  15  16
ATOM     16  C   UNL     1       2.057   1.553 -22.592  0.00  0.00    -0.038 A 
ATOM     17  C   UNL     1       2.533   0.768 -21.670  0.00  0.00    +0.008 A 
ATOM     18  C   UNL     1       3.805   0.504 -21.636  0.00  0.00    +0.046 A 
ATOM     19  C   UNL     1       4.602   1.023 -22.521  0.00  0.00    +0.117 A 
ATOM     20  C   UNL     1       4.126   1.808 -23.443  0.00  0.00    +0.055 A 
ATOM     21  C   UNL     1       2.855   2.073 -23.479  0.00  0.00    +0.004 A 
BRANCH  21  22
ATOM     22  C   UNL     1       2.379   2.857 -24.400  0.00  0.00    +0.072 C 
ATOM     23  O   UNL     1       2.360   4.142 -24.212  0.00  0.00    -0.545 OA
ATOM     24  O   UNL     1       1.924   2.354 -25.510  0.00  0.00    -0.545 OA
ENDBRANCH  21  22
BRANCH  19  25
ATOM     25  O   UNL     1       5.874   0.758 -22.486  0.00  0.00    -0.507 OA
ATOM     26  H   UNL     1       6.388   1.023 -21.748  0.00  0.00    +0.292 HD
ENDBRANCH  19  25
ENDBRANCH  15  16
ENDBRANCH  14  15
ENDBRANCH   1  14
TORSDOF 16
ENDMDL
