MODEL 1
REMARK VINA RESULT:    -9.214      0.000      0.000
REMARK INTER + INTRA:         -11.025
REMARK INTER:                 -10.813
REMARK INTRA:                  -0.212
REMARK UNBOUND:                -0.195
REMARK  Name = ZINC000006484559
REMARK  5 active torsions:
REMARK  status: ('A' for Active; 'I' for Inactive)
REMARK    1  A    between atoms: C_1  and  O_2
REMARK    2  A    between atoms: O_2  and  C_3
REMARK    3  A    between atoms: C_6  and  C_7
REMARK    4  A    between atoms: C_12  and  O_13
REMARK    5  A    between atoms: C_14  and  O_15
REMARK                            x       y       z     vdW  Elec       q    Type
REMARK                         _______ _______ _______ _____ _____    ______ ____
ROOT
ATOM      1  C   UNL     1      -0.423   3.760 -23.111  0.00  0.00    +0.064 A 
ATOM      2  C   UNL     1       0.185   4.903 -23.226  0.00  0.00    +0.208 A 
ATOM      3  O   UNL     1       1.468   4.939 -23.433  0.00  0.00    -0.462 OA
ATOM      4  C   UNL     1       2.143   3.831 -23.526  0.00  0.00    +0.142 A 
ATOM      5  C   UNL     1       3.425   3.867 -23.733  0.00  0.00    +0.096 A 
ATOM      6  C   UNL     1       4.099   2.760 -23.826  0.00  0.00    +0.162 A 
ATOM      7  C   UNL     1       3.491   1.617 -23.712  0.00  0.00    +0.159 A 
ATOM      8  C   UNL     1       2.209   1.581 -23.504  0.00  0.00    +0.064 A 
ATOM      9  C   UNL     1       1.534   2.688 -23.412  0.00  0.00    +0.068 A 
ATOM     10  C   UNL     1       0.251   2.653 -23.204  0.00  0.00    +0.200 A 
ATOM     11  O   UNL     1      -0.357   1.510 -23.090  0.00  0.00    -0.286 OA
ENDROOT
BRANCH   1  15
ATOM     12  C   UNL     1      -4.272   3.650 -22.488  0.00  0.00    +0.120 A 
ATOM     13  C   UNL     1      -3.813   3.755 -23.699  0.00  0.00    +0.046 A 
ATOM     14  C   UNL     1      -2.530   3.792 -23.908  0.00  0.00    +0.012 A 
ATOM     15  C   UNL     1      -1.706   3.723 -22.904  0.00  0.00    -0.011 A 
ATOM     16  C   UNL     1      -2.166   3.617 -21.692  0.00  0.00    +0.012 A 
ATOM     17  C   UNL     1      -3.448   3.581 -21.484  0.00  0.00    +0.046 A 
BRANCH  12  19
ATOM     18  C   UNL     1      -6.075   2.634 -21.599  0.00  0.00    +0.277 C 
ATOM     19  O   UNL     1      -5.554   3.613 -22.280  0.00  0.00    -0.495 OA
ENDBRANCH  12  19
ENDBRANCH   1  15
BRANCH   7  20
ATOM     20  O   UNL     1       4.166   0.509 -23.805  0.00  0.00    -0.503 OA
ATOM     21  H   UNL     1       3.729  -0.314 -23.716  0.00  0.00    +0.292 HD
ENDBRANCH   7  20
BRANCH   6  22
ATOM     22  O   UNL     1       5.383   2.795 -24.033  0.00  0.00    -0.503 OA
ATOM     23  H   UNL     1       5.950   2.223 -23.554  0.00  0.00    +0.292 HD
ENDBRANCH   6  22
TORSDOF 4
ENDMDL
