MODEL 1
REMARK VINA RESULT:   -12.758      0.000      0.000
REMARK INTER + INTRA:         -13.131
REMARK INTER:                 -13.131
REMARK INTRA:                   0.000
REMARK UNBOUND:                 0.000
REMARK  Name = ZINC000004104652
REMARK  4 active torsions:
REMARK  status: ('A' for Active; 'I' for Inactive)
REMARK    1  A    between atoms: C_1  and  C_2
REMARK    2  A    between atoms: C_2  and  O_3
REMARK    3  A    between atoms: C_17  and  C_18
REMARK    4  A    between atoms: C_22  and  C_23
REMARK                            x       y       z     vdW  Elec       q    Type
REMARK                         _______ _______ _______ _____ _____    ______ ____
ROOT
ATOM      1  C   UNL     1      -5.185   4.029 -24.089  0.00  0.00    +0.042 C 
ATOM      2  C   UNL     1      -4.940   3.499 -22.931  0.00  0.00    +0.069 C 
ATOM      3  C   UNL     1      -5.019   3.019 -21.723  0.00  0.00    +0.035 C 
ATOM      4  C   UNL     1      -3.832   2.614 -21.370  0.00  0.00    +0.007 C 
ATOM      5  C   UNL     1      -3.018   2.844 -22.360  0.00  0.00    +0.002 C 
ATOM      6  C   UNL     1      -1.747   2.627 -22.509  0.00  0.00    +0.003 C 
ATOM      7  C   UNL     1      -1.061   2.080 -21.544  0.00  0.00    +0.078 C 
ATOM      8  C   UNL     1       0.212   1.865 -21.697  0.00  0.00    +0.138 C 
ATOM      9  C   UNL     1       0.803   2.193 -22.810  0.00  0.00    +0.068 C 
ATOM     10  C   UNL     1       2.076   1.977 -22.960  0.00  0.00    +0.086 C 
ATOM     11  C   UNL     1       2.668   2.306 -24.074  0.00  0.00    +0.134 C 
ATOM     12  C   UNL     1       1.979   2.852 -25.036  0.00  0.00    +0.075 C 
ATOM     13  C   UNL     1       0.706   3.068 -24.885  0.00  0.00    +0.015 C 
ATOM     14  O   UNL     1       3.941   2.090 -24.225  0.00  0.00    -0.297 OA
ATOM     15  C   UNL     1       0.116   2.739 -23.771  0.00  0.00    -0.019 C 
ATOM     16  C   UNL     1      -0.570   3.285 -24.733  0.00  0.00    +0.012 C 
ATOM     17  O   UNL     1       0.900   1.318 -20.735  0.00  0.00    -0.297 OA
ATOM     18  C   UNL     1      -1.159   2.956 -23.620  0.00  0.00    -0.001 C 
ATOM     19  C   UNL     1      -1.844   3.501 -24.582  0.00  0.00    +0.005 C 
ATOM     20  C   UNL     1      -3.113   3.719 -24.437  0.00  0.00    +0.010 C 
ATOM     21  C   UNL     1      -3.699   3.390 -23.327  0.00  0.00    -0.000 C 
ATOM     22  C   UNL     1      -4.425   3.919 -24.225  0.00  0.00    +0.014 C 
ENDROOT
BRANCH   2  23
ATOM     23  O   UNL     1      -6.212   3.704 -22.753  0.00  0.00    -0.388 OA
ATOM     24  H   UNL     1      -6.624   2.897 -22.405  0.00  0.00    +0.210 HD
ENDBRANCH   2  23
TORSDOF 1
ENDMDL
