MODEL 1
REMARK VINA RESULT:   -10.199      0.000      0.000
REMARK INTER + INTRA:         -10.927
REMARK INTER:                 -10.786
REMARK INTRA:                  -0.141
REMARK UNBOUND:                -0.132
REMARK  Name = ZINC000000338370
REMARK  2 active torsions:
REMARK  status: ('A' for Active; 'I' for Inactive)
REMARK    1  A    between atoms: C_1  and  C_2
REMARK    2  A    between atoms: C_2  and  C_3
REMARK                            x       y       z     vdW  Elec       q    Type
REMARK                         _______ _______ _______ _____ _____    ______ ____
ROOT
ATOM      1  C   UNL     1       2.163   2.366 -23.924  0.00  0.00    +0.017 A 
ATOM      2  C   UNL     1       1.800   1.924 -22.756  0.00  0.00    +0.011 A 
ATOM      3  C   UNL     1       0.557   2.017 -22.383  0.00  0.00    +0.028 A 
ATOM      4  C   UNL     1      -0.321   2.551 -23.179  0.00  0.00    +0.069 A 
ATOM      5  N   UNL     1       0.042   2.992 -24.347  0.00  0.00    -0.306 N 
ATOM      6  C   UNL     1      -0.837   3.526 -25.142  0.00  0.00    +0.130 C 
ATOM      7  C   UNL     1      -2.079   3.619 -24.771  0.00  0.00    +0.059 C 
ATOM      8  C   UNL     1      -2.443   3.178 -23.603  0.00  0.00    -0.011 A 
ATOM      9  C   UNL     1      -3.595   3.152 -23.003  0.00  0.00    +0.004 A 
ATOM     10  C   UNL     1      -4.775   3.558 -23.368  0.00  0.00    +0.010 A 
ATOM     11  C   UNL     1      -5.789   3.413 -22.567  0.00  0.00    +0.001 A 
ATOM     12  C   UNL     1      -5.622   2.863 -21.401  0.00  0.00    +0.002 A 
ATOM     13  C   UNL     1      -4.443   2.458 -21.036  0.00  0.00    +0.026 A 
ATOM     14  C   UNL     1      -3.429   2.602 -21.837  0.00  0.00    +0.047 A 
ATOM     15  N   UNL     1      -2.174   2.288 -21.716  0.00  0.00    -0.353 N 
ATOM     16  H   UNL     1      -1.757   1.856 -20.936  0.00  0.00    +0.166 HD
ATOM     17  C   UNL     1      -1.564   2.644 -22.807  0.00  0.00    +0.067 A 
ATOM     18  C   UNL     1       1.284   2.900 -24.720  0.00  0.00    +0.255 A 
ATOM     19  O   UNL     1       1.647   3.341 -25.886  0.00  0.00    -0.267 OA
ENDROOT
BRANCH   1  21
ATOM     20  C   UNL     1       4.356   2.606 -23.474  0.00  0.00    +0.009 C 
ATOM     21  C   UNL     1       3.405   2.273 -24.296  0.00  0.00    +0.037 C 
ENDBRANCH   1  21
TORSDOF 1
ENDMDL
