MODEL 1
REMARK VINA RESULT:    -9.436      0.000      0.000
REMARK INTER + INTRA:          -6.839
REMARK INTER:                 -11.626
REMARK INTRA:                   4.786
REMARK UNBOUND:                 5.355
REMARK  Name = ZINC000096316391
REMARK  9 active torsions:
REMARK  status: ('A' for Active; 'I' for Inactive)
REMARK    1  A    between atoms: C_1  and  C_2
REMARK    2  A    between atoms: C_2  and  C_3
REMARK    3  A    between atoms: C_3  and  C_4
REMARK    4  A    between atoms: C_4  and  C_5
REMARK    5  A    between atoms: C_8  and  O_9
REMARK    6  A    between atoms: O_9  and  C_10
REMARK    7  A    between atoms: N_18  and  C_19
REMARK    8  A    between atoms: C_25  and  O_26
REMARK    9  A    between atoms: O_26  and  C_27
REMARK                            x       y       z     vdW  Elec       q    Type
REMARK                         _______ _______ _______ _____ _____    ______ ____
ROOT
ATOM      1  C   UNL     1      -1.461   3.197 -23.796  0.00  0.00    +0.181 C 
ATOM      2  O   UNL     1      -1.803   3.063 -22.326  0.00  0.00    -0.473 OA
ATOM      3  C   UNL     1      -3.281   3.143 -22.042  0.00  0.00    +0.168 A 
ATOM      4  C   UNL     1      -4.195   3.115 -21.159  0.00  0.00    +0.162 A 
ATOM      5  C   UNL     1      -5.408   3.245 -21.509  0.00  0.00    +0.050 A 
ATOM      6  C   UNL     1      -5.709   3.399 -22.719  0.00  0.00    +0.008 A 
ATOM      7  C   UNL     1      -4.802   3.426 -23.592  0.00  0.00    -0.034 A 
ATOM      8  C   UNL     1      -5.105   3.582 -24.823  0.00  0.00    +0.094 C 
ATOM      9  C   UNL     1      -4.200   3.609 -25.693  0.00  0.00    +0.096 C 
ATOM     10  C   UNL     1      -2.985   3.480 -25.345  0.00  0.00    -0.007 C 
ATOM     11  C   UNL     1      -2.073   3.507 -26.226  0.00  0.00    +0.009 C 
ATOM     12  C   UNL     1      -0.869   3.381 -25.889  0.00  0.00    +0.045 C 
ATOM     13  N   UNL     1      -3.249   3.654 -26.761  0.00  0.00    +0.239 N 
ATOM     14  H   UNL     1      -3.525   3.781 -27.735  0.00  0.00    +0.204 HD
ATOM     15  C   UNL     1      -3.608   3.811 -27.953  0.00  0.00    +0.191 C 
ATOM     16  C   UNL     1      -1.886   3.513 -26.408  0.00  0.00    +0.133 C 
ATOM     17  C   UNL     1      -1.577   3.341 -25.037  0.00  0.00    +0.071 C 
ATOM     18  C   UNL     1      -3.588   3.299 -23.263  0.00  0.00    +0.016 A 
ATOM     19  C   UNL     1      -0.559   3.225 -24.669  0.00  0.00    +0.142 C 
ATOM     20  C   UNL     1      -2.687   3.326 -24.135  0.00  0.00    +0.077 C 
ENDROOT
BRANCH   4  21
ATOM     21  O   UNL     1      -3.898   2.962 -19.948  0.00  0.00    -0.491 OA
ATOM     22  C   UNL     1      -3.076   3.734 -19.399  0.00  0.00    +0.277 C 
ENDBRANCH   4  21
BRANCH  19  23
ATOM     23  O   UNL     1       0.645   3.098 -24.336  0.00  0.00    -0.495 OA
ATOM     24  C   UNL     1       1.521   2.896 -25.212  0.00  0.00    +0.276 C 
ENDBRANCH  19  23
BRANCH   1  25
ATOM     25  C   UNL     1      -0.340   3.047 -23.190  0.00  0.00    +0.057 C 
BRANCH  25  26
ATOM     26  C   UNL     1      -0.260   2.563 -22.013  0.00  0.00    +0.004 C 
BRANCH  26  28
ATOM     27  C   UNL     1       1.550   1.486 -21.447  0.00  0.00    +0.004 C 
ATOM     28  C   UNL     1       0.334   1.478 -21.790  0.00  0.00    -0.003 C 
ENDBRANCH  26  28
ENDBRANCH  25  26
ENDBRANCH   1  25
TORSDOF 5
ENDMDL
