MODEL 1
REMARK VINA RESULT:   -11.069      0.000      0.000
REMARK INTER + INTRA:         -12.638
REMARK INTER:                 -12.771
REMARK INTRA:                   0.133
REMARK UNBOUND:                 0.048
REMARK  Name = ZINC000036043325
REMARK  6 active torsions:
REMARK  status: ('A' for Active; 'I' for Inactive)
REMARK    1  A    between atoms: C_1  and  C_2
REMARK    2  A    between atoms: C_2  and  C_3
REMARK    3  A    between atoms: C_3  and  O_4
REMARK    4  A    between atoms: C_13  and  O_14
REMARK    5  A    between atoms: C_17  and  C_18
REMARK    6  A    between atoms: C_22  and  C_23
REMARK                            x       y       z     vdW  Elec       q    Type
REMARK                         _______ _______ _______ _____ _____    ______ ____
ROOT
ATOM      1  C   UNL     1      -4.374   3.280 -22.589  0.00  0.00    +0.071 C 
ATOM      2  C   UNL     1      -4.436   2.772 -21.382  0.00  0.00    +0.035 C 
ATOM      3  C   UNL     1      -3.238   2.341 -21.063  0.00  0.00    +0.007 C 
ATOM      4  C   UNL     1      -2.436   2.582 -22.072  0.00  0.00    +0.001 C 
ATOM      5  C   UNL     1      -1.161   2.348 -22.251  0.00  0.00    +0.000 C 
ATOM      6  C   UNL     1      -0.462   1.766 -21.302  0.00  0.00    +0.031 C 
ATOM      7  C   UNL     1       0.815   1.531 -21.480  0.00  0.00    -0.027 C 
ATOM      8  C   UNL     1       1.395   1.875 -22.603  0.00  0.00    -0.065 C 
ATOM      9  C   UNL     1       2.674   1.640 -22.782  0.00  0.00    +0.062 C 
ATOM     10  C   UNL     1       3.254   1.985 -23.905  0.00  0.00    +0.119 C 
ATOM     11  C   UNL     1       2.559   2.566 -24.856  0.00  0.00    +0.032 C 
ATOM     12  C   UNL     1       1.279   2.801 -24.675  0.00  0.00    +0.014 C 
ATOM     13  C   UNL     1       0.699   2.457 -23.552  0.00  0.00    -0.008 C 
ATOM     14  C   UNL     1       0.001   3.037 -24.499  0.00  0.00    +0.016 C 
ATOM     15  C   UNL     1      -0.580   2.692 -23.375  0.00  0.00    +0.003 C 
ATOM     16  C   UNL     1      -1.279   3.273 -24.323  0.00  0.00    +0.005 C 
ATOM     17  C   UNL     1      -2.556   3.508 -24.143  0.00  0.00    +0.010 C 
ATOM     18  C   UNL     1      -3.137   3.164 -23.020  0.00  0.00    -0.000 C 
ATOM     19  C   UNL     1      -3.860   3.733 -23.927  0.00  0.00    +0.014 C 
ENDROOT
BRANCH   1  21
ATOM     20  C   UNL     1      -6.383   2.629 -21.723  0.00  0.00    +0.007 C 
ATOM     21  C   UNL     1      -5.656   3.497 -22.367  0.00  0.00    +0.032 C 
ENDBRANCH   1  21
BRANCH  10  22
ATOM     22  O   UNL     1       4.534   1.749 -24.084  0.00  0.00    -0.391 OA
ATOM     23  H   UNL     1       4.925   1.437 -23.253  0.00  0.00    +0.210 HD
ENDBRANCH  10  22
BRANCH   1  24
ATOM     24  O   UNL     1      -4.653   3.727 -23.464  0.00  0.00    -0.388 OA
ATOM     25  H   UNL     1      -5.622   3.745 -23.523  0.00  0.00    +0.210 HD
ENDBRANCH   1  24
TORSDOF 3
ENDMDL
