MODEL 1
REMARK VINA RESULT:   -11.676      0.000      0.000
REMARK INTER + INTRA:         -12.644
REMARK INTER:                 -12.398
REMARK INTRA:                  -0.245
REMARK UNBOUND:                -0.285
REMARK  Name = ZINC000000338360
REMARK  3 active torsions:
REMARK  status: ('A' for Active; 'I' for Inactive)
REMARK    1  A    between atoms: C_1  and  O_2
REMARK    2  A    between atoms: O_2  and  C_3
REMARK    3  A    between atoms: C_3  and  C_5
REMARK                            x       y       z     vdW  Elec       q    Type
REMARK                         _______ _______ _______ _____ _____    ______ ____
ROOT
ATOM      1  C   UNL     1      -0.351   3.483 -24.453  0.00  0.00    +0.123 C 
ATOM      2  C   UNL     1      -0.697   3.496 -25.423  0.00  0.00    +0.033 C 
ATOM      3  C   UNL     1      -2.151   3.501 -25.664  0.00  0.00    +0.034 C 
ATOM      4  C   UNL     1      -2.575   3.516 -26.817  0.00  0.00    -0.014 C 
ATOM      5  C   UNL     1      -3.813   3.520 -27.010  0.00  0.00    +0.020 C 
ATOM      6  C   UNL     1      -4.596   3.509 -26.030  0.00  0.00    +0.160 C 
ATOM      7  N   UNL     1      -4.127   3.494 -24.882  0.00  0.00    +0.242 N 
ATOM      8  H   UNL     1      -5.045   3.501 -25.326  0.00  0.00    +0.204 HD
ATOM      9  C   UNL     1      -4.614   3.480 -23.738  0.00  0.00    +0.133 C 
ATOM     10  C   UNL     1      -3.659   3.468 -22.898  0.00  0.00    +0.070 C 
ATOM     11  C   UNL     1      -2.599   3.474 -23.512  0.00  0.00    +0.068 C 
ATOM     12  C   UNL     1      -3.110   3.460 -22.362  0.00  0.00    -0.013 A 
ATOM     13  C   UNL     1      -4.262   3.457 -21.956  0.00  0.00    +0.006 A 
ATOM     14  C   UNL     1      -4.486   3.442 -20.751  0.00  0.00    +0.000 A 
ATOM     15  C   UNL     1      -3.565   3.431 -19.946  0.00  0.00    +0.002 A 
ATOM     16  C   UNL     1      -2.411   3.434 -20.339  0.00  0.00    +0.023 A 
ATOM     17  C   UNL     1      -2.173   3.449 -21.535  0.00  0.00    +0.032 A 
ATOM     18  N   UNL     1      -1.114   3.454 -22.128  0.00  0.00    -0.336 N 
ATOM     19  H   UNL     1      -0.223   3.448 -21.711  0.00  0.00    +0.147 HD
ATOM     20  C   UNL     1      -2.959   3.491 -24.749  0.00  0.00    +0.088 C 
ATOM     21  C   UNL     1      -1.228   3.495 -25.345  0.00  0.00    +0.019 C 
ATOM     22  C   UNL     1      -0.817   3.478 -24.057  0.00  0.00    +0.028 C 
ATOM     23  C   UNL     1      -1.334   3.470 -23.313  0.00  0.00    +0.060 C 
ENDROOT
BRANCH   1  24
ATOM     24  C   UNL     1       2.671   3.465 -23.412  0.00  0.00    +0.312 C 
ATOM     25  O   UNL     1       3.263   4.020 -22.567  0.00  0.00    -0.250 OA
BRANCH  24  27
ATOM     26  C   UNL     1       3.059   1.387 -24.518  0.00  0.00    +0.280 C 
ATOM     27  O   UNL     1       3.409   2.567 -24.183  0.00  0.00    -0.468 OA
ENDBRANCH  24  27
ENDBRANCH   1  24
TORSDOF 2
ENDMDL
