MODEL 1
REMARK VINA RESULT:    -8.661      0.000      0.000
REMARK INTER + INTRA:          -3.591
REMARK INTER:                  -8.947
REMARK INTRA:                   5.356
REMARK UNBOUND:                 5.323
REMARK  Name = ZINC000033786361
REMARK  5 active torsions:
REMARK  status: ('A' for Active; 'I' for Inactive)
REMARK    1  A    between atoms: C_1  and  C_2
REMARK    2  A    between atoms: C_2  and  C_3
REMARK    3  A    between atoms: C_6  and  C_7
REMARK    4  A    between atoms: C_6  and  O_8
REMARK    5  A    between atoms: C_9  and  N_10
REMARK                            x       y       z     vdW  Elec       q    Type
REMARK                         _______ _______ _______ _____ _____    ______ ____
ROOT
ATOM      1  C   UNL     1      -4.180   3.610 -21.375  0.00  0.00    +0.011 C 
ATOM      2  C   UNL     1      -3.822   3.543 -22.622  0.00  0.00    -0.028 C 
ATOM      3  C   UNL     1      -3.059   3.516 -23.674  0.00  0.00    +0.002 C 
ATOM      4  C   UNL     1      -2.296   3.490 -24.726  0.00  0.00    +0.044 C 
ATOM      5  C   UNL     1      -1.006   3.584 -24.597  0.00  0.00    +0.106 C 
ATOM      6  C   UNL     1      -0.479   3.705 -23.415  0.00  0.00    +0.097 C 
ATOM      7  C   UNL     1      -1.242   3.732 -22.362  0.00  0.00    +0.061 C 
ATOM      8  C   UNL     1       0.253   3.644 -24.915  0.00  0.00    +0.047 C 
ATOM      9  C   UNL     1      -4.988   3.424 -23.186  0.00  0.00    +0.011 C 
ATOM     10  C   UNL     1      -2.532   3.637 -22.492  0.00  0.00    +0.004 C 
ENDROOT
BRANCH   6  11
ATOM     11  N   UNL     1       0.811   3.800 -23.285  0.00  0.00    +0.243 N 
ATOM     12  H   UNL     1      -0.038   3.233 -23.302  0.00  0.00    +0.204 HD
ATOM     13  C   UNL     1       1.521   2.734 -23.063  0.00  0.00    +0.160 C 
ATOM     14  C   UNL     1       2.812   2.829 -22.932  0.00  0.00    +0.210 C 
ATOM     15  O   UNL     1       3.391   3.989 -23.024  0.00  0.00    -0.369 OA
ATOM     16  C   UNL     1       2.680   5.055 -23.246  0.00  0.00    +0.210 C 
ATOM     17  C   UNL     1       1.390   4.960 -23.377  0.00  0.00    +0.160 C 
ENDBRANCH   6  11
BRANCH   5  18
ATOM     18  O   UNL     1      -1.096   3.484 -25.890  0.00  0.00    -0.383 OA
ATOM     19  H   UNL     1      -2.031   3.449 -26.147  0.00  0.00    +0.210 HD
ENDBRANCH   5  18
TORSDOF 2
ENDMDL
