MODEL 1
REMARK VINA RESULT:   -10.276      0.000      0.000
REMARK INTER + INTRA:         -11.465
REMARK INTER:                 -11.769
REMARK INTRA:                   0.304
REMARK UNBOUND:                 0.313
REMARK  Name = ZINC000013382850
REMARK  5 active torsions:
REMARK  status: ('A' for Active; 'I' for Inactive)
REMARK    1  A    between atoms: C_1  and  C_2
REMARK    2  A    between atoms: C_2  and  C_3
REMARK    3  A    between atoms: C_3  and  O_4
REMARK    4  A    between atoms: C_20  and  O_21
REMARK    5  A    between atoms: O_21  and  C_22
REMARK                            x       y       z     vdW  Elec       q    Type
REMARK                         _______ _______ _______ _____ _____    ______ ____
ROOT
ATOM      1  C   UNL     1      -3.863   3.650 -24.731  0.00  0.00    +0.188 C 
ATOM      2  C   UNL     1      -5.122   3.906 -24.539  0.00  0.00    +0.344 C 
ATOM      3  O   UNL     1      -5.653   3.717 -23.367  0.00  0.00    -0.457 OA
ATOM      4  C   UNL     1      -4.924   3.272 -22.388  0.00  0.00    +0.273 C 
ATOM      5  C   UNL     1      -3.664   3.015 -22.579  0.00  0.00    +0.061 A 
ATOM      6  C   UNL     1      -2.935   2.570 -21.599  0.00  0.00    +0.259 A 
ATOM      7  O   UNL     1      -3.466   2.381 -20.428  0.00  0.00    -0.267 OA
ATOM      8  N   UNL     1      -1.674   2.313 -21.791  0.00  0.00    -0.302 N 
ATOM      9  C   UNL     1      -0.747   1.870 -20.996  0.00  0.00    +0.162 C 
ATOM     10  C   UNL     1       0.357   1.784 -21.677  0.00  0.00    +0.000 A 
ATOM     11  C   UNL     1       1.555   1.401 -21.347  0.00  0.00    +0.021 A 
ATOM     12  C   UNL     1       2.507   1.409 -22.232  0.00  0.00    +0.042 A 
ATOM     13  C   UNL     1       3.705   1.025 -21.903  0.00  0.00    +0.129 A 
ATOM     14  C   UNL     1       4.657   1.033 -22.788  0.00  0.00    +0.046 A 
ATOM     15  C   UNL     1       4.411   1.424 -24.003  0.00  0.00    +0.006 A 
ATOM     16  C   UNL     1       3.214   1.807 -24.333  0.00  0.00    +0.028 A 
ATOM     17  C   UNL     1       2.262   1.800 -23.448  0.00  0.00    +0.075 A 
ATOM     18  N   UNL     1       1.064   2.183 -23.778  0.00  0.00    -0.245 NA
ATOM     19  C   UNL     1       0.112   2.175 -22.892  0.00  0.00    +0.093 A 
ATOM     20  C   UNL     1      -1.144   2.502 -22.963  0.00  0.00    +0.071 A 
ATOM     21  C   UNL     1      -1.873   2.948 -23.943  0.00  0.00    +0.035 A 
ATOM     22  O   UNL     1      -5.852   4.352 -25.519  0.00  0.00    -0.247 OA
ATOM     23  C   UNL     1      -3.133   3.204 -23.751  0.00  0.00    +0.008 A 
ENDROOT
BRANCH   1  25
ATOM     24  C   UNL     1      -3.529   3.639 -26.957  0.00  0.00    +0.007 C 
ATOM     25  C   UNL     1      -4.194   4.055 -25.921  0.00  0.00    +0.048 C 
ENDBRANCH   1  25
BRANCH  13  26
ATOM     26  O   UNL     1       3.950   0.634 -20.687  0.00  0.00    -0.494 OA
ATOM     27  C   UNL     1       5.058   0.009 -20.417  0.00  0.00    +0.277 C 
ENDBRANCH  13  26
BRANCH   1  28
ATOM     28  O   UNL     1      -2.718   3.534 -25.336  0.00  0.00    -0.373 OA
ATOM     29  H   UNL     1      -2.367   2.641 -25.195  0.00  0.00    +0.211 HD
ENDBRANCH   1  28
TORSDOF 3
ENDMDL
