MODEL 1
REMARK VINA RESULT:    -9.964      0.000      0.000
REMARK INTER + INTRA:         -11.079
REMARK INTER:                 -10.553
REMARK INTRA:                  -0.526
REMARK UNBOUND:                -0.532
REMARK  Name = ZINC000000038933
REMARK  1 active torsions:
REMARK  status: ('A' for Active; 'I' for Inactive)
REMARK    1  A    between atoms: C_4  and  C_5
REMARK                            x       y       z     vdW  Elec       q    Type
REMARK                         _______ _______ _______ _____ _____    ______ ____
ROOT
ATOM      1  O   UNL     1      -0.438   3.920 -26.189  0.00  0.00    -0.287 OA
ATOM      2  C   UNL     1      -0.552   3.506 -24.961  0.00  0.00    +0.193 A 
ATOM      3  C   UNL     1       0.504   3.138 -24.299  0.00  0.00    +0.098 A 
ATOM      4  C   UNL     1       0.389   2.724 -23.071  0.00  0.00    +0.139 A 
ATOM      5  O   UNL     1      -0.782   2.678 -22.508  0.00  0.00    -0.454 OA
ATOM      6  C   UNL     1      -1.837   3.047 -23.171  0.00  0.00    +0.147 A 
ATOM      7  C   UNL     1      -3.008   3.001 -22.607  0.00  0.00    +0.025 A 
ATOM      8  C   UNL     1      -3.122   2.587 -21.380  0.00  0.00    +0.012 A 
ATOM      9  C   UNL     1      -4.293   2.542 -20.816  0.00  0.00    +0.001 A 
ATOM     10  C   UNL     1      -5.349   2.910 -21.479  0.00  0.00    +0.001 A 
ATOM     11  C   UNL     1      -5.234   3.324 -22.706  0.00  0.00    +0.008 A 
ATOM     12  C   UNL     1      -4.064   3.370 -23.270  0.00  0.00    -0.014 A 
ATOM     13  C   UNL     1      -3.949   3.784 -24.497  0.00  0.00    +0.009 A 
ATOM     14  C   UNL     1      -2.779   3.829 -25.060  0.00  0.00    +0.016 A 
ATOM     15  C   UNL     1      -1.723   3.461 -24.398  0.00  0.00    +0.065 A 
ENDROOT
BRANCH   4  16
ATOM     16  C   UNL     1       1.445   2.355 -22.409  0.00  0.00    +0.017 A 
ATOM     17  C   UNL     1       2.611   2.831 -22.728  0.00  0.00    +0.011 A 
ATOM     18  C   UNL     1       3.667   2.464 -22.066  0.00  0.00    +0.001 A 
ATOM     19  C   UNL     1       3.557   1.619 -21.084  0.00  0.00    +0.000 A 
ATOM     20  C   UNL     1       2.391   1.143 -20.764  0.00  0.00    +0.001 A 
ATOM     21  C   UNL     1       1.335   1.511 -21.426  0.00  0.00    +0.011 A 
ENDBRANCH   4  16
TORSDOF 1
ENDMDL
