MODEL 1
REMARK VINA RESULT:   -10.086      0.000      0.000
REMARK INTER + INTRA:         -10.086
REMARK INTER:                 -10.086
REMARK INTRA:                   0.000
REMARK UNBOUND:                 0.000
REMARK  Name = ZINC000003897050
REMARK  1 active torsions:
REMARK  status: ('A' for Active; 'I' for Inactive)
REMARK    1  A    between atoms: C_8  and  C_9
REMARK                            x       y       z     vdW  Elec       q    Type
REMARK                         _______ _______ _______ _____ _____    ______ ____
ROOT
ATOM      1  C   UNL     1       0.480   1.501 -21.104  0.00  0.00    +0.020 C 
ATOM      2  C   UNL     1       0.115   2.033 -22.233  0.00  0.00    +0.036 C 
ATOM      3  C   UNL     1       0.885   2.257 -23.255  0.00  0.00    +0.335 C 
ATOM      4  O   UNL     1       0.162   2.796 -24.191  0.00  0.00    -0.457 OA
ATOM      5  C   UNL     1      -1.055   2.905 -23.747  0.00  0.00    +0.185 C 
ATOM      6  C   UNL     1      -2.140   3.373 -24.288  0.00  0.00    +0.052 C 
ATOM      7  C   UNL     1      -3.255   3.369 -23.620  0.00  0.00    -0.022 C 
ATOM      8  C   UNL     1      -4.340   3.836 -24.161  0.00  0.00    +0.007 C 
ATOM      9  C   UNL     1      -5.454   3.832 -23.492  0.00  0.00    +0.005 C 
ATOM     10  C   UNL     1      -5.483   3.360 -22.281  0.00  0.00    +0.030 C 
ATOM     11  C   UNL     1      -4.398   2.892 -21.738  0.00  0.00    -0.073 C 
ATOM     12  C   UNL     1      -4.427   2.420 -20.527  0.00  0.00    +0.008 C 
ATOM     13  C   UNL     1      -3.226   3.841 -24.830  0.00  0.00    +0.012 C 
ATOM     14  C   UNL     1      -3.283   2.896 -22.408  0.00  0.00    +0.021 C 
ATOM     15  C   UNL     1      -2.198   2.428 -21.866  0.00  0.00    +0.020 C 
ATOM     16  O   UNL     1       2.155   1.990 -23.329  0.00  0.00    -0.245 OA
ATOM     17  C   UNL     1      -1.084   2.433 -22.536  0.00  0.00    +0.067 C 
ENDROOT
TORSDOF 0
ENDMDL
