MODEL 1
REMARK VINA RESULT:    -8.564      0.000      0.000
REMARK INTER + INTRA:         -12.086
REMARK INTER:                 -12.277
REMARK INTRA:                   0.191
REMARK UNBOUND:                 0.234
REMARK  Name = ZINC000001615112
REMARK  14 active torsions:
REMARK  status: ('A' for Active; 'I' for Inactive)
REMARK    1  A    between atoms: C_1  and  O_2
REMARK    2  A    between atoms: O_2  and  C_3
REMARK    3  A    between atoms: C_5  and  C_6
REMARK    4  A    between atoms: C_11  and  O_12
REMARK    5  A    between atoms: C_13  and  O_14
REMARK    6  A    between atoms: O_14  and  C_15
REMARK    7  A    between atoms: C_16  and  O_17
REMARK    8  A    between atoms: O_17  and  C_18
REMARK    9  A    between atoms: C_19  and  O_20
REMARK   10  A    between atoms: O_20  and  C_21
REMARK   11  A    between atoms: C_25  and  O_26
REMARK   12  A    between atoms: O_26  and  C_27
REMARK   13  A    between atoms: C_28  and  O_29
REMARK   14  A    between atoms: O_29  and  C_30
REMARK                            x       y       z     vdW  Elec       q    Type
REMARK                         _______ _______ _______ _____ _____    ______ ____
ROOT
ATOM      1  C   UNL     1       0.865   2.299 -22.463  0.00  0.00    +0.140 A 
ATOM      2  C   UNL     1       1.365   1.211 -21.955  0.00  0.00    +0.098 A 
ATOM      3  C   UNL     1       2.652   1.086 -21.824  0.00  0.00    +0.197 A 
ATOM      4  C   UNL     1       3.440   2.049 -22.200  0.00  0.00    +0.113 A 
ATOM      5  C   UNL     1       4.728   1.924 -22.068  0.00  0.00    +0.177 A 
ATOM      6  C   UNL     1       5.515   2.887 -22.444  0.00  0.00    +0.208 A 
ATOM      7  C   UNL     1       5.016   3.975 -22.951  0.00  0.00    +0.211 A 
ATOM      8  C   UNL     1       3.729   4.100 -23.083  0.00  0.00    +0.209 A 
ATOM      9  C   UNL     1       2.940   3.137 -22.707  0.00  0.00    +0.188 A 
ATOM     10  O   UNL     1       3.151  -0.002 -21.316  0.00  0.00    -0.287 OA
ATOM     11  O   UNL     1       1.653   3.262 -22.838  0.00  0.00    -0.451 OA
ENDROOT
BRANCH   1  14
ATOM     12  C   UNL     1      -2.465   2.632 -21.671  0.00  0.00    +0.166 A 
ATOM     13  C   UNL     1      -1.178   2.507 -21.540  0.00  0.00    +0.061 A 
ATOM     14  C   UNL     1      -0.422   2.424 -22.594  0.00  0.00    +0.025 A 
ATOM     15  C   UNL     1      -0.953   2.467 -23.780  0.00  0.00    +0.061 A 
ATOM     16  C   UNL     1      -2.241   2.592 -23.911  0.00  0.00    +0.166 A 
ATOM     17  C   UNL     1      -2.997   2.675 -22.857  0.00  0.00    +0.204 A 
BRANCH  16  18
ATOM     18  O   UNL     1      -2.772   2.634 -25.097  0.00  0.00    -0.491 OA
ATOM     19  C   UNL     1      -2.268   3.412 -26.008  0.00  0.00    +0.277 C 
ENDBRANCH  16  18
BRANCH  12  21
ATOM     20  C   UNL     1      -3.148   3.760 -19.846  0.00  0.00    +0.277 C 
ATOM     21  O   UNL     1      -3.220   2.715 -20.616  0.00  0.00    -0.491 OA
ENDBRANCH  12  21
BRANCH  17  22
ATOM     22  O   UNL     1      -4.283   2.800 -22.987  0.00  0.00    -0.488 OA
ATOM     23  C   UNL     1      -4.799   3.956 -23.281  0.00  0.00    +0.277 C 
ENDBRANCH  17  22
ENDBRANCH   1  14
BRANCH   8  24
ATOM     24  O   UNL     1       3.230   5.188 -23.590  0.00  0.00    -0.488 OA
ATOM     25  C   UNL     1       2.687   6.078 -22.813  0.00  0.00    +0.277 C 
ENDBRANCH   8  24
BRANCH   7  26
ATOM     26  O   UNL     1       5.804   4.937 -23.327  0.00  0.00    -0.488 OA
ATOM     27  C   UNL     1       6.233   5.804 -22.459  0.00  0.00    +0.277 C 
ENDBRANCH   7  26
BRANCH   6  28
ATOM     28  O   UNL     1       6.803   2.761 -22.313  0.00  0.00    -0.488 OA
ATOM     29  C   UNL     1       7.554   2.617 -23.364  0.00  0.00    +0.277 C 
ENDBRANCH   6  28
BRANCH   5  30
ATOM     30  O   UNL     1       5.227   0.836 -21.561  0.00  0.00    -0.503 OA
ATOM     31  H   UNL     1       4.772   0.387 -20.875  0.00  0.00    +0.292 HD
ENDBRANCH   5  30
TORSDOF 8
ENDMDL
