MODEL 1
REMARK VINA RESULT:   -10.019      0.000      0.000
REMARK INTER + INTRA:         -10.019
REMARK INTER:                 -10.019
REMARK INTRA:                   0.000
REMARK UNBOUND:                 0.000
REMARK  Name = ZINC000004104819
REMARK  3 active torsions:
REMARK  status: ('A' for Active; 'I' for Inactive)
REMARK    1  A    between atoms: C_1  and  C_2
REMARK    2  A    between atoms: C_10  and  C_11
REMARK    3  A    between atoms: C_16  and  C_17
REMARK                            x       y       z     vdW  Elec       q    Type
REMARK                         _______ _______ _______ _____ _____    ______ ____
ROOT
ATOM      1  C   UNL     1      -0.702   2.018 -21.270  0.00  0.00    +0.019 C 
ATOM      2  C   UNL     1      -0.515   2.326 -22.519  0.00  0.00    +0.101 C 
ATOM      3  C   UNL     1       0.609   2.244 -23.166  0.00  0.00    +0.311 C 
ATOM      4  O   UNL     1       0.400   2.637 -24.387  0.00  0.00    -0.458 OA
ATOM      5  C   UNL     1      -0.854   2.963 -24.494  0.00  0.00    +0.212 C 
ATOM      6  C   UNL     1      -1.554   3.410 -25.495  0.00  0.00    +0.191 C 
ATOM      7  O   UNL     1      -2.255   3.857 -26.495  0.00  0.00    -0.361 OA
ATOM      8  C   UNL     1      -2.820   3.664 -25.340  0.00  0.00    +0.097 C 
ATOM      9  C   UNL     1      -3.955   4.069 -25.828  0.00  0.00    +0.044 C 
ATOM     10  C   UNL     1      -3.385   3.472 -24.186  0.00  0.00    +0.040 C 
ATOM     11  C   UNL     1      -4.651   3.726 -24.032  0.00  0.00    +0.037 C 
ATOM     12  C   UNL     1      -5.216   3.534 -22.877  0.00  0.00    +0.151 C 
ATOM     13  O   UNL     1      -5.782   3.341 -21.722  0.00  0.00    -0.365 OA
ATOM     14  C   UNL     1      -4.516   3.087 -21.876  0.00  0.00    +0.093 C 
ATOM     15  C   UNL     1      -4.439   2.718 -20.632  0.00  0.00    +0.044 C 
ATOM     16  C   UNL     1      -3.251   2.832 -22.031  0.00  0.00    +0.038 C 
ATOM     17  C   UNL     1      -2.686   3.025 -23.185  0.00  0.00    +0.011 C 
ATOM     18  O   UNL     1       1.744   1.839 -22.678  0.00  0.00    -0.251 OA
ATOM     19  C   UNL     1      -1.420   2.770 -23.340  0.00  0.00    +0.046 C 
ENDROOT
TORSDOF 0
ENDMDL
