MODEL 1
REMARK VINA RESULT:   -10.678      0.000      0.000
REMARK INTER + INTRA:         -10.990
REMARK INTER:                 -10.990
REMARK INTRA:                   0.000
REMARK UNBOUND:                 0.000
REMARK  Name = O=CN1CC[C@@]23CC(=O)CC[C@H]2[C@H]1Cc1cc(Br)c(O)cc13                  ZINC000100393521
REMARK  1 active torsions:
REMARK  status: ('A' for Active; 'I' for Inactive)
REMARK    1  A    between atoms: C_19  and  O_20
REMARK                            x       y       z     vdW  Elec       q    Type
REMARK                         _______ _______ _______ _____ _____    ______ ____
ROOT
ATOM      1  O   UNL     1       1.197   3.917 -26.007  0.00  0.00    -0.279 OA
ATOM      2  C   UNL     1       0.222   3.802 -25.404  0.00  0.00    +0.328 C 
ATOM      3  N   UNL     1      -0.584   3.364 -24.132  0.00  0.00    -0.300 N 
ATOM      4  C   UNL     1      -1.291   3.069 -23.216  0.00  0.00    +0.109 C 
ATOM      5  C   UNL     1      -0.948   2.546 -22.159  0.00  0.00    +0.031 C 
ATOM      6  C   UNL     1      -0.033   2.335 -22.008  0.00  0.00    +0.009 C 
ATOM      7  C   UNL     1       0.408   1.796 -20.948  0.00  0.00    +0.086 C 
ATOM      8  C   UNL     1       1.679   1.546 -20.834  0.00  0.00    +0.134 C 
ATOM      9  C   UNL     1       2.525   1.846 -21.809  0.00  0.00    +0.075 C 
ATOM     10  C   UNL     1       2.105   2.404 -22.919  0.00  0.00    +0.014 C 
ATOM     11  O   UNL     1       2.040   0.985 -19.697  0.00  0.00    -0.297 OA
ATOM     12  C   UNL     1      -1.636   2.758 -22.392  0.00  0.00    -0.034 A 
ATOM     13  C   UNL     1      -2.439   2.453 -21.422  0.00  0.00    +0.051 A 
ATOM     14  C   UNL     1      -3.692   2.698 -21.532  0.00  0.00    +0.131 A 
ATOM     15  C   UNL     1      -4.155   3.249 -22.609  0.00  0.00    +0.059 A 
ATOM     16 BR   UNL     1      -5.428   3.430 -22.568  0.00  0.00    -0.047 Br
ATOM     17  C   UNL     1      -3.348   3.555 -23.586  0.00  0.00    +0.023 A 
ATOM     18  C   UNL     1      -2.091   3.314 -23.487  0.00  0.00    -0.041 A 
ATOM     19  C   UNL     1      -1.307   3.585 -24.374  0.00  0.00    +0.058 C 
ATOM     20  C   UNL     1       0.875   2.666 -23.074  0.00  0.00    +0.021 C 
ATOM     21  C   UNL     1       0.280   3.239 -24.154  0.00  0.00    +0.084 C 
ENDROOT
BRANCH  14  22
ATOM     22  O   UNL     1      -4.432   2.348 -20.481  0.00  0.00    -0.506 OA
ATOM     23  H   UNL     1      -4.804   3.007 -19.930  0.00  0.00    +0.292 HD
ENDBRANCH  14  22
TORSDOF 1
ENDMDL
