MODEL 1
REMARK VINA RESULT:   -11.109      0.000      0.000
REMARK INTER + INTRA:         -11.758
REMARK INTER:                 -11.758
REMARK INTRA:                   0.000
REMARK UNBOUND:                 0.000
REMARK  Name = ZINC000015022933
REMARK  3 active torsions:
REMARK  status: ('A' for Active; 'I' for Inactive)
REMARK    1  A    between atoms: C_1  and  C_2
REMARK    2  A    between atoms: C_10  and  O_11
REMARK    3  A    between atoms: C_20  and  O_21
REMARK                            x       y       z     vdW  Elec       q    Type
REMARK                         _______ _______ _______ _____ _____    ______ ____
ROOT
ATOM      1  C   UNL     1      -4.595   3.036 -21.818  0.00  0.00    +0.014 C 
ATOM      2  C   UNL     1      -3.873   3.282 -22.870  0.00  0.00    -0.003 C 
ATOM      3  C   UNL     1      -3.206   2.770 -21.879  0.00  0.00    +0.010 C 
ATOM      4  C   UNL     1      -1.930   2.549 -21.999  0.00  0.00    +0.009 C 
ATOM      5  C   UNL     1      -1.322   2.840 -23.110  0.00  0.00    +0.023 C 
ATOM      6  C   UNL     1      -0.046   2.620 -23.231  0.00  0.00    -0.040 A 
ATOM      7  C   UNL     1       0.621   2.107 -22.240  0.00  0.00    +0.023 A 
ATOM      8  C   UNL     1       1.896   1.886 -22.360  0.00  0.00    +0.060 A 
ATOM      9  C   UNL     1       2.504   2.178 -23.472  0.00  0.00    +0.131 A 
ATOM     10  C   UNL     1       1.837   2.691 -24.463  0.00  0.00    +0.050 A 
ATOM     11 BR   UNL     1       2.564   1.374 -21.369  0.00  0.00    -0.047 Br
ATOM     12  C   UNL     1       0.562   2.912 -24.342  0.00  0.00    -0.040 A 
ATOM     13  C   UNL     1      -0.106   3.424 -25.333  0.00  0.00    +0.036 C 
ATOM     14  C   UNL     1      -1.381   3.645 -25.213  0.00  0.00    +0.009 C 
ATOM     15  C   UNL     1      -1.989   3.353 -24.102  0.00  0.00    +0.000 C 
ATOM     16  C   UNL     1      -5.127   3.595 -23.004  0.00  0.00    +0.121 C 
ATOM     17  C   UNL     1      -5.295   4.080 -24.199  0.00  0.00    +0.032 C 
ATOM     18  C   UNL     1      -4.143   4.067 -24.803  0.00  0.00    +0.007 C 
ATOM     19  C   UNL     1      -3.265   3.574 -23.981  0.00  0.00    +0.001 C 
ENDROOT
BRANCH   9  20
ATOM     20  O   UNL     1       3.780   1.957 -23.592  0.00  0.00    -0.506 OA
ATOM     21  H   UNL     1       4.354   2.126 -22.871  0.00  0.00    +0.292 HD
ENDBRANCH   9  20
BRANCH  16  22
ATOM     22  O   UNL     1      -6.052   3.448 -22.103  0.00  0.00    -0.391 OA
ATOM     23  H   UNL     1      -6.633   4.226 -22.105  0.00  0.00    +0.210 HD
ENDBRANCH  16  22
TORSDOF 2
ENDMDL
