MODEL 1
REMARK VINA RESULT:    -8.322      0.000      0.000
REMARK INTER + INTRA:         -11.827
REMARK INTER:                 -10.115
REMARK INTRA:                  -1.712
REMARK UNBOUND:                -0.587
REMARK  Name = ZINC000004762377
REMARK  6 active torsions:
REMARK  status: ('A' for Active; 'I' for Inactive)
REMARK    1  A    between atoms: C_2  and  CA_4
REMARK    2  A    between atoms: CA_4  and  CB_5
REMARK    3  A    between atoms: CA_4  and  N_12
REMARK    4  A    between atoms: CB_5  and  CG_6
REMARK    5  A    between atoms: N_12  and  C_13
REMARK    6  A    between atoms: C_13  and  C_14
REMARK                            x       y       z     vdW  Elec       q    Type
REMARK                         _______ _______ _______ _____ _____    ______ ____
ROOT
ATOM      1  CA  PHE A   1       2.055   1.532 -21.739  0.00  0.00    +0.114 C 
ENDROOT
BRANCH   1   2
ATOM      2  N   PHE A   1       0.927   1.571 -21.095  0.00  0.00    +0.237 N 
ATOM      3  H1  PHE A   1       1.068   0.906 -20.334  0.00  0.00    +0.202 HD
ATOM      4  H2  PHE A   1       0.766   2.546 -20.841  0.00  0.00    +0.202 HD
BRANCH   2   5
ATOM      5  C   UNK A   0      -0.162   1.147 -21.663  0.00  0.00    +0.166 C 
BRANCH   5   6
ATOM      6  C   UNK A   0      -1.059   1.997 -22.064  0.00  0.00    -0.003 A 
ATOM      7  C   UNK A   0      -1.449   1.995 -23.305  0.00  0.00    +0.009 A 
ATOM      8  C   UNK A   0      -2.347   2.845 -23.707  0.00  0.00    +0.000 A 
ATOM      9  C   UNK A   0      -2.855   3.698 -22.867  0.00  0.00    +0.000 A 
ATOM     10  C   UNK A   0      -2.466   3.701 -21.627  0.00  0.00    +0.000 A 
ATOM     11  C   UNK A   0      -1.568   2.850 -21.226  0.00  0.00    +0.009 A 
ENDBRANCH   5   6
ENDBRANCH   2   5
ENDBRANCH   1   2
BRANCH   1  13
ATOM     12  O   PHE A   1       3.516   0.014 -20.944  0.00  0.00    -0.544 OA
ATOM     13  C   PHE A   1       2.691   0.405 -21.870  0.00  0.00    +0.090 C 
ATOM     14  OXT PHE A   1       2.501  -0.329 -22.926  0.00  0.00    -0.544 OA
ENDBRANCH   1  13
BRANCH   1  15
ATOM     15  CB  PHE A   1       2.547   2.620 -22.254  0.00  0.00    +0.095 C 
BRANCH  15  16
ATOM     16  CG  PHE A   1       2.000   3.144 -23.310  0.00  0.00    -0.042 A 
ATOM     17  CD2 PHE A   1       2.021   2.501 -24.440  0.00  0.00    +0.004 A 
ATOM     18  CE2 PHE A   1       1.475   3.024 -25.497  0.00  0.00    +0.000 A 
ATOM     19  CZ  PHE A   1       0.906   4.191 -25.424  0.00  0.00    +0.000 A 
ATOM     20  CE1 PHE A   1       0.884   4.834 -24.295  0.00  0.00    +0.000 A 
ATOM     21  CD1 PHE A   1       1.431   4.311 -23.237  0.00  0.00    +0.004 A 
ENDBRANCH  15  16
ENDBRANCH   1  15
TORSDOF 6
ENDMDL
