MODEL 1
REMARK VINA RESULT:    -9.760      0.000      0.000
REMARK INTER + INTRA:         -11.073
REMARK INTER:                 -11.185
REMARK INTRA:                   0.113
REMARK UNBOUND:                 0.399
REMARK  Name = ZINC000033662877
REMARK  6 active torsions:
REMARK  status: ('A' for Active; 'I' for Inactive)
REMARK    1  A    between atoms: C_1  and  O_2
REMARK    2  A    between atoms: O_2  and  C_3
REMARK    3  A    between atoms: C_13  and  O_14
REMARK    4  A    between atoms: O_14  and  C_15
REMARK    5  A    between atoms: C_16  and  O_17
REMARK    6  A    between atoms: O_17  and  C_18
REMARK                            x       y       z     vdW  Elec       q    Type
REMARK                         _______ _______ _______ _____ _____    ______ ____
ROOT
ATOM      1  C   UNL     1       3.699   1.807 -22.218  0.00  0.00    +0.120 A 
ATOM      2  C   UNL     1       4.101   1.963 -23.444  0.00  0.00    +0.046 A 
ATOM      3  C   UNL     1       3.257   2.322 -24.365  0.00  0.00    +0.017 A 
ATOM      4  C   UNL     1       2.009   2.524 -24.059  0.00  0.00    +0.040 A 
ATOM      5  C   UNL     1       1.607   2.367 -22.833  0.00  0.00    -0.030 A 
ATOM      6  C   UNL     1       0.360   2.569 -22.528  0.00  0.00    +0.063 C 
ATOM      7  C   UNL     1      -0.486   2.928 -23.448  0.00  0.00    +0.111 C 
ATOM      8  C   UNL     1      -1.733   3.130 -23.143  0.00  0.00    -0.020 A 
ATOM      9  C   UNL     1      -2.135   2.974 -21.917  0.00  0.00    +0.055 A 
ATOM     10  C   UNL     1      -3.383   3.176 -21.611  0.00  0.00    +0.162 A 
ATOM     11  C   UNL     1      -4.227   3.535 -22.532  0.00  0.00    +0.162 A 
ATOM     12  C   UNL     1      -3.825   3.691 -23.758  0.00  0.00    +0.053 A 
ATOM     13  C   UNL     1      -2.577   3.489 -24.064  0.00  0.00    -0.037 A 
ATOM     14  C   UNL     1      -2.175   3.645 -25.290  0.00  0.00    +0.054 C 
ATOM     15  C   UNL     1      -0.928   3.443 -25.595  0.00  0.00    +0.113 C 
ATOM     16  N   UNL     1      -0.082   3.085 -24.675  0.00  0.00    -0.290 N 
ATOM     17  C   UNL     1       1.165   2.882 -24.980  0.00  0.00    +0.247 C 
ATOM     18  O   UNL     1       1.567   3.039 -26.206  0.00  0.00    -0.270 OA
ATOM     19  C   UNL     1       2.452   2.009 -21.913  0.00  0.00    +0.050 A 
ENDROOT
BRANCH   1  21
ATOM     20  C   UNL     1       4.406   0.300 -20.700  0.00  0.00    +0.277 C 
ATOM     21  O   UNL     1       4.543   1.448 -21.297  0.00  0.00    -0.495 OA
ENDBRANCH   1  21
BRANCH  11  22
ATOM     22  O   UNL     1      -5.474   3.737 -22.227  0.00  0.00    -0.491 OA
ATOM     23  C   UNL     1      -6.236   2.734 -21.905  0.00  0.00    +0.277 C 
ENDBRANCH  11  22
BRANCH  10  24
ATOM     24  O   UNL     1      -3.785   3.019 -20.385  0.00  0.00    -0.491 OA
ATOM     25  C   UNL     1      -3.250   3.721 -19.431  0.00  0.00    +0.277 C 
ENDBRANCH  10  24
TORSDOF 3
ENDMDL
