MODEL 1
REMARK VINA RESULT:    -9.771      0.000      0.000
REMARK INTER + INTRA:         -13.928
REMARK INTER:                 -13.226
REMARK INTRA:                  -0.702
REMARK UNBOUND:                -1.301
REMARK  Name = ZINC000014959367
REMARK  8 active torsions:
REMARK  status: ('A' for Active; 'I' for Inactive)
REMARK    1  A    between atoms: C_1  and  O_2
REMARK    2  A    between atoms: O_2  and  C_3
REMARK    3  A    between atoms: C_5  and  C_6
REMARK    4  A    between atoms: C_15  and  C_16
REMARK    5  A    between atoms: C_19  and  O_20
REMARK    6  A    between atoms: C_21  and  O_22
REMARK    7  A    between atoms: O_22  and  C_23
REMARK    8  A    between atoms: C_27  and  O_28
REMARK                            x       y       z     vdW  Elec       q    Type
REMARK                         _______ _______ _______ _____ _____    ______ ____
ROOT
ATOM      1  C   UNL     1       1.869   3.413 -22.784  0.00  0.00    +0.221 C 
ATOM      2  O   UNL     1       1.380   4.599 -22.994  0.00  0.00    -0.455 OA
ATOM      3  C   UNL     1       0.084   4.515 -22.938  0.00  0.00    +0.316 C 
ATOM      4  C   UNL     1      -0.229   3.277 -22.694  0.00  0.00    +0.160 C 
ATOM      5  C   UNL     1      -1.223   2.460 -22.508  0.00  0.00    +0.221 C 
ATOM      6  O   UNL     1      -0.734   1.275 -22.297  0.00  0.00    -0.455 OA
ATOM      7  C   UNL     1       0.562   1.358 -22.353  0.00  0.00    +0.316 C 
ATOM      8  O   UNL     1       1.399   0.377 -22.192  0.00  0.00    -0.250 OA
ATOM      9  O   UNL     1      -0.752   5.497 -23.099  0.00  0.00    -0.250 OA
ATOM     10  C   UNL     1       0.875   2.596 -22.598  0.00  0.00    +0.160 C 
ENDROOT
BRANCH   5  11
ATOM     11  C   UNL     1      -2.484   2.775 -22.529  0.00  0.00    -0.003 A 
ATOM     12  C   UNL     1      -3.177   2.753 -21.430  0.00  0.00    +0.011 A 
ATOM     13  C   UNL     1      -4.439   3.067 -21.451  0.00  0.00    +0.049 A 
ATOM     14  C   UNL     1      -5.006   3.404 -22.572  0.00  0.00    +0.158 A 
ATOM     15  C   UNL     1      -4.312   3.426 -23.671  0.00  0.00    +0.162 A 
ATOM     16  C   UNL     1      -3.051   3.111 -23.649  0.00  0.00    +0.056 A 
BRANCH  15  17
ATOM     17  O   UNL     1      -4.879   3.762 -24.792  0.00  0.00    -0.491 OA
ATOM     18  C   UNL     1      -4.382   3.350 -25.920  0.00  0.00    +0.277 C 
ENDBRANCH  15  17
BRANCH  14  19
ATOM     19  O   UNL     1      -6.268   3.719 -22.593  0.00  0.00    -0.503 OA
ATOM     20  H   UNL     1      -6.893   3.125 -22.961  0.00  0.00    +0.292 HD
ENDBRANCH  14  19
ENDBRANCH   5  11
BRANCH   1  23
ATOM     21  C   UNL     1       4.874   2.103 -21.744  0.00  0.00    +0.162 A 
ATOM     22  C   UNL     1       3.614   2.418 -21.766  0.00  0.00    +0.056 A 
ATOM     23  C   UNL     1       3.130   3.099 -22.762  0.00  0.00    -0.003 A 
ATOM     24  C   UNL     1       3.907   3.465 -23.738  0.00  0.00    +0.011 A 
ATOM     25  C   UNL     1       5.169   3.151 -23.716  0.00  0.00    +0.049 A 
ATOM     26  C   UNL     1       5.652   2.470 -22.720  0.00  0.00    +0.158 A 
BRANCH  21  28
ATOM     27  C   UNL     1       4.937   0.212 -20.524  0.00  0.00    +0.277 C 
ATOM     28  O   UNL     1       5.357   1.422 -20.748  0.00  0.00    -0.491 OA
ENDBRANCH  21  28
BRANCH  26  29
ATOM     29  O   UNL     1       6.914   2.155 -22.698  0.00  0.00    -0.503 OA
ATOM     30  H   UNL     1       7.173   1.254 -22.702  0.00  0.00    +0.292 HD
ENDBRANCH  26  29
ENDBRANCH   1  23
TORSDOF 6
ENDMDL
