MODEL 1
REMARK VINA RESULT:    -9.822      0.000      0.000
REMARK INTER + INTRA:          -7.415
REMARK INTER:                 -11.504
REMARK INTRA:                   4.089
REMARK UNBOUND:                 4.129
REMARK  Name = COc1ccc2c3c1O[C@@H]1C(OC)(OC)CC[C@@H]4[C@@H](C2)N(C)CC[C@@]341       ZINC000253505299
REMARK  7 active torsions:
REMARK  status: ('A' for Active; 'I' for Inactive)
REMARK    1  A    between atoms: C_1  and  O_2
REMARK    2  A    between atoms: O_2  and  C_3
REMARK    3  A    between atoms: C_11  and  O_12
REMARK    4  A    between atoms: C_11  and  O_14
REMARK    5  A    between atoms: O_12  and  C_13
REMARK    6  A    between atoms: O_14  and  C_15
REMARK    7  A    between atoms: N_21  and  C_22
REMARK                            x       y       z     vdW  Elec       q    Type
REMARK                         _______ _______ _______ _____ _____    ______ ____
ROOT
ATOM      1  C   UNL     1       1.436   1.846 -22.076  0.00  0.00    +0.162 A 
ATOM      2  C   UNL     1       2.087   1.935 -23.161  0.00  0.00    +0.050 A 
ATOM      3  C   UNL     1       1.529   2.345 -24.206  0.00  0.00    +0.008 A 
ATOM      4  C   UNL     1       0.317   2.671 -24.178  0.00  0.00    -0.035 A 
ATOM      5  C   UNL     1      -0.352   2.591 -23.110  0.00  0.00    +0.012 A 
ATOM      6  C   UNL     1      -1.561   2.917 -23.088  0.00  0.00    +0.054 C 
ATOM      7  C   UNL     1      -2.942   3.258 -22.939  0.00  0.00    +0.067 C 
ATOM      8  C   UNL     1      -3.599   3.725 -24.101  0.00  0.00    +0.132 C 
ATOM      9  N   UNL     1      -2.842   3.811 -25.293  0.00  0.00    +0.236 N 
ATOM     10  H   UNL     1      -3.266   4.141 -26.160  0.00  0.00    +0.203 HD
ATOM     11  C   UNL     1      -3.348   4.215 -26.367  0.00  0.00    +0.190 C 
ATOM     12  C   UNL     1      -1.470   3.416 -25.215  0.00  0.00    +0.072 C 
ATOM     13  C   UNL     1      -2.123   3.328 -24.131  0.00  0.00    +0.053 C 
ATOM     14  C   UNL     1      -3.348   3.658 -24.108  0.00  0.00    +0.015 C 
ATOM     15  C   UNL     1      -3.998   3.572 -23.038  0.00  0.00    +0.069 C 
ATOM     16  C   UNL     1      -3.440   3.158 -21.978  0.00  0.00    +0.208 C 
ATOM     17  C   UNL     1      -2.228   2.832 -22.004  0.00  0.00    +0.244 C 
ATOM     18  O   UNL     1      -1.039   2.314 -21.222  0.00  0.00    -0.479 OA
ATOM     19  C   UNL     1      -0.259   3.090 -25.241  0.00  0.00    +0.090 C 
ATOM     20  C   UNL     1       0.209   2.176 -22.052  0.00  0.00    +0.167 A 
ENDROOT
BRANCH   1  22
ATOM     21  C   UNL     1       3.215   1.126 -21.055  0.00  0.00    +0.277 C 
ATOM     22  O   UNL     1       1.998   1.435 -21.033  0.00  0.00    -0.491 OA
ENDBRANCH   1  22
BRANCH  16  23
ATOM     23  O   UNL     1      -4.598   3.368 -21.542  0.00  0.00    -0.349 OA
ATOM     24  C   UNL     1      -5.361   2.403 -21.298  0.00  0.00    +0.197 C 
ENDBRANCH  16  23
BRANCH  16  25
ATOM     25  O   UNL     1      -3.283   2.820 -20.781  0.00  0.00    -0.349 OA
ATOM     26  C   UNL     1      -3.272   3.691 -19.878  0.00  0.00    +0.197 C 
ENDBRANCH  16  25
TORSDOF 3
ENDMDL
