MODEL 1
REMARK VINA RESULT:   -11.104      0.000      0.000
REMARK INTER + INTRA:         -11.753
REMARK INTER:                 -11.753
REMARK INTRA:                   0.000
REMARK UNBOUND:                 0.000
REMARK  Name = C[C@]12CC[C@@H]3c4cc(Br)c(O)c(Br)c4CC[C@@H]3[C@H]1CC[C@@H]2O         ZINC000105151550
REMARK  3 active torsions:
REMARK  status: ('A' for Active; 'I' for Inactive)
REMARK    1  A    between atoms: C_1  and  C_2
REMARK    2  A    between atoms: C_10  and  O_11
REMARK    3  A    between atoms: C_21  and  O_22
REMARK                            x       y       z     vdW  Elec       q    Type
REMARK                         _______ _______ _______ _____ _____    ______ ____
ROOT
ATOM      1  C   UNL     1       2.770   2.317 -24.764  0.00  0.00    +0.014 C 
ATOM      2  C   UNL     1       2.012   2.079 -23.734  0.00  0.00    -0.003 C 
ATOM      3  C   UNL     1       1.399   2.669 -24.717  0.00  0.00    +0.010 C 
ATOM      4  C   UNL     1       0.137   2.966 -24.611  0.00  0.00    +0.009 C 
ATOM      5  C   UNL     1      -0.511   2.672 -23.523  0.00  0.00    +0.023 C 
ATOM      6  C   UNL     1      -1.773   2.969 -23.417  0.00  0.00    -0.039 A 
ATOM      7  C   UNL     1      -2.385   3.559 -24.400  0.00  0.00    +0.023 A 
ATOM      8  C   UNL     1      -3.647   3.856 -24.295  0.00  0.00    +0.061 A 
ATOM      9  C   UNL     1      -4.295   3.562 -23.207  0.00  0.00    +0.145 A 
ATOM     10  C   UNL     1      -3.681   2.972 -22.224  0.00  0.00    +0.064 A 
ATOM     11 BR   UNL     1      -4.329   2.678 -21.136  0.00  0.00    -0.046 Br
ATOM     12 BR   UNL     1      -4.260   4.446 -25.277  0.00  0.00    -0.046 Br
ATOM     13  C   UNL     1      -2.421   2.675 -22.329  0.00  0.00    -0.026 A 
ATOM     14  C   UNL     1      -1.807   2.085 -21.347  0.00  0.00    +0.037 C 
ATOM     15  C   UNL     1      -0.545   1.788 -21.453  0.00  0.00    +0.009 C 
ATOM     16  C   UNL     1       0.103   2.082 -22.541  0.00  0.00    +0.000 C 
ATOM     17  C   UNL     1       3.241   1.683 -23.589  0.00  0.00    +0.121 C 
ATOM     18  C   UNL     1       3.353   1.144 -22.411  0.00  0.00    +0.032 C 
ATOM     19  C   UNL     1       2.193   1.208 -21.829  0.00  0.00    +0.007 C 
ATOM     20  C   UNL     1       1.363   1.785 -22.646  0.00  0.00    +0.001 C 
ENDROOT
BRANCH   9  21
ATOM     21  O   UNL     1      -5.557   3.859 -23.101  0.00  0.00    -0.505 OA
ATOM     22  H   UNL     1      -6.189   3.177 -22.983  0.00  0.00    +0.292 HD
ENDBRANCH   9  21
BRANCH  17  23
ATOM     23  O   UNL     1       4.192   1.804 -24.467  0.00  0.00    -0.391 OA
ATOM     24  H   UNL     1       3.916   1.391 -25.301  0.00  0.00    +0.210 HD
ENDBRANCH  17  23
TORSDOF 2
ENDMDL
