MODEL 1
REMARK VINA RESULT:    -9.762      0.000      0.000
REMARK INTER + INTRA:          -9.762
REMARK INTER:                  -9.762
REMARK INTRA:                   0.000
REMARK UNBOUND:                 0.000
REMARK  Name = C=C1C(=O)O[C@@H]2[C@@H]1CC/C(C)=C\CC[C@]1(C)O[C@H]21                 ZINC000250647636
REMARK  2 active torsions:
REMARK  status: ('A' for Active; 'I' for Inactive)
REMARK    1  A    between atoms: C_10  and  C_11
REMARK    2  A    between atoms: C_15  and  C_16
REMARK                            x       y       z     vdW  Elec       q    Type
REMARK                         _______ _______ _______ _____ _____    ______ ____
ROOT
ATOM      1  C   UNL     1       0.183   2.626 -24.410  0.00  0.00    +0.020 C 
ATOM      2  C   UNL     1      -0.397   2.553 -23.249  0.00  0.00    +0.036 C 
ATOM      3  C   UNL     1       0.181   2.253 -22.124  0.00  0.00    +0.335 C 
ATOM      4  O   UNL     1      -0.721   2.282 -21.188  0.00  0.00    -0.455 OA
ATOM      5  C   UNL     1      -1.857   2.599 -21.735  0.00  0.00    +0.216 C 
ATOM      6  C   UNL     1      -3.048   2.757 -21.238  0.00  0.00    +0.192 C 
ATOM      7  O   UNL     1      -4.238   2.915 -20.741  0.00  0.00    -0.361 OA
ATOM      8  C   UNL     1      -4.038   3.083 -22.015  0.00  0.00    +0.097 C 
ATOM      9  C   UNL     1      -5.297   3.362 -22.176  0.00  0.00    +0.044 C 
ATOM     10  C   UNL     1      -3.837   3.250 -23.288  0.00  0.00    +0.041 C 
ATOM     11  C   UNL     1      -4.828   3.576 -24.065  0.00  0.00    +0.030 C 
ATOM     12  C   UNL     1      -4.627   3.744 -25.338  0.00  0.00    -0.028 C 
ATOM     13  C   UNL     1      -3.436   3.586 -25.835  0.00  0.00    -0.077 C 
ATOM     14  C   UNL     1      -3.236   3.753 -27.109  0.00  0.00    +0.039 C 
ATOM     15  C   UNL     1      -2.446   3.260 -25.059  0.00  0.00    +0.031 C 
ATOM     16  C   UNL     1      -2.646   3.092 -23.785  0.00  0.00    +0.016 C 
ATOM     17  O   UNL     1       1.440   1.974 -21.962  0.00  0.00    -0.245 OA
ATOM     18  C   UNL     1      -1.656   2.767 -23.009  0.00  0.00    +0.069 C 
ENDROOT
TORSDOF 0
ENDMDL
