MODEL 1
REMARK VINA RESULT:   -11.004      0.000      0.000
REMARK INTER + INTRA:         -12.078
REMARK INTER:                 -11.961
REMARK INTRA:                  -0.116
REMARK UNBOUND:                -0.109
REMARK  Name = ZINC000096316348
REMARK  3 active torsions:
REMARK  status: ('A' for Active; 'I' for Inactive)
REMARK    1  A    between atoms: C_1  and  O_2
REMARK    2  A    between atoms: O_2  and  C_3
REMARK    3  A    between atoms: C_11  and  O_12
REMARK                            x       y       z     vdW  Elec       q    Type
REMARK                         _______ _______ _______ _____ _____    ______ ____
ROOT
ATOM      1  C   UNL     1       0.852   2.654 -23.933  0.00  0.00    +0.162 A 
ATOM      2  C   UNL     1       1.002   2.184 -22.767  0.00  0.00    +0.050 A 
ATOM      3  C   UNL     1       0.023   2.075 -21.997  0.00  0.00    +0.008 A 
ATOM      4  C   UNL     1      -1.113   2.433 -22.382  0.00  0.00    -0.038 A 
ATOM      5  C   UNL     1      -1.286   2.903 -23.537  0.00  0.00    +0.012 A 
ATOM      6  C   UNL     1      -2.422   3.258 -23.915  0.00  0.00    +0.049 C 
ATOM      7  C   UNL     1      -3.666   3.696 -24.458  0.00  0.00    +0.035 C 
ATOM      8  C   UNL     1      -4.789   3.585 -23.612  0.00  0.00    +0.109 C 
ATOM      9  N   UNL     1      -4.584   3.057 -22.321  0.00  0.00    -0.300 N 
ATOM     10  C   UNL     1      -5.529   2.920 -21.495  0.00  0.00    +0.328 C 
ATOM     11  O   UNL     1      -6.698   3.254 -21.801  0.00  0.00    -0.279 OA
ATOM     12  C   UNL     1      -3.252   2.681 -21.984  0.00  0.00    +0.088 C 
ATOM     13  C   UNL     1      -3.404   3.150 -23.148  0.00  0.00    +0.046 C 
ATOM     14  C   UNL     1      -4.554   3.511 -23.532  0.00  0.00    -0.022 C 
ATOM     15  C   UNL     1      -4.708   3.976 -24.683  0.00  0.00    +0.004 C 
ATOM     16  C   UNL     1      -3.723   4.090 -25.468  0.00  0.00    +0.178 C 
ATOM     17  C   UNL     1      -2.587   3.732 -25.083  0.00  0.00    +0.217 C 
ATOM     18  O   UNL     1      -1.123   3.591 -25.431  0.00  0.00    -0.481 OA
ATOM     19  C   UNL     1      -2.115   2.323 -21.600  0.00  0.00    +0.058 C 
ATOM     20  C   UNL     1      -0.299   3.015 -24.317  0.00  0.00    +0.167 A 
ENDROOT
BRANCH   1  22
ATOM     21  C   UNL     1       2.696   1.856 -24.745  0.00  0.00    +0.277 C 
ATOM     22  O   UNL     1       1.834   2.762 -24.699  0.00  0.00    -0.491 OA
ENDBRANCH   1  22
BRANCH  16  23
ATOM     23  O   UNL     1      -3.883   4.555 -26.616  0.00  0.00    -0.384 OA
ATOM     24  H   UNL     1      -4.511   4.000 -27.106  0.00  0.00    +0.210 HD
ENDBRANCH  16  23
TORSDOF 2
ENDMDL
