MODEL 1
REMARK VINA RESULT:    -8.484      0.000      0.000
REMARK INTER + INTRA:         -18.416
REMARK INTER:                 -16.410
REMARK INTRA:                  -2.006
REMARK UNBOUND:                -1.501
REMARK  Name = ZINC000085340973
REMARK  19 active torsions:
REMARK  status: ('A' for Active; 'I' for Inactive)
REMARK    1  A    between atoms: C_1  and  C_2
REMARK    2  A    between atoms: C_2  and  C_3
REMARK    3  A    between atoms: C_3  and  C_4
REMARK    4  A    between atoms: C_4  and  C_5
REMARK    5  A    between atoms: C_5  and  C_6
REMARK    6  A    between atoms: C_6  and  C_7
REMARK    7  A    between atoms: C_7  and  C_8
REMARK    8  A    between atoms: C_8  and  C_9
REMARK    9  A    between atoms: C_9  and  C_10
REMARK   10  A    between atoms: C_10  and  C_11
REMARK   11  A    between atoms: C_11  and  C_12
REMARK   12  A    between atoms: C_13  and  O_14
REMARK   13  A    between atoms: C_15  and  O_16
REMARK   14  A    between atoms: C_22  and  C_23
REMARK   15  A    between atoms: N_25  and  CA_26
REMARK   16  A    between atoms: CA_26  and  CB_27
REMARK   17  A    between atoms: CA_26  and  C_32
REMARK   18  A    between atoms: CB_27  and  CG_28
REMARK   19  A    between atoms: CG_28  and  CD_29
REMARK                            x       y       z     vdW  Elec       q    Type
REMARK                         _______ _______ _______ _____ _____    ______ ____
ROOT
ATOM      1  C   UNK A   0       5.038   3.210 -22.539  0.00  0.00    +0.025 A 
ATOM      2  C   UNK A   0       5.675   2.567 -21.606  0.00  0.00    +0.164 A 
ATOM      3  C   UNK A   0       5.032   1.767 -20.808  0.00  0.00    +0.161 A 
ATOM      4  C   UNK A   0       3.748   1.612 -20.945  0.00  0.00    +0.079 A 
ATOM      5  C   UNK A   0       3.110   2.253 -21.876  0.00  0.00    +0.094 A 
ATOM      6  N   UNK A   0       1.826   2.096 -22.010  0.00  0.00    -0.243 NA
ATOM      7  C   UNK A   0       1.186   2.737 -22.942  0.00  0.00    +0.091 A 
ATOM      8  C   UNK A   0      -0.096   2.579 -23.075  0.00  0.00    +0.043 A 
ATOM      9  C   UNK A   0      -0.738   3.220 -24.008  0.00  0.00    +0.039 A 
ATOM     10  C   UNK A   0      -0.094   4.020 -24.805  0.00  0.00    +0.015 A 
ATOM     11  C   UNK A   0       1.190   4.179 -24.672  0.00  0.00    +0.030 A 
ATOM     12  C   UNK A   0       1.830   3.536 -23.739  0.00  0.00    +0.090 A 
ATOM     13  N   UNK A   0       3.114   3.695 -23.605  0.00  0.00    -0.243 NA
ATOM     14  C   UNK A   0       3.753   3.052 -22.673  0.00  0.00    +0.097 A 
ENDROOT
BRANCH   9  15
ATOM     15  C   UNK A   0      -2.020   3.063 -24.141  0.00  0.00    +0.245 C 
ATOM     16  N   GLU A   1      -2.839   3.924 -23.615  0.00  0.00    -0.303 N 
ATOM     17  H   GLU A   1      -2.488   4.696 -23.115  0.00  0.00    +0.150 HD
ATOM     18  O   UNK A   0      -2.484   2.043 -24.801  0.00  0.00    -0.270 OA
BRANCH  16  19
ATOM     19  CA  GLU A   1      -4.123   3.766 -23.749  0.00  0.00    +0.119 C 
BRANCH  19  20
ATOM     20  C   GLU A   1      -4.707   4.109 -24.858  0.00  0.00    +0.062 C 
ATOM     21  OXT GLU A   1      -4.664   5.345 -25.261  0.00  0.00    -0.548 OA
ATOM     22  O   GLU A   1      -5.336   3.218 -25.565  0.00  0.00    -0.548 OA
ENDBRANCH  19  20
BRANCH  19  23
ATOM     23  CB  GLU A   1      -4.822   3.265 -22.774  0.00  0.00    +0.034 C 
BRANCH  23  24
ATOM     24  CG  GLU A   1      -4.610   3.657 -21.553  0.00  0.00    +0.054 C 
BRANCH  24  25
ATOM     25  CD  GLU A   1      -3.677   3.095 -20.843  0.00  0.00    +0.042 C 
ATOM     26  OE2 GLU A   1      -3.137   3.741 -19.853  0.00  0.00    -0.550 OA
ATOM     27  OE1 GLU A   1      -3.285   1.888 -21.123  0.00  0.00    -0.550 OA
ENDBRANCH  24  25
ENDBRANCH  23  24
ENDBRANCH  19  23
ENDBRANCH  16  19
ENDBRANCH   9  15
BRANCH   2  28
ATOM     28  O   UNK A   0       6.959   2.725 -21.471  0.00  0.00    -0.503 OA
ATOM     29  H   UNK A   0       7.365   3.524 -21.743  0.00  0.00    +0.292 HD
ENDBRANCH   2  28
BRANCH   3  30
ATOM     30  O   UNK A   0       5.670   1.126 -19.876  0.00  0.00    -0.503 OA
ATOM     31  H   UNK A   0       5.860   1.549 -19.062  0.00  0.00    +0.292 HD
ENDBRANCH   3  30
BRANCH   1  32
ATOM     32  C   UNK A   0       5.681   4.009 -23.336  0.00  0.00    +0.041 C 
BRANCH  32  33
ATOM     33  C   UNK A   0       6.089   5.167 -22.908  0.00  0.00    +0.005 C 
BRANCH  33  34
ATOM     34  C   UNK A   0       7.227   5.647 -23.313  0.00  0.00    +0.000 C 
BRANCH  34  35
ATOM     35  C   UNK A   0       8.241   5.689 -22.501  0.00  0.00    +0.000 C 
BRANCH  35  36
ATOM     36  C   UNK A   0       8.065   6.027 -21.257  0.00  0.00    +0.000 C 
BRANCH  36  37
ATOM     37  C   UNK A   0       8.617   7.108 -20.793  0.00  0.00    +0.000 C 
BRANCH  37  38
ATOM     38  C   UNK A   0       7.876   8.059 -20.303  0.00  0.00    -0.000 C 
BRANCH  38  39
ATOM     39  C   UNK A   0       7.342   8.940 -21.095  0.00  0.00    -0.000 C 
BRANCH  39  40
ATOM     40  C   UNK A   0       6.084   9.243 -20.975  0.00  0.00    -0.000 C 
BRANCH  40  42
ATOM     41  C   UNK A   0       4.332   8.006 -21.657  0.00  0.00    +0.004 C 
ATOM     42  C   UNK A   0       5.208   8.310 -20.748  0.00  0.00    -0.003 C 
ENDBRANCH  40  42
ENDBRANCH  39  40
ENDBRANCH  38  39
ENDBRANCH  37  38
ENDBRANCH  36  37
ENDBRANCH  35  36
ENDBRANCH  34  35
ENDBRANCH  33  34
ENDBRANCH  32  33
ENDBRANCH   1  32
TORSDOF 18
ENDMDL
