MODEL 1
REMARK VINA RESULT:    -9.655      0.000      0.000
REMARK INTER + INTRA:         -11.560
REMARK INTER:                 -10.929
REMARK INTRA:                  -0.631
REMARK UNBOUND:                -0.494
REMARK  Name = ZINC000013334943
REMARK  5 active torsions:
REMARK  status: ('A' for Active; 'I' for Inactive)
REMARK    1  A    between atoms: C_1  and  O_2
REMARK    2  A    between atoms: O_2  and  C_3
REMARK    3  A    between atoms: C_5  and  O_6
REMARK    4  A    between atoms: C_9  and  C_10
REMARK    5  A    between atoms: C_12  and  C_13
REMARK                            x       y       z     vdW  Elec       q    Type
REMARK                         _______ _______ _______ _____ _____    ______ ____
ROOT
ATOM      1  C   UNL     1       2.142   1.467 -21.746  0.00  0.00    +0.130 A 
ATOM      2  C   UNL     1       2.898   1.769 -22.759  0.00  0.00    +0.092 A 
ATOM      3  C   UNL     1       2.387   2.353 -23.801  0.00  0.00    +0.134 A 
ATOM      4  C   UNL     1       1.118   2.636 -23.830  0.00  0.00    +0.101 A 
ATOM      5  C   UNL     1       0.362   2.334 -22.817  0.00  0.00    +0.142 A 
ATOM      6  O   UNL     1      -0.908   2.617 -22.846  0.00  0.00    -0.483 OA
ATOM      7  C   UNL     1      -1.419   3.201 -23.888  0.00  0.00    +0.211 C 
ATOM      8  C   UNL     1      -0.663   3.503 -24.901  0.00  0.00    +0.129 C 
ATOM      9  C   UNL     1       0.606   3.221 -24.872  0.00  0.00    +0.174 C 
ATOM     10  O   UNL     1       1.362   3.523 -25.885  0.00  0.00    -0.292 OA
ATOM     11  C   UNL     1       0.873   1.749 -21.775  0.00  0.00    +0.034 A 
ATOM     12  C   UNL     1       0.117   1.447 -20.762  0.00  0.00    +0.051 C 
ENDROOT
BRANCH   7  13
ATOM     13  C   UNL     1      -2.688   3.484 -23.917  0.00  0.00    -0.007 A 
ATOM     14  C   UNL     1      -3.448   3.161 -22.914  0.00  0.00    +0.007 A 
ATOM     15  C   UNL     1      -4.717   3.444 -22.944  0.00  0.00    +0.000 A 
ATOM     16  C   UNL     1      -5.225   4.050 -23.976  0.00  0.00    +0.000 A 
ATOM     17  C   UNL     1      -4.464   4.372 -24.979  0.00  0.00    +0.000 A 
ATOM     18  C   UNL     1      -3.195   4.090 -24.950  0.00  0.00    +0.007 A 
ENDBRANCH   7  13
BRANCH   1  20
ATOM     19  C   UNL     1       3.847   0.369 -20.767  0.00  0.00    +0.277 C 
ATOM     20  O   UNL     1       2.654   0.882 -20.704  0.00  0.00    -0.495 OA
ENDBRANCH   1  20
BRANCH   3  21
ATOM     21  O   UNL     1       3.143   2.655 -24.814  0.00  0.00    -0.506 OA
ATOM     22  H   UNL     1       4.075   2.654 -24.720  0.00  0.00    +0.292 HD
ENDBRANCH   3  21
TORSDOF 3
ENDMDL
