MODEL 1
REMARK VINA RESULT:   -10.038      0.000      0.000
REMARK INTER + INTRA:         -10.198
REMARK INTER:                 -11.145
REMARK INTRA:                   0.947
REMARK UNBOUND:                 1.013
REMARK  Name = COC1=C2Oc3c(OC)ccc4c3[C@@]23CCN(C=O)[C@@H](C4)[C@H]3C=C1             ZINC000253505557
REMARK  4 active torsions:
REMARK  status: ('A' for Active; 'I' for Inactive)
REMARK    1  A    between atoms: C_1  and  O_2
REMARK    2  A    between atoms: O_2  and  C_3
REMARK    3  A    between atoms: C_7  and  O_8
REMARK    4  A    between atoms: O_8  and  C_9
REMARK                            x       y       z     vdW  Elec       q    Type
REMARK                         _______ _______ _______ _____ _____    ______ ____
ROOT
ATOM      1  C   UNL     1      -2.773   3.731 -25.311  0.00  0.00    +0.159 C 
ATOM      2  C   UNL     1      -1.638   3.371 -24.918  0.00  0.00    +0.158 C 
ATOM      3  O   UNL     1      -0.173   3.210 -25.263  0.00  0.00    -0.452 OA
ATOM      4  C   UNL     1       0.647   2.649 -24.135  0.00  0.00    +0.174 A 
ATOM      5  C   UNL     1       1.796   2.285 -23.741  0.00  0.00    +0.162 A 
ATOM      6  C   UNL     1       1.941   1.838 -22.566  0.00  0.00    +0.050 A 
ATOM      7  C   UNL     1       0.960   1.752 -21.794  0.00  0.00    +0.008 A 
ATOM      8  C   UNL     1      -0.175   2.113 -22.186  0.00  0.00    -0.038 A 
ATOM      9  C   UNL     1      -1.180   2.028 -21.402  0.00  0.00    +0.058 C 
ATOM     10  C   UNL     1      -2.314   2.387 -21.794  0.00  0.00    +0.088 C 
ATOM     11  C   UNL     1      -2.461   2.835 -22.969  0.00  0.00    +0.051 C 
ATOM     12  C   UNL     1      -3.610   3.198 -23.362  0.00  0.00    -0.017 C 
ATOM     13  N   UNL     1      -3.644   2.769 -22.141  0.00  0.00    -0.300 N 
ATOM     14  C   UNL     1      -4.605   2.665 -21.325  0.00  0.00    +0.328 C 
ATOM     15  O   UNL     1      -4.417   2.216 -20.168  0.00  0.00    -0.279 OA
ATOM     16  C   UNL     1      -3.844   3.273 -23.444  0.00  0.00    +0.109 C 
ATOM     17  C   UNL     1      -2.718   3.357 -24.292  0.00  0.00    +0.039 C 
ATOM     18  C   UNL     1      -0.343   2.561 -23.352  0.00  0.00    +0.016 A 
ATOM     19  C   UNL     1      -1.477   2.919 -23.739  0.00  0.00    +0.070 C 
ATOM     20  C   UNL     1      -3.759   3.642 -24.524  0.00  0.00    +0.045 C 
ENDROOT
BRANCH   1  22
ATOM     21  C   UNL     1      -3.333   3.418 -27.382  0.00  0.00    +0.277 C 
ATOM     22  O   UNL     1      -2.928   4.175 -26.471  0.00  0.00    -0.492 OA
ENDBRANCH   1  22
BRANCH   5  23
ATOM     23  O   UNL     1       2.781   2.369 -24.511  0.00  0.00    -0.491 OA
ATOM     24  C   UNL     1       3.944   2.293 -24.052  0.00  0.00    +0.277 C 
ENDBRANCH   5  23
TORSDOF 2
ENDMDL
