MODEL 1
REMARK VINA RESULT:   -11.179      0.000      0.000
REMARK INTER + INTRA:         -12.000
REMARK INTER:                 -11.891
REMARK INTRA:                  -0.109
REMARK UNBOUND:                 0.160
REMARK  Name = COc1ccc2c3c1O[C@@H]1[C@H](O)[C@H](Cl)C=C4[C@H](C2)N(C)CC[C@]431      ZINC000100393474
REMARK  4 active torsions:
REMARK  status: ('A' for Active; 'I' for Inactive)
REMARK    1  A    between atoms: C_1  and  O_2
REMARK    2  A    between atoms: O_2  and  C_3
REMARK    3  A    between atoms: C_11  and  O_12
REMARK    4  A    between atoms: N_19  and  C_20
REMARK                            x       y       z     vdW  Elec       q    Type
REMARK                         _______ _______ _______ _____ _____    ______ ____
ROOT
ATOM      1  C   UNL     1       1.248   1.741 -22.172  0.00  0.00    +0.162 A 
ATOM      2  C   UNL     1       1.790   2.102 -23.256  0.00  0.00    +0.050 A 
ATOM      3  C   UNL     1       1.117   2.669 -24.145  0.00  0.00    +0.008 A 
ATOM      4  C   UNL     1      -0.104   2.882 -23.959  0.00  0.00    -0.034 A 
ATOM      5  C   UNL     1      -0.664   2.532 -22.887  0.00  0.00    +0.015 A 
ATOM      6  C   UNL     1      -1.883   2.748 -22.707  0.00  0.00    +0.070 C 
ATOM      7  C   UNL     1      -3.260   2.938 -22.387  0.00  0.00    +0.071 C 
ATOM      8  C   UNL     1      -4.045   3.576 -23.371  0.00  0.00    +0.133 C 
ATOM      9  N   UNL     1      -3.407   3.964 -24.567  0.00  0.00    +0.239 N 
ATOM     10  H   UNL     1      -3.929   4.428 -25.310  0.00  0.00    +0.204 HD
ATOM     11  C   UNL     1      -4.031   4.534 -25.489  0.00  0.00    +0.191 C 
ATOM     12  C   UNL     1      -2.015   3.674 -24.677  0.00  0.00    +0.096 C 
ATOM     13  C   UNL     1      -2.560   3.315 -23.594  0.00  0.00    -0.010 C 
ATOM     14  C   UNL     1      -3.792   3.531 -23.408  0.00  0.00    +0.000 C 
ATOM     15  C   UNL     1      -4.337   3.178 -22.336  0.00  0.00    +0.135 C 
ATOM     16 CL   UNL     1      -5.556   3.394 -22.157  0.00  0.00    -0.115 Cl
ATOM     17  C   UNL     1      -3.659   2.604 -21.436  0.00  0.00    +0.178 C 
ATOM     18  C   UNL     1      -2.440   2.389 -21.617  0.00  0.00    +0.219 C 
ATOM     19  O   UNL     1      -1.157   1.823 -21.060  0.00  0.00    -0.481 OA
ATOM     20  C   UNL     1      -0.796   3.461 -24.862  0.00  0.00    +0.094 C 
ATOM     21  C   UNL     1       0.014   1.959 -21.988  0.00  0.00    +0.167 A 
ENDROOT
BRANCH   1  23
ATOM     22  C   UNL     1       3.073   0.749 -21.550  0.00  0.00    +0.277 C 
ATOM     23  O   UNL     1       1.925   1.174 -21.286  0.00  0.00    -0.491 OA
ENDBRANCH   1  23
BRANCH  17  24
ATOM     24  O   UNL     1      -4.207   2.251 -20.365  0.00  0.00    -0.386 OA
ATOM     25  H   UNL     1      -4.658   1.403 -20.498  0.00  0.00    +0.210 HD
ENDBRANCH  17  24
TORSDOF 2
ENDMDL
