MODEL 1
REMARK VINA RESULT:   -10.386      0.000      0.000
REMARK INTER + INTRA:         -12.399
REMARK INTER:                 -13.095
REMARK INTRA:                   0.696
REMARK UNBOUND:                 0.720
REMARK  Name = COCO[C@@H]1C=C2[C@H]3Cc4ccc(OC)c5c4[C@@]2(CCN3C)[C@](C)(O5)[C@@H]1O  ZINC000253505464
REMARK  9 active torsions:
REMARK  status: ('A' for Active; 'I' for Inactive)
REMARK    1  A    between atoms: C_1  and  O_2
REMARK    2  A    between atoms: O_2  and  C_3
REMARK    3  A    between atoms: C_3  and  O_4
REMARK    4  A    between atoms: O_4  and  C_5
REMARK    5  A    between atoms: C_13  and  O_14
REMARK    6  A    between atoms: O_14  and  C_15
REMARK    7  A    between atoms: N_21  and  C_22
REMARK    8  A    between atoms: C_23  and  C_24
REMARK    9  A    between atoms: C_26  and  O_27
REMARK                            x       y       z     vdW  Elec       q    Type
REMARK                         _______ _______ _______ _____ _____    ______ ____
ROOT
ATOM      1  C   UNL     1       0.971   2.216 -22.660  0.00  0.00    +0.176 C 
ATOM      2  C   UNL     1       0.598   2.731 -23.746  0.00  0.00    +0.013 C 
ATOM      3  C   UNL     1      -0.623   3.033 -23.923  0.00  0.00    -0.009 C 
ATOM      4  C   UNL     1      -0.993   3.553 -25.022  0.00  0.00    +0.096 C 
ATOM      5  C   UNL     1      -2.201   3.852 -25.198  0.00  0.00    +0.094 C 
ATOM      6  C   UNL     1      -3.055   3.633 -24.271  0.00  0.00    -0.034 A 
ATOM      7  C   UNL     1      -4.267   3.933 -24.447  0.00  0.00    +0.008 A 
ATOM      8  C   UNL     1      -5.103   3.717 -23.534  0.00  0.00    +0.050 A 
ATOM      9  C   UNL     1      -4.737   3.197 -22.433  0.00  0.00    +0.162 A 
ATOM     10  C   UNL     1      -3.512   2.895 -22.259  0.00  0.00    +0.167 A 
ATOM     11  O   UNL     1      -2.480   2.317 -21.323  0.00  0.00    -0.478 OA
ATOM     12  C   UNL     1      -1.080   2.293 -21.907  0.00  0.00    +0.150 C 
ATOM     13  C   UNL     1      -0.994   1.804 -20.751  0.00  0.00    +0.060 C 
ATOM     14  C   UNL     1      -2.670   3.115 -23.182  0.00  0.00    +0.016 A 
ATOM     15  N   UNL     1       0.404   3.251 -24.926  0.00  0.00    +0.239 N 
ATOM     16  H   UNL     1       1.056   3.439 -25.686  0.00  0.00    +0.204 HD
ATOM     17  C   UNL     1       1.195   3.489 -25.872  0.00  0.00    +0.191 C 
ATOM     18  C   UNL     1       0.851   2.670 -23.712  0.00  0.00    +0.133 C 
ATOM     19  C   UNL     1      -0.117   2.437 -22.701  0.00  0.00    +0.071 C 
ATOM     20  C   UNL     1      -1.462   2.817 -23.011  0.00  0.00    +0.072 C 
ATOM     21  C   UNL     1       0.129   1.996 -21.736  0.00  0.00    +0.192 C 
ENDROOT
BRANCH   9  22
ATOM     22  O   UNL     1      -5.577   2.982 -21.523  0.00  0.00    -0.491 OA
ATOM     23  C   UNL     1      -6.733   2.580 -21.814  0.00  0.00    +0.277 C 
ENDBRANCH   9  22
BRANCH  21  24
ATOM     24  O   UNL     1       0.504   1.480 -20.650  0.00  0.00    -0.385 OA
ATOM     25  H   UNL     1       1.224   2.010 -20.273  0.00  0.00    +0.210 HD
ENDBRANCH  21  24
BRANCH   1  26
ATOM     26  O   UNL     1       2.182   1.919 -22.491  0.00  0.00    -0.344 OA
BRANCH  26  27
ATOM     27  C   UNL     1       2.595   0.764 -22.776  0.00  0.00    +0.323 C 
BRANCH  27  29
ATOM     28  C   UNL     1       3.867   0.403 -21.041  0.00  0.00    +0.196 C 
ATOM     29  O   UNL     1       3.004  -0.001 -21.863  0.00  0.00    -0.357 OA
ENDBRANCH  27  29
ENDBRANCH  26  27
ENDBRANCH   1  26
TORSDOF 5
ENDMDL
