MODEL 1
REMARK VINA RESULT:   -12.534      0.000      0.000
REMARK INTER + INTRA:         -15.203
REMARK INTER:                 -14.340
REMARK INTRA:                  -0.863
REMARK UNBOUND:                -0.471
REMARK  Name = COc1ccc2c(c1Oc1ccccc1)[C@]13CC=CC=C1[C@H](C2)NCC3                    ZINC000096316413
REMARK  4 active torsions:
REMARK  status: ('A' for Active; 'I' for Inactive)
REMARK    1  A    between atoms: C_1  and  O_2
REMARK    2  A    between atoms: O_2  and  C_3
REMARK    3  A    between atoms: C_8  and  O_9
REMARK    4  A    between atoms: O_9  and  C_10
REMARK                            x       y       z     vdW  Elec       q    Type
REMARK                         _______ _______ _______ _____ _____    ______ ____
ROOT
ATOM      1  C   UNL     1      -2.162   2.679 -21.452  0.00  0.00    +0.162 A 
ATOM      2  C   UNL     1      -3.161   2.802 -20.699  0.00  0.00    +0.050 A 
ATOM      3  C   UNL     1      -4.265   3.122 -21.202  0.00  0.00    +0.008 A 
ATOM      4  C   UNL     1      -4.349   3.340 -22.633  0.00  0.00    -0.034 A 
ATOM      5  C   UNL     1      -3.478   3.222 -23.205  0.00  0.00    +0.013 A 
ATOM      6  C   UNL     1      -3.317   3.314 -24.129  0.00  0.00    +0.034 C 
ATOM      7  C   UNL     1      -2.249   3.165 -24.799  0.00  0.00    +0.043 C 
ATOM      8  C   UNL     1      -2.264   3.346 -26.079  0.00  0.00    -0.026 C 
ATOM      9  C   UNL     1      -3.378   3.684 -26.692  0.00  0.00    -0.004 C 
ATOM     10  C   UNL     1      -4.494   3.846 -26.036  0.00  0.00    +0.005 C 
ATOM     11  C   UNL     1      -3.427   3.107 -22.461  0.00  0.00    +0.067 C 
ATOM     12  C   UNL     1      -4.735   3.308 -21.769  0.00  0.00    +0.131 C 
ATOM     13  N   UNL     1      -5.681   3.614 -22.427  0.00  0.00    +0.233 N 
ATOM     14  H   UNL     1      -5.878   4.561 -22.103  0.00  0.00    +0.202 HD
ATOM     15  H   UNL     1      -6.384   2.891 -22.276  0.00  0.00    +0.202 HD
ATOM     16  C   UNL     1      -5.567   3.804 -23.976  0.00  0.00    +0.095 C 
ATOM     17  C   UNL     1      -4.517   3.678 -24.787  0.00  0.00    -0.011 C 
ATOM     18  C   UNL     1      -5.407   3.642 -23.071  0.00  0.00    +0.094 C 
ATOM     19  C   UNL     1      -2.306   2.887 -22.708  0.00  0.00    +0.174 A 
ENDROOT
BRANCH   1  21
ATOM     20  C   UNL     1      -0.437   1.207 -21.244  0.00  0.00    +0.277 C 
ATOM     21  O   UNL     1      -0.961   2.348 -21.030  0.00  0.00    -0.491 OA
ENDBRANCH   1  21
BRANCH  19  22
ATOM     22  O   UNL     1      -1.260   2.804 -23.825  0.00  0.00    -0.452 OA
BRANCH  22  23
ATOM     23  C   UNL     1       0.018   3.332 -23.949  0.00  0.00    +0.129 A 
ATOM     24  C   UNL     1       0.179   4.547 -23.566  0.00  0.00    +0.046 A 
ATOM     25  C   UNL     1       1.336   5.095 -23.654  0.00  0.00    +0.004 A 
ATOM     26  C   UNL     1       2.327   4.434 -24.121  0.00  0.00    +0.000 A 
ATOM     27  C   UNL     1       2.167   3.218 -24.504  0.00  0.00    +0.004 A 
ATOM     28  C   UNL     1       1.011   2.668 -24.418  0.00  0.00    +0.046 A 
ENDBRANCH  22  23
ENDBRANCH  19  22
TORSDOF 3
ENDMDL
