MODEL 1
REMARK VINA RESULT:   -10.545      0.000      0.000
REMARK INTER + INTRA:         -10.853
REMARK INTER:                 -10.853
REMARK INTRA:                   0.000
REMARK UNBOUND:                 0.000
REMARK  Name = ZINC000016027969
REMARK  3 active torsions:
REMARK  status: ('A' for Active; 'I' for Inactive)
REMARK    1  A    between atoms: C_8  and  C_9
REMARK    2  A    between atoms: C_10  and  O_11
REMARK    3  A    between atoms: C_14  and  C_15
REMARK                            x       y       z     vdW  Elec       q    Type
REMARK                         _______ _______ _______ _____ _____    ______ ____
ROOT
ATOM      1  C   UNL     1       0.662   1.532 -21.208  0.00  0.00    +0.020 C 
ATOM      2  C   UNL     1      -0.068   1.979 -22.188  0.00  0.00    +0.036 C 
ATOM      3  C   UNL     1       0.329   2.163 -23.416  0.00  0.00    +0.336 C 
ATOM      4  O   UNL     1      -0.678   2.618 -24.106  0.00  0.00    -0.453 OA
ATOM      5  C   UNL     1      -1.700   2.716 -23.301  0.00  0.00    +0.207 C 
ATOM      6  C   UNL     1      -2.786   3.068 -23.471  0.00  0.00    +0.019 C 
ATOM      7  C   UNL     1      -3.209   3.469 -24.626  0.00  0.00    -0.045 C 
ATOM      8  C   UNL     1      -4.515   3.880 -24.782  0.00  0.00    +0.144 C 
ATOM      9  C   UNL     1      -5.466   3.898 -23.732  0.00  0.00    +0.063 C 
ATOM     10  C   UNL     1      -5.203   3.513 -22.456  0.00  0.00    -0.025 C 
ATOM     11  C   UNL     1      -4.073   3.141 -22.252  0.00  0.00    -0.076 C 
ATOM     12  C   UNL     1      -3.565   2.722 -21.126  0.00  0.00    +0.031 C 
ATOM     13  C   UNL     1      -2.223   2.320 -21.049  0.00  0.00    +0.016 C 
ATOM     14  C   UNL     1      -3.460   3.170 -23.095  0.00  0.00    +0.039 C 
ATOM     15  C   UNL     1      -2.395   3.485 -25.653  0.00  0.00    +0.041 C 
ATOM     16  O   UNL     1       1.526   1.933 -23.879  0.00  0.00    -0.245 OA
ATOM     17  C   UNL     1      -1.324   2.322 -22.120  0.00  0.00    +0.070 C 
ENDROOT
BRANCH   8  18
ATOM     18  O   UNL     1      -4.898   4.278 -25.971  0.00  0.00    -0.387 OA
ATOM     19  H   UNL     1      -5.860   4.183 -26.049  0.00  0.00    +0.210 HD
ENDBRANCH   8  18
TORSDOF 1
ENDMDL
