MODEL 1
REMARK VINA RESULT:   -10.363      0.000      0.000
REMARK INTER + INTRA:         -10.363
REMARK INTER:                 -10.363
REMARK INTRA:                   0.000
REMARK UNBOUND:                 0.000
REMARK  Name = C=C1C(=O)O[C@@H]2[C@@H]1CCC(C)=CCC[C@@]1(C)O[C@H]21                  ZINC000253986906
REMARK  2 active torsions:
REMARK  status: ('A' for Active; 'I' for Inactive)
REMARK    1  A    between atoms: C_10  and  C_11
REMARK    2  A    between atoms: C_15  and  C_16
REMARK                            x       y       z     vdW  Elec       q    Type
REMARK                         _______ _______ _______ _____ _____    ______ ____
ROOT
ATOM      1  C   UNL     1       0.291   1.503 -21.011  0.00  0.00    +0.020 C 
ATOM      2  C   UNL     1      -0.297   1.957 -22.062  0.00  0.00    +0.036 C 
ATOM      3  C   UNL     1       0.234   2.098 -23.230  0.00  0.00    +0.335 C 
ATOM      4  O   UNL     1      -0.659   2.578 -24.020  0.00  0.00    -0.455 OA
ATOM      5  C   UNL     1      -1.747   2.736 -23.346  0.00  0.00    +0.216 C 
ATOM      6  C   UNL     1      -2.911   3.164 -23.619  0.00  0.00    +0.192 C 
ATOM      7  O   UNL     1      -4.122   3.576 -23.771  0.00  0.00    -0.361 OA
ATOM      8  C   UNL     1      -3.313   3.587 -24.769  0.00  0.00    +0.097 C 
ATOM      9  C   UNL     1      -2.317   3.494 -25.584  0.00  0.00    +0.044 C 
ATOM     10  C   UNL     1      -4.221   4.026 -25.383  0.00  0.00    +0.041 C 
ATOM     11  C   UNL     1      -5.288   4.133 -24.537  0.00  0.00    +0.030 C 
ATOM     12  C   UNL     1      -5.129   3.727 -23.166  0.00  0.00    -0.028 C 
ATOM     13  C   UNL     1      -3.927   3.253 -22.763  0.00  0.00    -0.077 C 
ATOM     14  C   UNL     1      -4.872   3.318 -21.896  0.00  0.00    +0.039 C 
ATOM     15  C   UNL     1      -3.690   2.866 -21.555  0.00  0.00    +0.031 C 
ATOM     16  C   UNL     1      -2.487   2.414 -21.237  0.00  0.00    +0.016 C 
ATOM     17  O   UNL     1       1.451   1.807 -23.546  0.00  0.00    -0.245 OA
ATOM     18  C   UNL     1      -1.521   2.352 -22.136  0.00  0.00    +0.069 C 
ENDROOT
TORSDOF 0
ENDMDL
