MODEL 1
REMARK VINA RESULT:   -12.101      0.000      0.000
REMARK INTER + INTRA:         -12.455
REMARK INTER:                 -12.455
REMARK INTRA:                   0.000
REMARK UNBOUND:                 0.000
REMARK  Name = C[C@]12CC[C@@H]3[C@H](CC(=O)[C@H]4C[C@@H](O)CC[C@@]43C)[C@H]1CCC2=O  ZINC000253504574
REMARK  3 active torsions:
REMARK  status: ('A' for Active; 'I' for Inactive)
REMARK    1  A    between atoms: C_1  and  C_2
REMARK    2  A    between atoms: C_12  and  O_13
REMARK    3  A    between atoms: C_16  and  C_17
REMARK                            x       y       z     vdW  Elec       q    Type
REMARK                         _______ _______ _______ _____ _____    ______ ____
ROOT
ATOM      1  C   UNL     1      -4.844   2.883 -21.645  0.00  0.00    +0.019 C 
ATOM      2  C   UNL     1      -3.988   3.158 -22.583  0.00  0.00    +0.029 C 
ATOM      3  C   UNL     1      -3.471   2.551 -21.556  0.00  0.00    +0.015 C 
ATOM      4  C   UNL     1      -2.201   2.273 -21.536  0.00  0.00    +0.005 C 
ATOM      5  C   UNL     1      -1.448   2.604 -22.543  0.00  0.00    -0.001 C 
ATOM      6  C   UNL     1      -1.964   3.212 -23.569  0.00  0.00    +0.004 C 
ATOM      7  C   UNL     1      -1.211   3.543 -24.576  0.00  0.00    +0.078 C 
ATOM      8  C   UNL     1       0.058   3.266 -24.556  0.00  0.00    +0.137 C 
ATOM      9  C   UNL     1       0.575   2.657 -23.529  0.00  0.00    +0.064 C 
ATOM     10  C   UNL     1       1.845   2.381 -23.510  0.00  0.00    +0.043 C 
ATOM     11  C   UNL     1       2.362   1.773 -22.483  0.00  0.00    +0.115 C 
ATOM     12  C   UNL     1       1.608   1.442 -21.476  0.00  0.00    +0.032 C 
ATOM     13  C   UNL     1       0.339   1.719 -21.496  0.00  0.00    +0.010 C 
ATOM     14  O   UNL     1       0.812   3.596 -25.562  0.00  0.00    -0.297 OA
ATOM     15  C   UNL     1      -0.178   2.327 -22.523  0.00  0.00    -0.019 C 
ATOM     16  C   UNL     1      -0.931   1.996 -21.516  0.00  0.00    +0.012 C 
ATOM     17  C   UNL     1      -5.202   3.542 -22.846  0.00  0.00    +0.139 C 
ATOM     18  O   UNL     1      -6.237   3.386 -22.076  0.00  0.00    -0.297 OA
ATOM     19  C   UNL     1      -5.198   4.110 -24.016  0.00  0.00    +0.075 C 
ATOM     20  C   UNL     1      -3.983   4.077 -24.475  0.00  0.00    +0.012 C 
ATOM     21  C   UNL     1      -3.235   3.489 -23.589  0.00  0.00    +0.006 C 
ENDROOT
BRANCH  11  22
ATOM     22  O   UNL     1       3.632   1.495 -22.463  0.00  0.00    -0.392 OA
ATOM     23  H   UNL     1       3.801   0.805 -21.803  0.00  0.00    +0.210 HD
ENDBRANCH  11  22
TORSDOF 1
ENDMDL
