MODEL 1
REMARK VINA RESULT:   -10.352      0.000      0.000
REMARK INTER + INTRA:         -10.655
REMARK INTER:                 -10.655
REMARK INTRA:                   0.000
REMARK UNBOUND:                 0.000
REMARK  Name = ZINC000071325819
REMARK  4 active torsions:
REMARK  status: ('A' for Active; 'I' for Inactive)
REMARK    1  A    between atoms: C_1  and  C_2
REMARK    2  A    between atoms: C_6  and  C_7
REMARK    3  A    between atoms: C_6  and  O_8
REMARK    4  A    between atoms: C_14  and  C_15
REMARK                            x       y       z     vdW  Elec       q    Type
REMARK                         _______ _______ _______ _____ _____    ______ ____
ROOT
ATOM      1  C   UNL     1      -5.758   3.382 -22.145  0.00  0.00    +0.039 C 
ATOM      2  C   UNL     1      -4.511   3.112 -22.394  0.00  0.00    -0.073 C 
ATOM      3  C   UNL     1      -4.134   3.270 -23.627  0.00  0.00    -0.061 C 
ATOM      4  C   UNL     1      -4.930   3.671 -24.573  0.00  0.00    +0.034 C 
ATOM      5  C   UNL     1      -4.247   3.724 -25.678  0.00  0.00    +0.039 C 
ATOM      6  C   UNL     1      -3.028   3.356 -25.415  0.00  0.00    +0.073 C 
ATOM      7  C   UNL     1      -2.835   3.569 -26.683  0.00  0.00    +0.042 C 
ATOM      8  C   UNL     1      -2.958   3.075 -24.147  0.00  0.00    +0.087 C 
ATOM      9  C   UNL     1      -1.869   2.673 -23.562  0.00  0.00    +0.190 C 
ATOM     10  O   UNL     1      -0.739   2.511 -24.184  0.00  0.00    -0.460 OA
ATOM     11  C   UNL     1       0.141   2.105 -23.318  0.00  0.00    +0.311 C 
ATOM     12  C   UNL     1      -0.445   2.016 -22.161  0.00  0.00    +0.101 C 
ATOM     13  C   UNL     1       0.114   1.642 -21.048  0.00  0.00    +0.019 C 
ATOM     14  O   UNL     1       1.389   1.835 -23.565  0.00  0.00    -0.251 OA
ATOM     15  C   UNL     1      -1.687   2.368 -22.311  0.00  0.00    +0.044 C 
ATOM     16  C   UNL     1      -2.548   2.388 -21.338  0.00  0.00    +0.012 C 
ATOM     17  C   UNL     1      -3.805   2.719 -21.374  0.00  0.00    +0.031 C 
ENDROOT
BRANCH   6  18
ATOM     18  O   UNL     1      -1.769   3.032 -25.417  0.00  0.00    -0.388 OA
ATOM     19  H   UNL     1      -1.259   3.712 -24.951  0.00  0.00    +0.210 HD
ENDBRANCH   6  18
TORSDOF 1
ENDMDL
