MODEL 1
REMARK VINA RESULT:   -10.954      0.000      0.000
REMARK INTER + INTRA:         -10.910
REMARK INTER:                 -11.750
REMARK INTRA:                   0.840
REMARK UNBOUND:                 1.005
REMARK  Name = ZINC000001280593
REMARK  6 active torsions:
REMARK  status: ('A' for Active; 'I' for Inactive)
REMARK    1  A    between atoms: C_1  and  O_2
REMARK    2  A    between atoms: O_2  and  C_3
REMARK    3  A    between atoms: C_11  and  O_12
REMARK    4  A    between atoms: O_12  and  C_13
REMARK    5  A    between atoms: C_14  and  O_15
REMARK    6  A    between atoms: N_20  and  C_21
REMARK                            x       y       z     vdW  Elec       q    Type
REMARK                         _______ _______ _______ _____ _____    ______ ____
ROOT
ATOM      1  C   UNL     1      -2.362   3.510 -25.037  0.00  0.00    +0.159 C 
ATOM      2  C   UNL     1      -3.086   3.438 -24.406  0.00  0.00    +0.032 C 
ATOM      3  C   UNL     1      -2.946   3.126 -22.933  0.00  0.00    +0.075 C 
ATOM      4  C   UNL     1      -3.836   3.218 -23.046  0.00  0.00    +0.076 C 
ATOM      5  C   UNL     1      -3.696   3.399 -23.984  0.00  0.00    +0.090 C 
ATOM      6  C   UNL     1      -2.058   3.292 -24.087  0.00  0.00    -0.035 A 
ATOM      7  C   UNL     1      -0.858   3.424 -25.192  0.00  0.00    +0.008 A 
ATOM      8  C   UNL     1       0.302   3.262 -24.845  0.00  0.00    +0.049 A 
ATOM      9  C   UNL     1       0.559   2.995 -23.639  0.00  0.00    +0.162 A 
ATOM     10  C   UNL     1      -0.394   2.889 -22.755  0.00  0.00    +0.163 A 
ATOM     11  C   UNL     1      -1.657   3.054 -23.076  0.00  0.00    +0.009 A 
ATOM     12  N   UNL     1      -4.481   3.049 -21.972  0.00  0.00    +0.236 N 
ATOM     13  H   UNL     1      -5.497   3.128 -21.969  0.00  0.00    +0.203 HD
ATOM     14  C   UNL     1      -5.739   3.136 -21.916  0.00  0.00    +0.190 C 
ATOM     15  C   UNL     1      -3.745   2.774 -20.908  0.00  0.00    +0.132 C 
ATOM     16  C   UNL     1      -2.452   2.715 -21.113  0.00  0.00    +0.064 C 
ATOM     17  C   UNL     1      -2.108   2.927 -22.286  0.00  0.00    +0.023 C 
ATOM     18  C   UNL     1      -0.982   3.048 -23.307  0.00  0.00    +0.095 C 
ATOM     19  C   UNL     1      -1.377   3.370 -24.732  0.00  0.00    +0.198 C 
ATOM     20  O   UNL     1      -2.389   3.784 -26.370  0.00  0.00    -0.289 OA
ENDROOT
BRANCH   1  22
ATOM     21  C   UNL     1      -3.235   3.465 -27.526  0.00  0.00    +0.277 C 
ATOM     22  O   UNL     1      -3.497   3.824 -26.137  0.00  0.00    -0.492 OA
ENDBRANCH   1  22
BRANCH  10  23
ATOM     23  O   UNL     1       0.504   2.660 -21.978  0.00  0.00    -0.503 OA
ATOM     24  H   UNL     1       1.254   2.175 -22.261  0.00  0.00    +0.292 HD
ENDBRANCH  10  23
BRANCH   9  25
ATOM     25  O   UNL     1       1.756   2.803 -23.159  0.00  0.00    -0.491 OA
ATOM     26  C   UNL     1       2.808   2.905 -23.804  0.00  0.00    +0.277 C 
ENDBRANCH   9  25
TORSDOF 3
ENDMDL
