MODEL 1
REMARK VINA RESULT:   -10.221      0.000      0.000
REMARK INTER + INTRA:         -11.669
REMARK INTER:                 -11.388
REMARK INTRA:                  -0.281
REMARK UNBOUND:                -0.254
REMARK  Name = ZINC000004073902
REMARK  6 active torsions:
REMARK  status: ('A' for Active; 'I' for Inactive)
REMARK    1  A    between atoms: C_1  and  C_2
REMARK    2  A    between atoms: C_2  and  O_4
REMARK    3  A    between atoms: O_4  and  C_5
REMARK    4  A    between atoms: C_7  and  C_8
REMARK    5  A    between atoms: C_11  and  C_12
REMARK    6  A    between atoms: C_17  and  C_18
REMARK                            x       y       z     vdW  Elec       q    Type
REMARK                         _______ _______ _______ _____ _____    ______ ____
ROOT
ATOM      1  C   UNL     1       1.334   2.253 -22.580  0.00  0.00    +0.135 A 
ATOM      2  C   UNL     1       1.648   2.874 -23.678  0.00  0.00    +0.050 A 
ATOM      3  C   UNL     1       0.727   3.461 -24.383  0.00  0.00    -0.043 A 
ATOM      4  C   UNL     1      -0.513   3.428 -23.988  0.00  0.00    -0.037 A 
ATOM      5  C   UNL     1      -0.828   2.807 -22.889  0.00  0.00    +0.003 A 
ATOM      6  C   UNL     1      -2.065   2.774 -22.495  0.00  0.00    +0.211 C 
ATOM      7  O   UNL     1      -2.634   2.233 -21.458  0.00  0.00    -0.456 OA
ATOM      8  C   UNL     1      -3.908   2.485 -21.519  0.00  0.00    +0.311 C 
ATOM      9  C   UNL     1      -4.126   3.182 -22.595  0.00  0.00    +0.102 C 
ATOM     10  C   UNL     1      -5.282   3.623 -22.996  0.00  0.00    +0.019 C 
ATOM     11  O   UNL     1      -4.804   2.107 -20.657  0.00  0.00    -0.251 OA
ATOM     12  C   UNL     1      -2.989   3.360 -23.197  0.00  0.00    +0.048 C 
ATOM     13  C   UNL     1      -2.671   3.980 -24.295  0.00  0.00    +0.013 C 
ATOM     14  C   UNL     1      -1.433   4.015 -24.692  0.00  0.00    +0.036 C 
ATOM     15  C   UNL     1       1.043   4.081 -25.480  0.00  0.00    +0.044 C 
ATOM     16  C   UNL     1       0.094   2.220 -22.187  0.00  0.00    -0.001 A 
ATOM     17  C   UNL     1      -0.222   1.599 -21.088  0.00  0.00    +0.048 C 
ENDROOT
BRANCH   1  18
ATOM     18  O   UNL     1       2.255   1.667 -21.877  0.00  0.00    -0.426 OA
BRANCH  18  20
ATOM     19  C   UNL     1       4.274   0.821 -22.402  0.00  0.00    +0.136 C 
ATOM     20  C   UNL     1       2.977   0.726 -22.409  0.00  0.00    +0.309 C 
ATOM     21  O   UNL     1       2.404  -0.309 -22.946  0.00  0.00    -0.251 OA
ENDBRANCH  18  20
ENDBRANCH   1  18
TORSDOF 2
ENDMDL
