MODEL 1
REMARK VINA RESULT:    -9.772      0.000      0.000
REMARK INTER + INTRA:         -16.560
REMARK INTER:                 -14.779
REMARK INTRA:                  -1.782
REMARK UNBOUND:                -0.791
REMARK  Name = CCCCCCCCCCCc1c(O)c(=O)c2sc3ccccc3[nH]c=2c1=O                         ZINC000100392834
REMARK  12 active torsions:
REMARK  status: ('A' for Active; 'I' for Inactive)
REMARK    1  A    between atoms: C_1  and  C_2
REMARK    2  A    between atoms: C_2  and  C_3
REMARK    3  A    between atoms: C_3  and  C_4
REMARK    4  A    between atoms: C_4  and  C_5
REMARK    5  A    between atoms: C_5  and  C_6
REMARK    6  A    between atoms: C_6  and  C_7
REMARK    7  A    between atoms: C_7  and  C_8
REMARK    8  A    between atoms: C_8  and  C_9
REMARK    9  A    between atoms: C_9  and  C_10
REMARK   10  A    between atoms: C_10  and  C_11
REMARK   11  A    between atoms: C_11  and  C_12
REMARK   12  A    between atoms: C_13  and  O_14
REMARK                            x       y       z     vdW  Elec       q    Type
REMARK                         _______ _______ _______ _____ _____    ______ ____
ROOT
ATOM      1  C   UNL     1       0.069   3.445 -23.488  0.00  0.00    +0.047 A 
ATOM      2  C   UNL     1       0.219   2.240 -23.025  0.00  0.00    +0.172 A 
ATOM      3  C   UNL     1       1.393   1.823 -22.655  0.00  0.00    +0.236 A 
ATOM      4  C   UNL     1       2.422   2.616 -22.749  0.00  0.00    +0.090 A 
ATOM      5  S   UNL     1       3.596   2.202 -22.380  0.00  0.00    -0.081 S 
ATOM      6  C   UNL     1       4.622   2.996 -22.475  0.00  0.00    +0.036 A 
ATOM      7  C   UNL     1       5.800   2.580 -22.104  0.00  0.00    +0.017 A 
ATOM      8  C   UNL     1       6.825   3.373 -22.199  0.00  0.00    +0.001 A 
ATOM      9  C   UNL     1       6.680   4.579 -22.663  0.00  0.00    +0.002 A 
ATOM     10  C   UNL     1       5.501   4.991 -23.032  0.00  0.00    +0.027 A 
ATOM     11  C   UNL     1       4.477   4.202 -22.938  0.00  0.00    +0.054 A 
ATOM     12  N   UNL     1       3.300   4.613 -23.307  0.00  0.00    -0.350 N 
ATOM     13  H   UNL     1       3.187   5.525 -23.658  0.00  0.00    +0.166 HD
ATOM     14  C   UNL     1       2.272   3.821 -23.213  0.00  0.00    +0.105 A 
ATOM     15  O   UNL     1       1.541   0.619 -22.192  0.00  0.00    -0.283 OA
ATOM     16  C   UNL     1       1.098   4.235 -23.582  0.00  0.00    +0.210 A 
ATOM     17  O   UNL     1       0.949   5.441 -24.046  0.00  0.00    -0.285 OA
ENDROOT
BRANCH   2  18
ATOM     18  O   UNL     1      -0.810   1.448 -22.931  0.00  0.00    -0.503 OA
ATOM     19  H   UNL     1      -1.640   1.714 -23.274  0.00  0.00    +0.292 HD
ENDBRANCH   2  18
BRANCH   1  20
ATOM     20  C   UNL     1      -1.106   3.858 -23.857  0.00  0.00    +0.043 C 
BRANCH  20  21
ATOM     21  C   UNL     1      -1.507   3.672 -25.079  0.00  0.00    +0.005 C 
BRANCH  21  22
ATOM     22  C   UNL     1      -2.670   3.140 -25.307  0.00  0.00    +0.000 C 
BRANCH  22  23
ATOM     23  C   UNL     1      -3.627   3.861 -25.810  0.00  0.00    +0.000 C 
BRANCH  23  24
ATOM     24  C   UNL     1      -4.798   3.873 -25.244  0.00  0.00    +0.000 C 
BRANCH  24  25
ATOM     25  C   UNL     1      -4.924   4.293 -24.020  0.00  0.00    +0.000 C 
BRANCH  25  26
ATOM     26  C   UNL     1      -5.568   3.572 -23.151  0.00  0.00    -0.000 C 
BRANCH  26  27
ATOM     27  C   UNL     1      -5.090   3.422 -21.950  0.00  0.00    -0.000 C 
BRANCH  27  28
ATOM     28  C   UNL     1      -4.072   2.637 -21.749  0.00  0.00    -0.000 C 
BRANCH  28  30
ATOM     29  C   UNL     1      -2.936   4.168 -20.551  0.00  0.00    +0.004 C 
ATOM     30  C   UNL     1      -3.202   2.926 -20.828  0.00  0.00    -0.003 C 
ENDBRANCH  28  30
ENDBRANCH  27  28
ENDBRANCH  26  27
ENDBRANCH  25  26
ENDBRANCH  24  25
ENDBRANCH  23  24
ENDBRANCH  22  23
ENDBRANCH  21  22
ENDBRANCH  20  21
ENDBRANCH   1  20
TORSDOF 11
ENDMDL
