MODEL 1
REMARK VINA RESULT:   -10.939      0.000      0.000
REMARK INTER + INTRA:         -11.721
REMARK INTER:                 -11.600
REMARK INTRA:                  -0.121
REMARK UNBOUND:                -0.142
REMARK  Name = ZINC000096316250
REMARK  3 active torsions:
REMARK  status: ('A' for Active; 'I' for Inactive)
REMARK    1  A    between atoms: C_1  and  O_2
REMARK    2  A    between atoms: O_2  and  C_3
REMARK    3  A    between atoms: N_18  and  C_19
REMARK                            x       y       z     vdW  Elec       q    Type
REMARK                         _______ _______ _______ _____ _____    ______ ____
ROOT
ATOM      1  C   UNL     1       1.136   1.870 -21.970  0.00  0.00    +0.163 A 
ATOM      2  C   UNL     1       1.937   2.031 -22.944  0.00  0.00    +0.065 A 
ATOM      3  C   UNL     1       1.518   2.445 -24.054  0.00  0.00    +0.025 A 
ATOM      4  C   UNL     1       0.295   2.703 -24.203  0.00  0.00    -0.021 A 
ATOM      5  C   UNL     1      -0.522   2.551 -23.249  0.00  0.00    +0.013 A 
ATOM      6  C   UNL     1      -1.742   2.809 -23.399  0.00  0.00    +0.054 C 
ATOM      7  C   UNL     1      -3.149   3.071 -23.455  0.00  0.00    +0.067 C 
ATOM      8  C   UNL     1      -3.652   3.540 -24.697  0.00  0.00    +0.132 C 
ATOM      9  N   UNL     1      -2.727   3.706 -25.759  0.00  0.00    +0.236 N 
ATOM     10  H   UNL     1      -3.026   4.040 -26.675  0.00  0.00    +0.203 HD
ATOM     11  C   UNL     1      -3.092   4.118 -26.890  0.00  0.00    +0.190 C 
ATOM     12  C   UNL     1      -1.360   3.384 -25.482  0.00  0.00    +0.073 C 
ATOM     13  C   UNL     1      -2.162   3.224 -24.511  0.00  0.00    +0.053 C 
ATOM     14  C   UNL     1      -3.398   3.485 -24.662  0.00  0.00    +0.015 C 
ATOM     15  C   UNL     1      -4.199   3.330 -23.705  0.00  0.00    +0.069 C 
ATOM     16  C   UNL     1      -3.780   2.911 -22.581  0.00  0.00    +0.208 C 
ATOM     17  O   UNL     1      -3.475   2.504 -21.432  0.00  0.00    -0.343 OA
ATOM     18  C   UNL     1      -4.523   2.472 -20.738  0.00  0.00    +0.191 C 
ATOM     19  C   UNL     1      -5.477   2.860 -21.461  0.00  0.00    +0.191 C 
ATOM     20  O   UNL     1      -5.018   3.131 -22.599  0.00  0.00    -0.343 OA
ATOM     21  C   UNL     1      -2.560   2.653 -22.430  0.00  0.00    +0.244 C 
ATOM     22  O   UNL     1      -1.466   2.173 -21.488  0.00  0.00    -0.479 OA
ATOM     23  C   UNL     1      -0.139   3.126 -25.332  0.00  0.00    +0.091 C 
ATOM     24 BR   UNL     1       2.316   2.602 -25.010  0.00  0.00    -0.050 Br
ATOM     25  C   UNL     1      -0.100   2.132 -22.125  0.00  0.00    +0.167 A 
ENDROOT
BRANCH   1  27
ATOM     26  C   UNL     1       2.797   1.442 -20.627  0.00  0.00    +0.277 C 
ATOM     27  O   UNL     1       1.562   1.455 -20.863  0.00  0.00    -0.491 OA
ENDBRANCH   1  27
TORSDOF 1
ENDMDL
