MODEL 1
REMARK VINA RESULT:    -9.343      0.000      0.000
REMARK INTER + INTRA:          -9.616
REMARK INTER:                  -9.616
REMARK INTRA:                   0.000
REMARK UNBOUND:                 0.000
REMARK  Name = ZINC000004104726
REMARK  4 active torsions:
REMARK  status: ('A' for Active; 'I' for Inactive)
REMARK    1  A    between atoms: C_1  and  C_2
REMARK    2  A    between atoms: C_2  and  C_3
REMARK    3  A    between atoms: C_9  and  C_10
REMARK    4  A    between atoms: C_9  and  O_11
REMARK                            x       y       z     vdW  Elec       q    Type
REMARK                         _______ _______ _______ _____ _____    ______ ____
ROOT
ATOM      1  C   UNL     1      -5.506   3.379 -22.136  0.00  0.00    +0.011 C 
ATOM      2  C   UNL     1      -4.339   2.958 -21.746  0.00  0.00    -0.028 C 
ATOM      3  C   UNL     1      -3.672   3.085 -22.854  0.00  0.00    +0.005 C 
ATOM      4  C   UNL     1      -3.171   3.277 -24.038  0.00  0.00    +0.034 C 
ATOM      5  C   UNL     1      -1.955   3.064 -24.449  0.00  0.00    +0.061 C 
ATOM      6  C   UNL     1      -0.941   2.607 -23.777  0.00  0.00    +0.137 C 
ATOM      7  C   UNL     1      -0.892   2.249 -22.527  0.00  0.00    +0.075 C 
ATOM      8  C   UNL     1      -1.845   2.260 -21.643  0.00  0.00    +0.012 C 
ATOM      9  O   UNL     1       0.170   2.492 -24.440  0.00  0.00    -0.297 OA
ATOM     10  C   UNL     1      -1.892   3.394 -25.705  0.00  0.00    +0.014 C 
ATOM     11  C   UNL     1      -3.068   3.811 -26.070  0.00  0.00    +0.035 C 
ATOM     12  C   UNL     1      -3.858   3.739 -25.041  0.00  0.00    +0.067 C 
ATOM     13  C   UNL     1      -4.834   3.764 -24.183  0.00  0.00    +0.041 C 
ATOM     14  C   UNL     1      -4.602   2.686 -20.502  0.00  0.00    +0.011 C 
ATOM     15  C   UNL     1      -3.081   2.632 -21.788  0.00  0.00    -0.001 C 
ENDROOT
BRANCH  12  16
ATOM     16  O   UNL     1      -4.750   4.205 -25.864  0.00  0.00    -0.389 OA
ATOM     17  H   UNL     1      -5.263   4.900 -25.422  0.00  0.00    +0.210 HD
ENDBRANCH  12  16
TORSDOF 1
ENDMDL
