MODEL 1
REMARK VINA RESULT:   -10.674      0.000      0.000
REMARK INTER + INTRA:         -11.298
REMARK INTER:                 -11.298
REMARK INTRA:                   0.000
REMARK UNBOUND:                 0.000
REMARK  Name = ZINC000000009073
REMARK  3 active torsions:
REMARK  status: ('A' for Active; 'I' for Inactive)
REMARK    1  A    between atoms: C_1  and  N_2
REMARK    2  A    between atoms: C_16  and  O_17
REMARK    3  A    between atoms: C_18  and  O_19
REMARK                            x       y       z     vdW  Elec       q    Type
REMARK                         _______ _______ _______ _____ _____    ______ ____
ROOT
ATOM      1  C   UNL     1      -4.158   2.643 -20.381  0.00  0.00    +0.191 C 
ATOM      2  N   UNL     1      -4.244   2.980 -21.634  0.00  0.00    +0.239 N 
ATOM      3  H   UNL     1      -4.707   2.847 -20.735  0.00  0.00    +0.204 HD
ATOM      4  C   UNL     1      -5.387   3.344 -22.132  0.00  0.00    +0.136 C 
ATOM      5  C   UNL     1      -5.474   3.682 -23.385  0.00  0.00    +0.086 C 
ATOM      6  C   UNL     1      -4.415   3.655 -24.139  0.00  0.00    -0.033 A 
ATOM      7  C   UNL     1      -4.501   3.993 -25.391  0.00  0.00    +0.004 A 
ATOM      8  C   UNL     1      -3.443   3.967 -26.146  0.00  0.00    +0.001 A 
ATOM      9  C   UNL     1      -2.298   3.602 -25.648  0.00  0.00    +0.009 A 
ATOM     10  C   UNL     1      -2.213   3.265 -24.396  0.00  0.00    -0.005 A 
ATOM     11  C   UNL     1      -1.068   2.900 -23.897  0.00  0.00    +0.031 A 
ATOM     12  C   UNL     1      -0.010   2.874 -24.652  0.00  0.00    +0.166 A 
ATOM     13  C   UNL     1       1.134   2.510 -24.154  0.00  0.00    +0.159 A 
ATOM     14  C   UNL     1       1.221   2.172 -22.901  0.00  0.00    +0.049 A 
ATOM     15  C   UNL     1       0.162   2.199 -22.147  0.00  0.00    +0.008 A 
ATOM     16  C   UNL     1      -0.982   2.563 -22.645  0.00  0.00    -0.030 A 
ATOM     17  C   UNL     1      -2.041   2.590 -21.891  0.00  0.00    +0.095 C 
ATOM     18  C   UNL     1      -3.271   3.291 -23.641  0.00  0.00    +0.012 A 
ATOM     19  C   UNL     1      -3.184   2.954 -22.389  0.00  0.00    +0.100 C 
ENDROOT
BRANCH  12  20
ATOM     20  O   UNL     1      -0.096   3.212 -25.904  0.00  0.00    -0.503 OA
ATOM     21  H   UNL     1       0.641   3.597 -26.337  0.00  0.00    +0.292 HD
ENDBRANCH  12  20
BRANCH  13  22
ATOM     22  O   UNL     1       2.192   2.483 -24.908  0.00  0.00    -0.503 OA
ATOM     23  H   UNL     1       2.107   2.333 -25.830  0.00  0.00    +0.292 HD
ENDBRANCH  13  22
TORSDOF 2
ENDMDL
