MODEL 1
REMARK VINA RESULT:    -8.437      0.000      0.000
REMARK INTER + INTRA:          -8.683
REMARK INTER:                  -8.683
REMARK INTRA:                   0.000
REMARK UNBOUND:                 0.000
REMARK  Name = ZINC000000265484
REMARK  1 active torsions:
REMARK  status: ('A' for Active; 'I' for Inactive)
REMARK    1  A    between atoms: C_14  and  O_15
REMARK                            x       y       z     vdW  Elec       q    Type
REMARK                         _______ _______ _______ _____ _____    ______ ____
ROOT
ATOM      1  O   UNL     1      -1.869   3.711 -25.178  0.00  0.00    -0.267 OA
ATOM      2  C   UNL     1      -2.003   3.243 -23.972  0.00  0.00    +0.262 A 
ATOM      3  C   UNL     1      -3.167   3.261 -23.394  0.00  0.00    +0.065 A 
ATOM      4  C   UNL     1      -4.197   3.746 -24.021  0.00  0.00    +0.015 A 
ATOM      5  C   UNL     1      -5.361   3.764 -23.442  0.00  0.00    +0.001 A 
ATOM      6  C   UNL     1      -5.495   3.296 -22.237  0.00  0.00    +0.002 A 
ATOM      7  C   UNL     1      -4.465   2.811 -21.610  0.00  0.00    +0.028 A 
ATOM      8  C   UNL     1      -3.300   2.793 -22.188  0.00  0.00    +0.078 A 
ATOM      9  N   UNL     1      -2.270   2.308 -21.561  0.00  0.00    -0.231 NA
ATOM     10  C   UNL     1      -1.107   2.290 -22.140  0.00  0.00    +0.142 A 
ATOM     11  C   UNL     1       0.057   1.869 -21.741  0.00  0.00    +0.182 C 
ATOM     12  C   UNL     1       0.910   2.077 -22.700  0.00  0.00    +0.061 C 
ATOM     13  C   UNL     1       0.274   2.626 -23.691  0.00  0.00    +0.129 C 
ATOM     14  N   UNL     1      -0.973   2.758 -23.345  0.00  0.00    -0.294 N 
ENDROOT
BRANCH  11  15
ATOM     15  O   UNL     1       0.321   1.335 -20.586  0.00  0.00    -0.384 OA
ATOM     16  H   UNL     1      -0.508   1.096 -20.142  0.00  0.00    +0.210 HD
ENDBRANCH  11  15
TORSDOF 1
ENDMDL
