MODEL 1
REMARK VINA RESULT:   -10.026      0.000      0.000
REMARK INTER + INTRA:         -10.026
REMARK INTER:                 -10.026
REMARK INTRA:                   0.000
REMARK UNBOUND:                 0.000
REMARK  Name = ZINC000004104820
REMARK  3 active torsions:
REMARK  status: ('A' for Active; 'I' for Inactive)
REMARK    1  A    between atoms: C_1  and  C_2
REMARK    2  A    between atoms: C_10  and  C_11
REMARK    3  A    between atoms: C_16  and  C_17
REMARK                            x       y       z     vdW  Elec       q    Type
REMARK                         _______ _______ _______ _____ _____    ______ ____
ROOT
ATOM      1  C   UNL     1      -0.695   2.014 -21.265  0.00  0.00    +0.019 C 
ATOM      2  C   UNL     1      -0.503   2.316 -22.514  0.00  0.00    +0.101 C 
ATOM      3  C   UNL     1       0.624   2.232 -23.157  0.00  0.00    +0.311 C 
ATOM      4  O   UNL     1       0.419   2.619 -24.380  0.00  0.00    -0.458 OA
ATOM      5  C   UNL     1      -0.835   2.942 -24.494  0.00  0.00    +0.212 C 
ATOM      6  C   UNL     1      -1.532   3.383 -25.499  0.00  0.00    +0.191 C 
ATOM      7  O   UNL     1      -2.229   3.824 -26.505  0.00  0.00    -0.361 OA
ATOM      8  C   UNL     1      -2.798   3.637 -25.351  0.00  0.00    +0.097 C 
ATOM      9  C   UNL     1      -3.932   4.038 -25.846  0.00  0.00    +0.044 C 
ATOM     10  C   UNL     1      -3.368   3.449 -24.198  0.00  0.00    +0.040 C 
ATOM     11  C   UNL     1      -4.635   3.703 -24.050  0.00  0.00    +0.037 C 
ATOM     12  C   UNL     1      -5.204   3.515 -22.896  0.00  0.00    +0.151 C 
ATOM     13  O   UNL     1      -5.774   3.328 -21.743  0.00  0.00    -0.365 OA
ATOM     14  C   UNL     1      -4.508   3.074 -21.891  0.00  0.00    +0.093 C 
ATOM     15  C   UNL     1      -4.434   2.711 -20.645  0.00  0.00    +0.044 C 
ATOM     16  C   UNL     1      -3.241   2.821 -22.039  0.00  0.00    +0.038 C 
ATOM     17  C   UNL     1      -2.672   3.009 -23.193  0.00  0.00    +0.011 C 
ATOM     18  O   UNL     1       1.758   1.831 -22.662  0.00  0.00    -0.251 OA
ATOM     19  C   UNL     1      -1.405   2.755 -23.341  0.00  0.00    +0.046 C 
ENDROOT
TORSDOF 0
ENDMDL
