MODEL 1
REMARK VINA RESULT:   -10.406      0.000      0.000
REMARK INTER + INTRA:         -10.406
REMARK INTER:                 -10.406
REMARK INTRA:                   0.000
REMARK UNBOUND:                 0.000
REMARK  Name = ZINC000019816057
REMARK  2 active torsions:
REMARK  status: ('A' for Active; 'I' for Inactive)
REMARK    1  A    between atoms: C_1  and  C_2
REMARK    2  A    between atoms: C_14  and  C_15
REMARK                            x       y       z     vdW  Elec       q    Type
REMARK                         _______ _______ _______ _____ _____    ______ ____
ROOT
ATOM      1  C   UNL     1      -2.253   3.282 -23.687  0.00  0.00    +0.039 C 
ATOM      2  C   UNL     1      -1.998   3.648 -24.510  0.00  0.00    -0.069 C 
ATOM      3  C   UNL     1      -0.636   3.616 -25.075  0.00  0.00    -0.027 C 
ATOM      4  C   UNL     1       0.635   2.950 -24.379  0.00  0.00    +0.030 C 
ATOM      5  C   UNL     1       0.589   2.287 -23.081  0.00  0.00    +0.053 C 
ATOM      6  C   UNL     1      -0.436   2.388 -22.805  0.00  0.00    +0.196 C 
ATOM      7  O   UNL     1      -0.431   2.988 -23.960  0.00  0.00    -0.349 OA
ATOM      8  C   UNL     1      -0.703   1.851 -21.647  0.00  0.00    +0.343 C 
ATOM      9  O   UNL     1       0.147   1.244 -20.870  0.00  0.00    -0.247 OA
ATOM     10  O   UNL     1      -1.972   2.031 -21.409  0.00  0.00    -0.452 OA
ATOM     11  C   UNL     1      -2.489   2.679 -22.418  0.00  0.00    +0.242 C 
ATOM     12  C   UNL     1      -3.518   3.043 -22.644  0.00  0.00    +0.039 A 
ATOM     13  C   UNL     1      -4.513   2.855 -21.826  0.00  0.00    -0.006 A 
ATOM     14  C   UNL     1      -5.581   3.385 -22.354  0.00  0.00    +0.199 A 
ATOM     15  O   UNL     1      -5.244   3.903 -23.506  0.00  0.00    -0.467 OA
ATOM     16  C   UNL     1      -4.432   2.239 -20.676  0.00  0.00    +0.047 C 
ATOM     17  C   UNL     1      -3.972   3.695 -23.690  0.00  0.00    +0.116 A 
ATOM     18  C   UNL     1      -1.537   2.897 -23.277  0.00  0.00    +0.208 C 
ATOM     19  C   UNL     1      -3.031   4.067 -24.840  0.00  0.00    +0.105 C 
ENDROOT
TORSDOF 0
ENDMDL
