MODEL 1
REMARK VINA RESULT:    -8.789      0.000      0.000
REMARK INTER + INTRA:         -12.735
REMARK INTER:                 -12.232
REMARK INTRA:                  -0.503
REMARK UNBOUND:                -0.092
REMARK  Name = ZINC000000155939
REMARK  8 active torsions:
REMARK  status: ('A' for Active; 'I' for Inactive)
REMARK    1  A    between atoms: C_2  and  O_16
REMARK    2  A    between atoms: N_3  and  CA_4
REMARK    3  A    between atoms: CA_4  and  CB_5
REMARK    4  A    between atoms: CA_4  and  C_13
REMARK    5  A    between atoms: CB_5  and  CG_6
REMARK    6  A    between atoms: CZ_9  and  OH_10
REMARK    7  A    between atoms: O_16  and  C_17
REMARK    8  A    between atoms: C_17  and  C_18
REMARK                            x       y       z     vdW  Elec       q    Type
REMARK                         _______ _______ _______ _____ _____    ______ ____
ROOT
ATOM      1  CA  TYR A   1       1.443   3.017 -23.570  0.00  0.00    +0.126 C 
ENDROOT
BRANCH   1   4
ATOM      2  O   UNK A   0      -0.871   1.870 -23.871  0.00  0.00    -0.226 OA
ATOM      3  C   UNK A   0      -0.539   2.374 -22.718  0.00  0.00    +0.401 C 
ATOM      4  N   TYR A   1       0.618   2.947 -22.569  0.00  0.00    -0.273 N 
ATOM      5  H   TYR A   1       0.868   3.329 -21.697  0.00  0.00    +0.153 HD
BRANCH   3   6
ATOM      6  O   UNK A   0      -1.365   2.305 -21.717  0.00  0.00    -0.446 OA
BRANCH   6   7
ATOM      7  C   UNK A   0      -2.146   3.309 -21.447  0.00  0.00    +0.269 C 
BRANCH   7   8
ATOM      8  C   UNK A   0      -3.402   3.265 -21.780  0.00  0.00    -0.010 A 
ATOM      9  C   UNK A   0      -4.265   2.698 -20.990  0.00  0.00    +0.007 A 
ATOM     10  C   UNK A   0      -5.520   2.654 -21.323  0.00  0.00    +0.000 A 
ATOM     11  C   UNK A   0      -5.913   3.177 -22.447  0.00  0.00    +0.000 A 
ATOM     12  C   UNK A   0      -5.050   3.744 -23.237  0.00  0.00    +0.000 A 
ATOM     13  C   UNK A   0      -3.794   3.788 -22.903  0.00  0.00    +0.007 A 
ENDBRANCH   7   8
ENDBRANCH   6   7
ENDBRANCH   3   6
ENDBRANCH   1   4
BRANCH   1  14
ATOM     14  C   TYR A   1       1.363   4.004 -24.412  0.00  0.00    +0.062 C 
ATOM     15  OXT TYR A   1       1.270   5.225 -23.975  0.00  0.00    -0.548 OA
ATOM     16  O   TYR A   1       1.376   3.771 -25.691  0.00  0.00    -0.548 OA
ENDBRANCH   1  14
BRANCH   1  17
ATOM     17  CB  TYR A   1       2.350   2.099 -23.731  0.00  0.00    +0.063 C 
BRANCH  17  18
ATOM     18  CG  TYR A   1       3.180   1.829 -22.768  0.00  0.00    -0.045 A 
ATOM     19  CD2 TYR A   1       3.042   0.736 -22.077  0.00  0.00    +0.007 A 
ATOM     20  CE2 TYR A   1       3.872   0.466 -21.114  0.00  0.00    +0.045 A 
ATOM     21  CZ  TYR A   1       4.841   1.289 -20.842  0.00  0.00    +0.117 A 
ATOM     22  CE1 TYR A   1       4.979   2.382 -21.532  0.00  0.00    +0.045 A 
ATOM     23  CD1 TYR A   1       4.149   2.652 -22.496  0.00  0.00    +0.007 A 
BRANCH  21  24
ATOM     24  OH  TYR A   1       5.672   1.020 -19.878  0.00  0.00    -0.507 OA
ATOM     25  HH  TYR A   1       6.293   1.664 -19.602  0.00  0.00    +0.292 HD
ENDBRANCH  21  24
ENDBRANCH  17  18
ENDBRANCH   1  17
TORSDOF 8
ENDMDL
