MODEL 1
REMARK VINA RESULT:    -9.097      0.000      0.000
REMARK INTER + INTRA:         -10.994
REMARK INTER:                 -11.611
REMARK INTRA:                   0.616
REMARK UNBOUND:                 1.559
REMARK  Name = ZINC000005733763
REMARK  12 active torsions:
REMARK  status: ('A' for Active; 'I' for Inactive)
REMARK    1  A    between atoms: C_1  and  O_2
REMARK    2  A    between atoms: O_2  and  C_3
REMARK    3  A    between atoms: C_6  and  C_7
REMARK    4  A    between atoms: C_11  and  O_12
REMARK    5  A    between atoms: O_12  and  C_13
REMARK    6  A    between atoms: C_14  and  O_15
REMARK    7  A    between atoms: O_15  and  C_16
REMARK    8  A    between atoms: C_17  and  O_18
REMARK    9  A    between atoms: C_22  and  O_23
REMARK   10  A    between atoms: O_23  and  C_24
REMARK   11  A    between atoms: C_26  and  O_27
REMARK   12  A    between atoms: O_27  and  C_28
REMARK                            x       y       z     vdW  Elec       q    Type
REMARK                         _______ _______ _______ _____ _____    ______ ____
ROOT
ATOM      1  C   UNL     1       0.715   3.173 -23.096  0.00  0.00    +0.181 A 
ATOM      2  O   UNL     1       1.608   4.108 -23.238  0.00  0.00    -0.451 OA
ATOM      3  C   UNL     1       2.858   3.856 -22.986  0.00  0.00    +0.147 A 
ATOM      4  C   UNL     1       3.751   4.791 -23.129  0.00  0.00    +0.096 A 
ATOM      5  C   UNL     1       5.001   4.539 -22.877  0.00  0.00    +0.169 A 
ATOM      6  C   UNL     1       5.359   3.353 -22.482  0.00  0.00    +0.204 A 
ATOM      7  C   UNL     1       4.467   2.419 -22.340  0.00  0.00    +0.177 A 
ATOM      8  C   UNL     1       3.216   2.670 -22.592  0.00  0.00    +0.113 A 
ATOM      9  C   UNL     1       2.324   1.735 -22.449  0.00  0.00    +0.238 A 
ATOM     10  O   UNL     1       2.681   0.550 -22.055  0.00  0.00    -0.283 OA
ATOM     11  C   UNL     1       1.073   1.987 -22.701  0.00  0.00    +0.211 A 
ENDROOT
BRANCH   1  15
ATOM     12  C   UNL     1      -3.035   3.926 -23.853  0.00  0.00    +0.162 A 
ATOM     13  C   UNL     1      -2.207   3.706 -24.829  0.00  0.00    +0.050 A 
ATOM     14  C   UNL     1      -0.956   3.455 -24.577  0.00  0.00    +0.015 A 
ATOM     15  C   UNL     1      -0.534   3.424 -23.348  0.00  0.00    +0.025 A 
ATOM     16  C   UNL     1      -1.364   3.644 -22.370  0.00  0.00    +0.061 A 
ATOM     17  C   UNL     1      -2.614   3.894 -22.623  0.00  0.00    +0.162 A 
BRANCH  12  19
ATOM     18  C   UNL     1      -4.805   3.814 -25.241  0.00  0.00    +0.277 C 
ATOM     19  O   UNL     1      -4.286   4.176 -24.105  0.00  0.00    -0.491 OA
ENDBRANCH  12  19
BRANCH  17  20
ATOM     20  O   UNL     1      -3.443   4.114 -21.646  0.00  0.00    -0.491 OA
ATOM     21  C   UNL     1      -3.127   3.764 -20.434  0.00  0.00    +0.277 C 
ENDBRANCH  17  20
ENDBRANCH   1  15
BRANCH   7  22
ATOM     22  O   UNL     1       4.824   1.233 -21.945  0.00  0.00    -0.503 OA
ATOM     23  H   UNL     1       4.732   0.991 -21.045  0.00  0.00    +0.292 HD
ENDBRANCH   7  22
BRANCH   6  24
ATOM     24  O   UNL     1       6.609   3.101 -22.230  0.00  0.00    -0.488 OA
ATOM     25  C   UNL     1       7.445   2.918 -23.209  0.00  0.00    +0.277 C 
ENDBRANCH   6  24
BRANCH   5  26
ATOM     26  O   UNL     1       5.893   5.473 -23.020  0.00  0.00    -0.491 OA
ATOM     27  C   UNL     1       6.063   6.358 -22.082  0.00  0.00    +0.277 C 
ENDBRANCH   5  26
BRANCH  11  28
ATOM     28  O   UNL     1       0.181   1.052 -22.558  0.00  0.00    -0.488 OA
ATOM     29  C   UNL     1      -0.462   0.934 -21.434  0.00  0.00    +0.277 C 
ENDBRANCH  11  28
TORSDOF 7
ENDMDL
