MODEL 1
REMARK VINA RESULT:    -9.998      0.000      0.000
REMARK INTER + INTRA:          -9.998
REMARK INTER:                  -9.998
REMARK INTRA:                   0.000
REMARK UNBOUND:                 0.000
REMARK  Name = ZINC000004104818
REMARK  3 active torsions:
REMARK  status: ('A' for Active; 'I' for Inactive)
REMARK    1  A    between atoms: C_1  and  C_2
REMARK    2  A    between atoms: C_10  and  C_11
REMARK    3  A    between atoms: C_16  and  C_17
REMARK                            x       y       z     vdW  Elec       q    Type
REMARK                         _______ _______ _______ _____ _____    ______ ____
ROOT
ATOM      1  C   UNL     1      -0.698   2.001 -21.256  0.00  0.00    +0.019 C 
ATOM      2  C   UNL     1      -0.543   2.303 -22.510  0.00  0.00    +0.101 C 
ATOM      3  C   UNL     1       0.565   2.225 -23.185  0.00  0.00    +0.311 C 
ATOM      4  O   UNL     1       0.323   2.610 -24.402  0.00  0.00    -0.458 OA
ATOM      5  C   UNL     1      -0.935   2.926 -24.481  0.00  0.00    +0.212 C 
ATOM      6  C   UNL     1      -1.663   3.361 -25.466  0.00  0.00    +0.191 C 
ATOM      7  O   UNL     1      -2.391   3.797 -26.452  0.00  0.00    -0.361 OA
ATOM      8  C   UNL     1      -2.926   3.608 -25.283  0.00  0.00    +0.097 C 
ATOM      9  C   UNL     1      -4.075   4.001 -25.745  0.00  0.00    +0.044 C 
ATOM     10  C   UNL     1      -3.461   3.418 -24.113  0.00  0.00    +0.040 C 
ATOM     11  C   UNL     1      -4.725   3.665 -23.930  0.00  0.00    +0.037 C 
ATOM     12  C   UNL     1      -5.261   3.475 -22.760  0.00  0.00    +0.151 C 
ATOM     13  O   UNL     1      -5.796   3.285 -21.591  0.00  0.00    -0.365 OA
ATOM     14  C   UNL     1      -4.533   3.039 -21.775  0.00  0.00    +0.093 C 
ATOM     15  C   UNL     1      -4.422   2.678 -20.531  0.00  0.00    +0.044 C 
ATOM     16  C   UNL     1      -3.270   2.793 -21.959  0.00  0.00    +0.038 C 
ATOM     17  C   UNL     1      -2.735   2.982 -23.128  0.00  0.00    +0.011 C 
ATOM     18  O   UNL     1       1.715   1.832 -22.722  0.00  0.00    -0.251 OA
ATOM     19  C   UNL     1      -1.471   2.736 -23.312  0.00  0.00    +0.046 C 
ENDROOT
TORSDOF 0
ENDMDL
