MODEL 1
REMARK VINA RESULT:    -7.477      0.000      0.000
REMARK INTER + INTRA:          -9.810
REMARK INTER:                  -9.609
REMARK INTRA:                  -0.201
REMARK UNBOUND:                -0.148
REMARK  Name = ZINC000000399556
REMARK  7 active torsions:
REMARK  status: ('A' for Active; 'I' for Inactive)
REMARK    1  A    between atoms: CD1_1  and  CG_2
REMARK    2  A    between atoms: CG_2  and  CD2_3
REMARK    3  A    between atoms: CG_2  and  CB_4
REMARK    4  A    between atoms: CB_4  and  CA_5
REMARK    5  A    between atoms: CA_5  and  N_6
REMARK    6  A    between atoms: CA_5  and  C_15
REMARK    7  A    between atoms: C_7  and  C_9
REMARK                            x       y       z     vdW  Elec       q    Type
REMARK                         _______ _______ _______ _____ _____    ______ ____
ROOT
ATOM      1  N   LEU A   1       0.162   2.647 -22.108  0.00  0.00    -0.303 N 
ATOM      2  H   LEU A   1       0.154   3.102 -21.235  0.00  0.00    +0.150 HD
ATOM      3  C   UNK A   0      -0.952   2.450 -22.749  0.00  0.00    +0.245 C 
ATOM      4  O   UNK A   0      -0.941   1.849 -23.903  0.00  0.00    -0.270 OA
ENDROOT
BRANCH   3   5
ATOM      5  C   UNK A   0      -2.076   2.853 -22.237  0.00  0.00    +0.037 A 
ATOM      6  C   UNK A   0      -2.145   3.153 -20.974  0.00  0.00    +0.013 A 
ATOM      7  C   UNK A   0      -3.270   3.556 -20.462  0.00  0.00    +0.001 A 
ATOM      8  C   UNK A   0      -4.326   3.660 -21.213  0.00  0.00    +0.000 A 
ATOM      9  C   UNK A   0      -4.257   3.360 -22.476  0.00  0.00    +0.001 A 
ATOM     10  C   UNK A   0      -3.132   2.957 -22.988  0.00  0.00    +0.013 A 
ENDBRANCH   3   5
BRANCH   1  11
ATOM     11  CA  LEU A   1       1.287   2.244 -22.621  0.00  0.00    +0.119 C 
BRANCH  11  12
ATOM     12  C   LEU A   1       1.895   1.209 -22.121  0.00  0.00    +0.062 C 
ATOM     13  OXT LEU A   1       2.144   1.154 -20.846  0.00  0.00    -0.548 OA
ATOM     14  O   LEU A   1       2.254   0.229 -22.896  0.00  0.00    -0.548 OA
ENDBRANCH  11  12
BRANCH  11  15
ATOM     15  CB  LEU A   1       1.803   2.875 -23.633  0.00  0.00    +0.031 C 
BRANCH  15  17
ATOM     16  CD1 LEU A   1       1.910   5.111 -23.388  0.00  0.00    +0.007 C 
ATOM     17  CG  LEU A   1       2.501   3.954 -23.439  0.00  0.00    -0.015 C 
ATOM     18  CD2 LEU A   1       3.791   3.877 -23.295  0.00  0.00    +0.007 C 
ENDBRANCH  15  17
ENDBRANCH  11  15
ENDBRANCH   1  11
TORSDOF 5
ENDMDL
