MODEL 1
REMARK VINA RESULT:   -10.700      0.000      0.000
REMARK INTER + INTRA:         -11.013
REMARK INTER:                 -11.013
REMARK INTRA:                   0.000
REMARK UNBOUND:                 0.000
REMARK  Name = C=C1C(=O)O[C@@H]2C=C(C)[C@H](O)CC=C(C)CC[C@H]12                      ZINC001081701744
REMARK  3 active torsions:
REMARK  status: ('A' for Active; 'I' for Inactive)
REMARK    1  A    between atoms: C_8  and  C_9
REMARK    2  A    between atoms: C_10  and  O_11
REMARK    3  A    between atoms: C_14  and  C_15
REMARK                            x       y       z     vdW  Elec       q    Type
REMARK                         _______ _______ _______ _____ _____    ______ ____
ROOT
ATOM      1  C   UNL     1       0.549   1.508 -21.129  0.00  0.00    +0.020 C 
ATOM      2  C   UNL     1      -0.154   1.962 -22.124  0.00  0.00    +0.036 C 
ATOM      3  C   UNL     1       0.271   2.144 -23.339  0.00  0.00    +0.336 C 
ATOM      4  O   UNL     1      -0.719   2.608 -24.043  0.00  0.00    -0.453 OA
ATOM      5  C   UNL     1      -1.754   2.712 -23.265  0.00  0.00    +0.207 C 
ATOM      6  C   UNL     1      -2.969   3.119 -23.482  0.00  0.00    +0.019 C 
ATOM      7  C   UNL     1      -3.317   3.518 -24.669  0.00  0.00    -0.045 C 
ATOM      8  C   UNL     1      -4.532   3.926 -24.889  0.00  0.00    +0.144 C 
ATOM      9  C   UNL     1      -5.399   3.934 -23.920  0.00  0.00    +0.063 C 
ATOM     10  C   UNL     1      -5.052   3.535 -22.733  0.00  0.00    -0.025 C 
ATOM     11  C   UNL     1      -3.836   3.128 -22.515  0.00  0.00    -0.076 C 
ATOM     12  C   UNL     1      -3.488   2.728 -21.328  0.00  0.00    +0.031 C 
ATOM     13  C   UNL     1      -2.272   2.321 -21.110  0.00  0.00    +0.016 C 
ATOM     14  C   UNL     1      -4.703   3.135 -21.546  0.00  0.00    +0.039 C 
ATOM     15  C   UNL     1      -2.449   3.510 -25.638  0.00  0.00    +0.041 C 
ATOM     16  O   UNL     1       1.472   1.905 -23.772  0.00  0.00    -0.245 OA
ATOM     17  C   UNL     1      -1.405   2.313 -22.078  0.00  0.00    +0.070 C 
ENDROOT
BRANCH   8  18
ATOM     18  O   UNL     1      -4.881   4.325 -26.076  0.00  0.00    -0.387 OA
ATOM     19  H   UNL     1      -4.164   4.849 -26.465  0.00  0.00    +0.210 HD
ENDBRANCH   8  18
TORSDOF 1
ENDMDL
