MODEL 1
REMARK VINA RESULT:    -9.642      0.000      0.000
REMARK INTER + INTRA:         -11.355
REMARK INTER:                 -11.036
REMARK INTRA:                  -0.319
REMARK UNBOUND:                -0.303
REMARK  Name = ZINC000000338222
REMARK  5 active torsions:
REMARK  status: ('A' for Active; 'I' for Inactive)
REMARK    1  A    between atoms: C_1  and  O_2
REMARK    2  A    between atoms: O_2  and  C_3
REMARK    3  A    between atoms: C_7  and  C_8
REMARK    4  A    between atoms: C_18  and  O_19
REMARK    5  A    between atoms: C_20  and  C_21
REMARK                            x       y       z     vdW  Elec       q    Type
REMARK                         _______ _______ _______ _____ _____    ______ ____
ROOT
ATOM      1  C   UNL     1       2.562   1.349 -22.241  0.00  0.00    +0.130 A 
ATOM      2  C   UNL     1       1.284   1.279 -22.014  0.00  0.00    +0.093 A 
ATOM      3  C   UNL     1       0.508   2.260 -22.367  0.00  0.00    +0.146 A 
ATOM      4  O   UNL     1      -0.771   2.191 -22.140  0.00  0.00    -0.454 OA
ATOM      5  C   UNL     1      -1.547   3.173 -22.493  0.00  0.00    +0.139 A 
ATOM      6  C   UNL     1      -1.046   4.223 -23.072  0.00  0.00    +0.098 A 
ATOM      7  C   UNL     1       0.232   4.292 -23.298  0.00  0.00    +0.197 A 
ATOM      8  O   UNL     1       0.735   5.342 -23.877  0.00  0.00    -0.287 OA
ATOM      9  C   UNL     1       1.010   3.311 -22.946  0.00  0.00    +0.106 A 
ATOM     10  C   UNL     1       2.287   3.380 -23.172  0.00  0.00    +0.138 A 
ATOM     11  C   UNL     1       3.064   2.399 -22.819  0.00  0.00    +0.033 A 
ATOM     12  C   UNL     1       4.343   2.468 -23.046  0.00  0.00    +0.051 C 
ENDROOT
BRANCH   5  13
ATOM     13  C   UNL     1      -2.825   3.102 -22.266  0.00  0.00    +0.017 A 
ATOM     14  C   UNL     1      -3.262   2.560 -21.167  0.00  0.00    +0.011 A 
ATOM     15  C   UNL     1      -4.539   2.490 -20.939  0.00  0.00    +0.001 A 
ATOM     16  C   UNL     1      -5.381   2.961 -21.810  0.00  0.00    +0.000 A 
ATOM     17  C   UNL     1      -4.946   3.503 -22.909  0.00  0.00    +0.001 A 
ATOM     18  C   UNL     1      -3.668   3.574 -23.137  0.00  0.00    +0.011 A 
ENDBRANCH   5  13
BRANCH   1  20
ATOM     19  C   UNL     1       3.781   0.294 -20.668  0.00  0.00    +0.277 C 
ATOM     20  O   UNL     1       3.339   0.367 -21.888  0.00  0.00    -0.495 OA
ENDBRANCH   1  20
BRANCH  10  21
ATOM     21  O   UNL     1       2.789   4.431 -23.751  0.00  0.00    -0.506 OA
ATOM     22  H   UNL     1       3.712   4.487 -23.901  0.00  0.00    +0.292 HD
ENDBRANCH  10  21
TORSDOF 3
ENDMDL
