MODEL 1
REMARK VINA RESULT:    -6.808      0.000      0.000
REMARK INTER + INTRA:          -7.868
REMARK INTER:                  -8.666
REMARK INTRA:                   0.798
REMARK UNBOUND:                 0.532
REMARK  Name = ZINC000001104937
REMARK  10 active torsions:
REMARK  status: ('A' for Active; 'I' for Inactive)
REMARK    1  A    between atoms: C_1  and  O_2
REMARK    2  A    between atoms: O_2  and  C_3
REMARK    3  A    between atoms: C_6  and  C_7
REMARK    4  A    between atoms: C_12  and  O_13
REMARK    5  A    between atoms: O_13  and  C_14
REMARK    6  A    between atoms: C_15  and  O_16
REMARK    7  A    between atoms: O_16  and  C_17
REMARK    8  A    between atoms: C_21  and  O_22
REMARK    9  A    between atoms: O_22  and  C_23
REMARK   10  A    between atoms: N_26  and  C_27
REMARK                            x       y       z     vdW  Elec       q    Type
REMARK                         _______ _______ _______ _____ _____    ______ ____
ROOT
ATOM      1  C   UNL     1       0.866   1.630 -21.844  0.00  0.00    +0.162 A 
ATOM      2  C   UNL     1      -0.309   1.805 -21.317  0.00  0.00    +0.058 A 
ATOM      3  C   UNL     1      -1.288   2.253 -22.045  0.00  0.00    -0.009 A 
ATOM      4  C   UNL     1      -2.463   2.429 -21.518  0.00  0.00    -0.021 A 
ATOM      5  C   UNL     1      -3.442   2.877 -22.247  0.00  0.00    +0.041 A 
ATOM      6  C   UNL     1      -3.246   3.150 -23.503  0.00  0.00    +0.011 A 
ATOM      7  C   UNL     1      -4.225   3.598 -24.231  0.00  0.00    -0.033 A 
ATOM      8  C   UNL     1      -5.400   3.774 -23.704  0.00  0.00    +0.055 C 
ATOM      9  C   UNL     1      -5.596   3.501 -22.448  0.00  0.00    +0.109 C 
ATOM     10  C   UNL     1      -4.028   3.871 -25.487  0.00  0.00    +0.053 A 
ATOM     11  C   UNL     1      -2.853   3.696 -26.014  0.00  0.00    +0.162 A 
ATOM     12  C   UNL     1      -1.874   3.247 -25.286  0.00  0.00    +0.170 A 
ATOM     13  C   UNL     1      -2.070   2.975 -24.030  0.00  0.00    +0.037 A 
ATOM     14  N   UNL     1      -4.618   3.053 -21.719  0.00  0.00    -0.332 N 
ATOM     15  C   UNL     1      -4.814   2.780 -20.464  0.00  0.00    +0.129 C 
ATOM     16  C   UNL     1      -2.659   2.156 -20.263  0.00  0.00    +0.046 C 
ATOM     17  C   UNL     1      -1.091   2.526 -23.302  0.00  0.00    -0.002 A 
ATOM     18  C   UNL     1       0.084   2.351 -23.829  0.00  0.00    +0.058 A 
ATOM     19  C   UNL     1       1.063   1.902 -23.100  0.00  0.00    +0.162 A 
ENDROOT
BRANCH   1  21
ATOM     20  C   UNL     1       1.996   1.608 -19.897  0.00  0.00    +0.277 C 
ATOM     21  O   UNL     1       1.845   1.181 -21.116  0.00  0.00    -0.491 OA
ENDBRANCH   1  21
BRANCH  12  22
ATOM     22  O   UNL     1      -0.699   3.072 -25.813  0.00  0.00    -0.491 OA
ATOM     23  C   UNL     1       0.111   4.080 -25.946  0.00  0.00    +0.277 C 
ENDBRANCH  12  22
BRANCH  11  24
ATOM     24  O   UNL     1      -2.657   3.968 -27.270  0.00  0.00    -0.491 OA
ATOM     25  C   UNL     1      -3.424   3.442 -28.177  0.00  0.00    +0.277 C 
ENDBRANCH  11  24
BRANCH  19  26
ATOM     26  O   UNL     1       2.238   1.727 -23.628  0.00  0.00    -0.491 OA
ATOM     27  C   UNL     1       2.941   2.753 -24.005  0.00  0.00    +0.277 C 
ENDBRANCH  19  26
TORSDOF 4
ENDMDL
