MODEL 1
REMARK VINA RESULT:   -11.774      0.000      0.000
REMARK INTER + INTRA:         -12.119
REMARK INTER:                 -12.119
REMARK INTRA:                   0.000
REMARK UNBOUND:                 0.000
REMARK  Name = ZINC000003814360
REMARK  3 active torsions:
REMARK  status: ('A' for Active; 'I' for Inactive)
REMARK    1  A    between atoms: C_1  and  C_2
REMARK    2  A    between atoms: C_15  and  C_16
REMARK    3  A    between atoms: C_20  and  O_21
REMARK                            x       y       z     vdW  Elec       q    Type
REMARK                         _______ _______ _______ _____ _____    ______ ____
ROOT
ATOM      1  C   UNL     1      -4.905   3.125 -21.953  0.00  0.00    +0.014 C 
ATOM      2  C   UNL     1      -3.984   3.298 -22.854  0.00  0.00    -0.003 C 
ATOM      3  C   UNL     1      -3.557   2.735 -21.764  0.00  0.00    +0.010 C 
ATOM      4  C   UNL     1      -2.306   2.399 -21.652  0.00  0.00    +0.005 C 
ATOM      5  C   UNL     1      -1.482   2.628 -22.631  0.00  0.00    -0.001 C 
ATOM      6  C   UNL     1      -1.909   3.191 -23.722  0.00  0.00    -0.004 C 
ATOM      7  C   UNL     1      -1.086   3.420 -24.701  0.00  0.00    +0.004 C 
ATOM      8  C   UNL     1       0.166   3.085 -24.589  0.00  0.00    +0.005 C 
ATOM      9  C   UNL     1       0.593   2.521 -23.499  0.00  0.00    +0.002 C 
ATOM     10  C   UNL     1       1.844   2.186 -23.387  0.00  0.00    +0.078 C 
ATOM     11  C   UNL     1       2.271   1.623 -22.296  0.00  0.00    +0.134 C 
ATOM     12  C   UNL     1       1.447   1.394 -21.317  0.00  0.00    +0.075 C 
ATOM     13  C   UNL     1       0.196   1.729 -21.428  0.00  0.00    +0.015 C 
ATOM     14  O   UNL     1       3.522   1.287 -22.184  0.00  0.00    -0.297 OA
ATOM     15  C   UNL     1      -0.232   2.293 -22.520  0.00  0.00    -0.025 C 
ATOM     16  C   UNL     1      -1.055   2.064 -21.540  0.00  0.00    +0.012 C 
ATOM     17  C   UNL     1      -5.160   3.721 -23.212  0.00  0.00    +0.121 C 
ATOM     18  C   UNL     1      -5.063   4.211 -24.413  0.00  0.00    +0.032 C 
ATOM     19  C   UNL     1      -3.828   4.091 -24.797  0.00  0.00    +0.007 C 
ATOM     20  C   UNL     1      -3.161   3.527 -23.834  0.00  0.00    +0.001 C 
ENDROOT
BRANCH  17  21
ATOM     21  O   UNL     1      -6.244   3.664 -22.496  0.00  0.00    -0.391 OA
ATOM     22  H   UNL     1      -6.614   2.769 -22.540  0.00  0.00    +0.210 HD
ENDBRANCH  17  21
TORSDOF 1
ENDMDL
