MODEL 1
REMARK VINA RESULT:   -10.197      0.000      0.000
REMARK INTER + INTRA:         -13.412
REMARK INTER:                 -12.776
REMARK INTRA:                  -0.636
REMARK UNBOUND:                 0.362
REMARK  Name = ZINC000004618458
REMARK  6 active torsions:
REMARK  status: ('A' for Active; 'I' for Inactive)
REMARK    1  A    between atoms: C_2  and  C_3
REMARK    2  A    between atoms: C_10  and  C_11
REMARK    3  A    between atoms: C_11  and  O_12
REMARK    4  A    between atoms: C_11  and  C_21
REMARK    5  A    between atoms: O_12  and  C_13
REMARK    6  A    between atoms: C_13  and  C_15
REMARK                            x       y       z     vdW  Elec       q    Type
REMARK                         _______ _______ _______ _____ _____    ______ ____
ROOT
ATOM      1  C   UNL     1      -0.986   2.680 -23.814  0.00  0.00    +0.255 C 
ENDROOT
BRANCH   1   2
ATOM      2  C   UNL     1      -2.086   3.071 -24.437  0.00  0.00    +0.009 A 
ATOM      3  C   UNL     1      -2.060   3.307 -25.734  0.00  0.00    +0.028 A 
ATOM      4  C   UNL     1      -3.157   3.698 -26.358  0.00  0.00    +0.112 A 
ATOM      5  N   UNL     1      -4.279   3.851 -25.678  0.00  0.00    -0.255 NA
ATOM      6  C   UNL     1      -4.305   3.616 -24.382  0.00  0.00    +0.071 A 
ATOM      7  C   UNL     1      -5.427   3.769 -23.702  0.00  0.00    +0.028 A 
ATOM      8  C   UNL     1      -5.452   3.533 -22.406  0.00  0.00    +0.002 A 
ATOM      9  C   UNL     1      -4.355   3.142 -21.782  0.00  0.00    +0.001 A 
ATOM     10  C   UNL     1      -3.233   2.989 -22.462  0.00  0.00    +0.010 A 
ATOM     11  C   UNL     1      -3.208   3.225 -23.758  0.00  0.00    +0.007 A 
ENDBRANCH   1   2
BRANCH   1  18
ATOM     12  C   UNL     1       2.030   5.234 -23.307  0.00  0.00    +0.060 C 
ATOM     13  C   UNL     1       0.883   5.407 -22.632  0.00  0.00    +0.139 C 
ATOM     14  N   UNL     1      -0.115   4.541 -22.815  0.00  0.00    +0.241 N 
ATOM     15  H   UNL     1      -1.052   4.477 -22.419  0.00  0.00    +0.204 HD
ATOM     16  C   UNL     1       0.894   4.803 -23.095  0.00  0.00    +0.132 C 
ATOM     17  C   UNL     1       1.216   4.016 -23.845  0.00  0.00    +0.055 C 
ATOM     18  C   UNL     1       0.013   3.526 -23.646  0.00  0.00    +0.111 C 
ATOM     19  C   UNL     1       1.155   3.357 -24.316  0.00  0.00    +0.063 C 
ATOM     20  C   UNL     1       2.152   4.202 -24.148  0.00  0.00    +0.011 C 
BRANCH  12  22
ATOM     21  C   UNL     1       4.224   5.633 -22.790  0.00  0.00    +0.004 C 
ATOM     22  C   UNL     1       3.033   6.080 -23.142  0.00  0.00    -0.026 C 
ENDBRANCH  12  22
ENDBRANCH   1  18
BRANCH   1  23
ATOM     23  O   UNL     1      -0.889   1.445 -23.360  0.00  0.00    -0.447 OA
BRANCH  23  24
ATOM     24  C   UNL     1      -0.437   1.224 -22.141  0.00  0.00    +0.340 C 
ATOM     25  O   UNL     1      -1.283   1.084 -21.138  0.00  0.00    -0.245 OA
BRANCH  24  26
ATOM     26  C   UNL     1       0.862   1.144 -21.925  0.00  0.00    +0.059 A 
ATOM     27  C   UNL     1       1.393   1.736 -20.868  0.00  0.00    +0.015 A 
ATOM     28  C   UNL     1       2.692   1.655 -20.653  0.00  0.00    +0.001 A 
ATOM     29  C   UNL     1       3.463   0.985 -21.488  0.00  0.00    +0.000 A 
ATOM     30  C   UNL     1       2.931   0.393 -22.545  0.00  0.00    +0.001 A 
ATOM     31  C   UNL     1       1.632   0.475 -22.760  0.00  0.00    +0.015 A 
ENDBRANCH  24  26
ENDBRANCH  23  24
ENDBRANCH   1  23
TORSDOF 6
ENDMDL
