MODEL 1
REMARK VINA RESULT:    -8.920      0.000      0.000
REMARK INTER + INTRA:         -16.552
REMARK INTER:                 -14.831
REMARK INTRA:                  -1.722
REMARK UNBOUND:                 0.189
REMARK  Name = ZINC000085340961
REMARK  19 active torsions:
REMARK  status: ('A' for Active; 'I' for Inactive)
REMARK    1  A    between atoms: C_1  and  C_2
REMARK    2  A    between atoms: C_2  and  C_3
REMARK    3  A    between atoms: C_3  and  C_4
REMARK    4  A    between atoms: C_4  and  C_5
REMARK    5  A    between atoms: C_5  and  C_6
REMARK    6  A    between atoms: C_6  and  C_7
REMARK    7  A    between atoms: C_7  and  C_8
REMARK    8  A    between atoms: C_8  and  C_9
REMARK    9  A    between atoms: C_9  and  C_10
REMARK   10  A    between atoms: C_10  and  C_11
REMARK   11  A    between atoms: C_11  and  C_12
REMARK   12  A    between atoms: C_13  and  O_14
REMARK   13  A    between atoms: C_15  and  O_16
REMARK   14  A    between atoms: C_22  and  C_23
REMARK   15  A    between atoms: N_25  and  CA_26
REMARK   16  A    between atoms: CA_26  and  C_27
REMARK   17  A    between atoms: CA_26  and  CB_30
REMARK   18  A    between atoms: CB_30  and  CG1_31
REMARK   19  A    between atoms: CB_30  and  CG2_32
REMARK                            x       y       z     vdW  Elec       q    Type
REMARK                         _______ _______ _______ _____ _____    ______ ____
ROOT
ATOM      1  C   UNK A   0       5.800   4.731 -23.070  0.00  0.00    +0.025 A 
ATOM      2  C   UNK A   0       6.493   5.648 -22.465  0.00  0.00    +0.164 A 
ATOM      3  C   UNK A   0       5.897   6.678 -21.938  0.00  0.00    +0.161 A 
ATOM      4  C   UNK A   0       4.605   6.789 -22.019  0.00  0.00    +0.079 A 
ATOM      5  C   UNK A   0       3.909   5.873 -22.624  0.00  0.00    +0.094 A 
ATOM      6  N   UNK A   0       2.617   5.986 -22.703  0.00  0.00    -0.243 NA
ATOM      7  C   UNK A   0       1.920   5.071 -23.308  0.00  0.00    +0.091 A 
ATOM      8  C   UNK A   0       0.628   5.183 -23.387  0.00  0.00    +0.043 A 
ATOM      9  C   UNK A   0      -0.070   4.269 -23.992  0.00  0.00    +0.039 A 
ATOM     10  C   UNK A   0       0.526   3.241 -24.518  0.00  0.00    +0.015 A 
ATOM     11  C   UNK A   0       1.819   3.126 -24.440  0.00  0.00    +0.030 A 
ATOM     12  C   UNK A   0       2.516   4.043 -23.833  0.00  0.00    +0.090 A 
ATOM     13  N   UNK A   0       3.809   3.928 -23.755  0.00  0.00    -0.243 NA
ATOM     14  C   UNK A   0       4.505   4.845 -23.149  0.00  0.00    +0.097 A 
ENDROOT
BRANCH   9  15
ATOM     15  C   UNK A   0      -1.362   4.382 -24.071  0.00  0.00    +0.245 C 
ATOM     16  N   VAL A   1      -2.102   3.320 -24.189  0.00  0.00    -0.303 N 
ATOM     17  H   VAL A   1      -1.683   2.429 -24.218  0.00  0.00    +0.150 HD
ATOM     18  O   UNK A   0      -1.915   5.558 -24.032  0.00  0.00    -0.270 OA
BRANCH  16  19
ATOM     19  CA  VAL A   1      -3.394   3.433 -24.268  0.00  0.00    +0.121 C 
BRANCH  19  20
ATOM     20  C   VAL A   1      -3.959   3.646 -25.419  0.00  0.00    +0.062 C 
ATOM     21  OXT VAL A   1      -4.100   2.671 -26.266  0.00  0.00    -0.548 OA
ATOM     22  O   VAL A   1      -4.384   4.837 -25.723  0.00  0.00    -0.548 OA
ENDBRANCH  19  20
BRANCH  19  23
ATOM     23  CB  VAL A   1      -4.123   3.332 -23.196  0.00  0.00    +0.009 C 
ATOM     24  CG2 VAL A   1      -5.370   3.698 -23.222  0.00  0.00    +0.009 C 
ATOM     25  CG1 VAL A   1      -3.605   2.865 -22.099  0.00  0.00    +0.009 C 
ENDBRANCH  19  23
ENDBRANCH  16  19
ENDBRANCH   9  15
BRANCH   2  26
ATOM     26  O   UNK A   0       7.787   5.537 -22.384  0.00  0.00    -0.503 OA
ATOM     27  H   UNK A   0       8.337   6.212 -22.730  0.00  0.00    +0.292 HD
ENDBRANCH   2  26
BRANCH   3  28
ATOM     28  O   UNK A   0       6.592   7.593 -21.333  0.00  0.00    -0.503 OA
ATOM     29  H   UNK A   0       6.351   7.870 -20.472  0.00  0.00    +0.292 HD
ENDBRANCH   3  28
BRANCH   1  30
ATOM     30  C   UNK A   0       6.394   3.704 -23.596  0.00  0.00    +0.041 C 
BRANCH  30  31
ATOM     31  C   UNK A   0       6.821   2.739 -22.836  0.00  0.00    +0.005 C 
BRANCH  31  32
ATOM     32  C   UNK A   0       6.061   2.269 -21.892  0.00  0.00    +0.000 C 
BRANCH  32  33
ATOM     33  C   UNK A   0       5.585   1.062 -21.979  0.00  0.00    +0.000 C 
BRANCH  33  34
ATOM     34  C   UNK A   0       4.985   0.524 -20.958  0.00  0.00    +0.000 C 
BRANCH  34  35
ATOM     35  C   UNK A   0       3.694   0.375 -20.967  0.00  0.00    +0.000 C 
BRANCH  35  36
ATOM     36  C   UNK A   0       3.043   0.428 -22.092  0.00  0.00    -0.000 C 
BRANCH  36  37
ATOM     37  C   UNK A   0       1.799   0.805 -22.104  0.00  0.00    -0.000 C 
BRANCH  37  38
ATOM     38  C   UNK A   0       1.341   1.569 -21.156  0.00  0.00    -0.000 C 
BRANCH  38  40
ATOM     39  C   UNK A   0      -0.782   1.082 -21.726  0.00  0.00    +0.004 C 
ATOM     40  C   UNK A   0       0.069   1.830 -21.089  0.00  0.00    -0.003 C 
ENDBRANCH  38  40
ENDBRANCH  37  38
ENDBRANCH  36  37
ENDBRANCH  35  36
ENDBRANCH  34  35
ENDBRANCH  33  34
ENDBRANCH  32  33
ENDBRANCH  31  32
ENDBRANCH  30  31
ENDBRANCH   1  30
TORSDOF 16
ENDMDL
