MODEL 1
REMARK VINA RESULT:   -10.420      0.000      0.000
REMARK INTER + INTRA:         -11.739
REMARK INTER:                 -11.635
REMARK INTRA:                  -0.104
REMARK UNBOUND:                -0.101
REMARK  Name = ZINC000038637538
REMARK  4 active torsions:
REMARK  status: ('A' for Active; 'I' for Inactive)
REMARK    1  A    between atoms: C_1  and  O_2
REMARK    2  A    between atoms: O_2  and  C_3
REMARK    3  A    between atoms: C_8  and  O_9
REMARK    4  A    between atoms: N_18  and  C_19
REMARK                            x       y       z     vdW  Elec       q    Type
REMARK                         _______ _______ _______ _____ _____    ______ ____
ROOT
ATOM      1  C   UNL     1       0.942   2.186 -23.372  0.00  0.00    +0.162 A 
ATOM      2  C   UNL     1       0.891   1.808 -22.112  0.00  0.00    +0.050 A 
ATOM      3  C   UNL     1      -0.255   1.875 -21.417  0.00  0.00    +0.008 A 
ATOM      4  C   UNL     1      -1.476   2.368 -22.039  0.00  0.00    -0.034 A 
ATOM      5  C   UNL     1      -1.345   2.684 -23.164  0.00  0.00    +0.012 A 
ATOM      6  C   UNL     1      -2.118   3.079 -23.827  0.00  0.00    +0.034 C 
ATOM      7  C   UNL     1      -0.782   2.706 -23.684  0.00  0.00    +0.043 C 
ATOM      8  C   UNL     1      -0.273   2.196 -22.440  0.00  0.00    -0.026 C 
ATOM      9  C   UNL     1      -1.071   2.040 -21.304  0.00  0.00    -0.004 C 
ATOM     10  C   UNL     1      -2.053   2.309 -21.392  0.00  0.00    +0.005 C 
ATOM     11  C   UNL     1      -2.922   3.542 -24.681  0.00  0.00    +0.067 C 
ATOM     12  C   UNL     1      -4.169   3.708 -24.227  0.00  0.00    +0.133 C 
ATOM     13  N   UNL     1      -4.399   3.362 -22.929  0.00  0.00    +0.239 N 
ATOM     14  H   UNL     1      -4.803   3.178 -22.011  0.00  0.00    +0.204 HD
ATOM     15  C   UNL     1      -5.567   3.506 -22.465  0.00  0.00    +0.191 C 
ATOM     16  C   UNL     1      -3.368   2.906 -22.275  0.00  0.00    +0.096 C 
ATOM     17  C   UNL     1      -2.614   2.874 -22.769  0.00  0.00    -0.011 C 
ATOM     18  C   UNL     1      -2.917   2.561 -21.519  0.00  0.00    +0.094 C 
ATOM     19  C   UNL     1      -0.095   2.614 -23.930  0.00  0.00    +0.163 A 
ENDROOT
BRANCH   1  21
ATOM     20  C   UNL     1       2.968   1.508 -24.758  0.00  0.00    +0.277 C 
ATOM     21  O   UNL     1       1.976   2.251 -24.405  0.00  0.00    -0.491 OA
ENDBRANCH   1  21
BRANCH  19  22
ATOM     22  O   UNL     1       0.705   2.768 -25.065  0.00  0.00    -0.503 OA
ATOM     23  H   UNL     1       0.309   2.872 -25.907  0.00  0.00    +0.292 HD
ENDBRANCH  19  22
TORSDOF 2
ENDMDL
