MODEL 1
REMARK VINA RESULT:   -10.034      0.000      0.000
REMARK INTER + INTRA:         -11.460
REMARK INTER:                 -11.669
REMARK INTRA:                   0.209
REMARK UNBOUND:                 1.506
REMARK  Name = ZINC000096316363
REMARK  8 active torsions:
REMARK  status: ('A' for Active; 'I' for Inactive)
REMARK    1  A    between atoms: C_1  and  O_2
REMARK    2  A    between atoms: O_2  and  C_3
REMARK    3  A    between atoms: C_5  and  C_6
REMARK    4  A    between atoms: C_6  and  C_7
REMARK    5  A    between atoms: C_10  and  O_11
REMARK    6  A    between atoms: C_12  and  O_13
REMARK    7  A    between atoms: O_13  and  C_14
REMARK    8  A    between atoms: C_24  and  O_25
REMARK                            x       y       z     vdW  Elec       q    Type
REMARK                         _______ _______ _______ _____ _____    ______ ____
ROOT
ATOM      1  C   UNL     1       0.650   2.279 -23.089  0.00  0.00    +0.111 C 
ATOM      2  C   UNL     1      -0.516   2.554 -23.593  0.00  0.00    -0.020 A 
ATOM      3  C   UNL     1      -0.609   3.006 -24.808  0.00  0.00    +0.055 A 
ATOM      4  C   UNL     1      -1.775   3.281 -25.313  0.00  0.00    +0.159 A 
ATOM      5  C   UNL     1      -2.849   3.104 -24.602  0.00  0.00    +0.162 A 
ATOM      6  C   UNL     1      -2.757   2.652 -23.387  0.00  0.00    +0.053 A 
ATOM      7  C   UNL     1      -1.590   2.376 -22.882  0.00  0.00    -0.037 A 
ATOM      8  C   UNL     1      -1.498   1.924 -21.667  0.00  0.00    +0.054 C 
ATOM      9  C   UNL     1      -0.332   1.649 -21.163  0.00  0.00    +0.113 C 
ATOM     10  N   UNL     1       0.741   1.826 -21.873  0.00  0.00    -0.296 N 
ATOM     11  C   UNL     1       1.908   1.551 -21.369  0.00  0.00    +0.328 C 
ATOM     12  O   UNL     1       2.000   1.099 -20.154  0.00  0.00    -0.279 OA
ENDROOT
BRANCH   5  13
ATOM     13  O   UNL     1      -4.014   3.379 -25.106  0.00  0.00    -0.491 OA
ATOM     14  C   UNL     1      -4.840   4.145 -24.456  0.00  0.00    +0.277 C 
ENDBRANCH   5  13
BRANCH   4  15
ATOM     15  O   UNL     1      -1.866   3.734 -26.528  0.00  0.00    -0.503 OA
ATOM     16  H   UNL     1      -1.776   4.652 -26.694  0.00  0.00    +0.292 HD
ENDBRANCH   4  15
BRANCH   1  17
ATOM     17  C   UNL     1       1.724   2.456 -23.800  0.00  0.00    +0.062 C 
BRANCH  17  20
ATOM     18  C   UNL     1       4.658   4.121 -23.127  0.00  0.00    +0.162 A 
ATOM     19  C   UNL     1       3.828   3.166 -23.430  0.00  0.00    +0.053 A 
ATOM     20  C   UNL     1       2.553   3.410 -23.497  0.00  0.00    -0.042 A 
ATOM     21  C   UNL     1       2.107   4.609 -23.262  0.00  0.00    +0.007 A 
ATOM     22  C   UNL     1       2.936   5.564 -22.960  0.00  0.00    +0.049 A 
ATOM     23  C   UNL     1       4.212   5.320 -22.892  0.00  0.00    +0.158 A 
BRANCH  18  25
ATOM     24  C   UNL     1       6.369   2.899 -22.323  0.00  0.00    +0.277 C 
ATOM     25  O   UNL     1       5.933   3.878 -23.060  0.00  0.00    -0.491 OA
ENDBRANCH  18  25
BRANCH  23  26
ATOM     26  O   UNL     1       5.041   6.274 -22.590  0.00  0.00    -0.503 OA
ATOM     27  H   UNL     1       5.921   6.249 -22.910  0.00  0.00    +0.292 HD
ENDBRANCH  23  26
ENDBRANCH  17  20
ENDBRANCH   1  17
TORSDOF 6
ENDMDL
