MODEL 1
REMARK VINA RESULT:   -11.790      0.000      0.000
REMARK INTER + INTRA:         -12.925
REMARK INTER:                 -12.600
REMARK INTRA:                  -0.325
REMARK UNBOUND:                 0.933
REMARK  Name = ZINC000071404306
REMARK  8 active torsions:
REMARK  status: ('A' for Active; 'I' for Inactive)
REMARK    1  A    between atoms: C_1  and  C_2
REMARK    2  A    between atoms: C_2  and  C_3
REMARK    3  A    between atoms: C_4  and  C_5
REMARK    4  A    between atoms: C_5  and  C_6
REMARK    5  A    between atoms: C_6  and  C_7
REMARK    6  A    between atoms: C_7  and  C_8
REMARK    7  A    between atoms: C_18  and  C_19
REMARK    8  A    between atoms: N_23  and  C_24
REMARK                            x       y       z     vdW  Elec       q    Type
REMARK                         _______ _______ _______ _____ _____    ______ ____
ROOT
ATOM      1  C   UNL     1       3.124   1.984 -22.959  0.00  0.00    +0.127 C 
ATOM      2  C   UNL     1       2.672   2.613 -24.002  0.00  0.00    +0.021 C 
ATOM      3  C   UNL     1       1.407   2.892 -24.101  0.00  0.00    +0.013 C 
ATOM      4  C   UNL     1       0.589   2.540 -23.151  0.00  0.00    +0.041 A 
ATOM      5  C   UNL     1       1.040   1.910 -22.107  0.00  0.00    +0.131 A 
ATOM      6  C   UNL     1       0.223   1.558 -21.158  0.00  0.00    +0.047 A 
ATOM      7  C   UNL     1      -1.043   1.836 -21.256  0.00  0.00    +0.014 A 
ATOM      8  C   UNL     1      -1.491   2.465 -22.300  0.00  0.00    +0.008 A 
ATOM      9  C   UNL     1      -2.688   2.855 -22.633  0.00  0.00    +0.008 A 
ATOM     10  C   UNL     1      -3.837   2.746 -22.034  0.00  0.00    +0.014 A 
ATOM     11  C   UNL     1      -4.906   3.231 -22.592  0.00  0.00    -0.050 A 
ATOM     12  C   UNL     1      -4.829   3.824 -23.745  0.00  0.00    +0.005 A 
ATOM     13  C   UNL     1      -3.680   3.932 -24.343  0.00  0.00    +0.027 A 
ATOM     14  C   UNL     1      -6.057   3.122 -21.992  0.00  0.00    +0.044 C 
ATOM     15  C   UNL     1      -2.608   3.447 -23.788  0.00  0.00    +0.050 A 
ATOM     16  N   UNL     1      -1.367   3.425 -24.168  0.00  0.00    -0.342 N 
ATOM     17  C   UNL     1      -0.898   3.921 -25.272  0.00  0.00    +0.149 C 
ATOM     18  C   UNL     1      -0.678   2.818 -23.249  0.00  0.00    +0.061 A 
ATOM     19  C   UNL     1       3.957   1.407 -22.145  0.00  0.00    +0.060 C 
ATOM     20  O   UNL     1       2.306   1.631 -22.009  0.00  0.00    -0.481 OA
ENDROOT
BRANCH   1  21
ATOM     21  C   UNL     1       4.229   2.135 -23.624  0.00  0.00    +0.056 C 
BRANCH  21  22
ATOM     22  C   UNL     1       4.844   3.281 -23.608  0.00  0.00    +0.031 C 
BRANCH  22  25
ATOM     23  C   UNL     1       8.042   4.357 -22.944  0.00  0.00    +0.038 C 
ATOM     24  C   UNL     1       6.744   4.318 -22.987  0.00  0.00    -0.080 C 
ATOM     25  C   UNL     1       6.143   3.321 -23.565  0.00  0.00    -0.028 C 
ATOM     26  C   UNL     1       6.046   5.275 -22.452  0.00  0.00    +0.038 C 
ENDBRANCH  22  25
ENDBRANCH  21  22
ENDBRANCH   1  21
TORSDOF 3
ENDMDL
