MODEL 1
REMARK VINA RESULT:    -8.420      0.000      0.000
REMARK INTER + INTRA:          -9.167
REMARK INTER:                 -11.279
REMARK INTRA:                   2.112
REMARK UNBOUND:                 1.715
REMARK  Name = ZINC000000345847
REMARK  10 active torsions:
REMARK  status: ('A' for Active; 'I' for Inactive)
REMARK    1  A    between atoms: C_1  and  O_2
REMARK    2  A    between atoms: O_2  and  C_3
REMARK    3  A    between atoms: C_6  and  C_7
REMARK    4  A    between atoms: C_7  and  C_8
REMARK    5  A    between atoms: C_11  and  O_12
REMARK    6  A    between atoms: C_13  and  O_14
REMARK    7  A    between atoms: O_14  and  C_15
REMARK    8  A    between atoms: N_20  and  C_21
REMARK    9  A    between atoms: N_20  and  C_22
REMARK   10  A    between atoms: C_24  and  O_25
REMARK                            x       y       z     vdW  Elec       q    Type
REMARK                         _______ _______ _______ _____ _____    ______ ____
ROOT
ATOM      1  C   UNL     1       0.852   3.447 -23.513  0.00  0.00    +0.102 C 
ATOM      2  C   UNL     1       1.534   2.555 -22.858  0.00  0.00    +0.008 A 
ATOM      3  C   UNL     1       1.408   2.459 -21.568  0.00  0.00    +0.058 A 
ATOM      4  C   UNL     1       2.090   1.567 -20.913  0.00  0.00    +0.159 A 
ATOM      5  C   UNL     1       2.899   0.771 -21.547  0.00  0.00    +0.162 A 
ATOM      6  C   UNL     1       3.025   0.868 -22.838  0.00  0.00    +0.053 A 
ATOM      7  C   UNL     1       2.343   1.760 -23.493  0.00  0.00    -0.030 A 
ATOM      8  C   UNL     1       2.469   1.856 -24.783  0.00  0.00    +0.086 C 
ATOM      9  C   UNL     1       1.787   2.748 -25.439  0.00  0.00    +0.138 C 
ATOM     10  N   UNL     1       0.979   3.544 -24.803  0.00  0.00    +0.245 N 
ATOM     11  C   UNL     1       0.109   4.486 -24.590  0.00  0.00    +0.193 C 
ATOM     12  C   UNL     1       0.803   3.967 -26.020  0.00  0.00    +0.193 C 
ENDROOT
BRANCH   5  13
ATOM     13  O   UNL     1       3.581  -0.121 -20.893  0.00  0.00    -0.491 OA
ATOM     14  C   UNL     1       4.854   0.052 -20.692  0.00  0.00    +0.277 C 
ENDBRANCH   5  13
BRANCH   4  15
ATOM     15  O   UNL     1       1.964   1.470 -19.622  0.00  0.00    -0.503 OA
ATOM     16  H   UNL     1       2.663   1.117 -19.109  0.00  0.00    +0.292 HD
ENDBRANCH   4  15
BRANCH   1  17
ATOM     17  C   UNL     1       0.044   4.243 -22.878  0.00  0.00    +0.094 C 
BRANCH  17  21
ATOM     18  C   UNL     1      -3.514   3.008 -21.865  0.00  0.00    +0.161 A 
ATOM     19  C   UNL     1      -3.004   2.656 -23.007  0.00  0.00    +0.049 A 
ATOM     20  C   UNL     1      -1.818   3.067 -23.345  0.00  0.00    +0.007 A 
ATOM     21  C   UNL     1      -1.142   3.831 -22.540  0.00  0.00    -0.038 A 
ATOM     22  C   UNL     1      -1.651   4.185 -21.398  0.00  0.00    +0.053 A 
ATOM     23  C   UNL     1      -2.838   3.774 -21.059  0.00  0.00    +0.159 A 
BRANCH  18  25
ATOM     24  C   UNL     1      -5.753   3.117 -22.083  0.00  0.00    +0.277 C 
ATOM     25  O   UNL     1      -4.700   2.597 -21.526  0.00  0.00    -0.491 OA
ENDBRANCH  18  25
BRANCH  23  26
ATOM     26  O   UNL     1      -3.347   4.127 -19.916  0.00  0.00    -0.503 OA
ATOM     27  H   UNL     1      -3.495   5.033 -19.730  0.00  0.00    +0.292 HD
ENDBRANCH  23  26
ENDBRANCH  17  21
ENDBRANCH   1  17
TORSDOF 6
ENDMDL
