MODEL 1
REMARK VINA RESULT:    -9.440      0.000      0.000
REMARK INTER + INTRA:         -10.382
REMARK INTER:                 -10.254
REMARK INTRA:                  -0.128
REMARK UNBOUND:                 0.162
REMARK  Name = ZINC000002149675
REMARK  3 active torsions:
REMARK  status: ('A' for Active; 'I' for Inactive)
REMARK    1  A    between atoms: C_3  and  C_4
REMARK    2  A    between atoms: C_14  and  O_15
REMARK    3  A    between atoms: C_17  and  O_18
REMARK                            x       y       z     vdW  Elec       q    Type
REMARK                         _______ _______ _______ _____ _____    ______ ____
ROOT
ATOM      1  O   UNL     1      -0.541   4.943 -22.931  0.00  0.00    -0.286 OA
ATOM      2  C   UNL     1      -0.106   3.721 -22.843  0.00  0.00    +0.204 A 
ATOM      3  C   UNL     1      -0.916   2.766 -22.493  0.00  0.00    +0.064 A 
ATOM      4  C   UNL     1      -0.481   1.544 -22.405  0.00  0.00    +0.208 A 
ATOM      5  O   UNL     1       0.765   1.277 -22.667  0.00  0.00    -0.462 OA
ATOM      6  C   UNL     1       1.575   2.232 -23.017  0.00  0.00    +0.145 A 
ATOM      7  C   UNL     1       2.819   1.965 -23.279  0.00  0.00    +0.092 A 
ATOM      8  C   UNL     1       3.629   2.919 -23.629  0.00  0.00    +0.124 A 
ATOM      9  C   UNL     1       3.194   4.141 -23.717  0.00  0.00    +0.091 A 
ATOM     10  C   UNL     1       1.949   4.408 -23.455  0.00  0.00    +0.135 A 
ATOM     11  C   UNL     1       1.140   3.454 -23.105  0.00  0.00    +0.106 A 
ENDROOT
BRANCH   3  12
ATOM     12  C   UNL     1      -2.161   3.034 -22.231  0.00  0.00    -0.011 A 
ATOM     13  C   UNL     1      -2.530   3.268 -21.007  0.00  0.00    +0.009 A 
ATOM     14  C   UNL     1      -3.775   3.536 -20.744  0.00  0.00    +0.001 A 
ATOM     15  C   UNL     1      -4.650   3.570 -21.705  0.00  0.00    +0.000 A 
ATOM     16  C   UNL     1      -4.280   3.337 -22.929  0.00  0.00    +0.001 A 
ATOM     17  C   UNL     1      -3.035   3.068 -23.192  0.00  0.00    +0.009 A 
ENDBRANCH   3  12
BRANCH  10  18
ATOM     18  O   UNL     1       1.514   5.630 -23.543  0.00  0.00    -0.506 OA
ATOM     19  H   UNL     1       0.609   5.817 -23.391  0.00  0.00    +0.292 HD
ENDBRANCH  10  18
BRANCH   8  20
ATOM     20  O   UNL     1       4.874   2.652 -23.891  0.00  0.00    -0.507 OA
ATOM     21  H   UNL     1       5.244   1.835 -23.620  0.00  0.00    +0.292 HD
ENDBRANCH   8  20
TORSDOF 3
ENDMDL
