MODEL 1
REMARK VINA RESULT:    -8.722      0.000      0.000
REMARK INTER + INTRA:         -11.792
REMARK INTER:                 -11.230
REMARK INTRA:                  -0.562
REMARK UNBOUND:                -0.521
REMARK  Name = ZINC000002049066
REMARK  5 active torsions:
REMARK  status: ('A' for Active; 'I' for Inactive)
REMARK    1  A    between atoms: C_11  and  O_12
REMARK    2  A    between atoms: O_12  and  C_13
REMARK    3  A    between atoms: C_13  and  C_14
REMARK    4  A    between atoms: N_23  and  C_24
REMARK    5  A    between atoms: C_24  and  C_25
REMARK                            x       y       z     vdW  Elec       q    Type
REMARK                         _______ _______ _______ _____ _____    ______ ____
ROOT
ATOM      1  O   UNL     1       8.302   6.997 -21.530  0.00  0.00    -0.270 OA
ATOM      2  C   UNL     1       7.048   6.799 -21.811  0.00  0.00    +0.248 C 
ATOM      3  C   UNL     1       6.182   7.751 -21.627  0.00  0.00    +0.044 A 
ATOM      4  C   UNL     1       6.571   8.901 -21.162  0.00  0.00    +0.063 A 
ATOM      5  C   UNL     1       5.706   9.853 -20.978  0.00  0.00    +0.167 A 
ATOM      6  C   UNL     1       4.451   9.656 -21.259  0.00  0.00    +0.167 A 
ATOM      7  O   UNL     1       3.802  10.749 -20.989  0.00  0.00    -0.453 OA
ATOM      8  C   UNL     1       4.655  11.623 -20.541  0.00  0.00    +0.466 C 
ATOM      9  C   UNL     1       4.064   8.506 -21.724  0.00  0.00    +0.054 A 
ATOM     10  O   UNL     1       5.831  11.070 -20.534  0.00  0.00    -0.453 OA
ATOM     11  C   UNL     1       4.928   7.554 -21.908  0.00  0.00    -0.027 A 
ATOM     12  C   UNL     1       4.541   6.403 -22.374  0.00  0.00    +0.043 C 
ATOM     13  C   UNL     1       3.286   6.207 -22.654  0.00  0.00    +0.041 C 
ATOM     14  C   UNL     1       2.898   5.056 -23.120  0.00  0.00    +0.119 C 
ATOM     15  C   UNL     1       3.763   4.103 -23.304  0.00  0.00    +0.033 C 
ATOM     16  C   UNL     1       5.018   4.301 -23.023  0.00  0.00    +0.025 C 
ATOM     17  C   UNL     1       5.406   5.451 -22.558  0.00  0.00    +0.084 C 
ATOM     18  N   UNL     1       6.659   5.649 -22.277  0.00  0.00    -0.290 N 
ENDROOT
BRANCH  14  19
ATOM     19  O   UNL     1       1.645   4.858 -23.401  0.00  0.00    -0.372 OA
BRANCH  19  20
ATOM     20  C   UNL     1       1.201   3.649 -23.576  0.00  0.00    +0.195 C 
BRANCH  20  21
ATOM     21  C   UNL     1       0.172   3.230 -22.901  0.00  0.00    -0.022 A 
ATOM     22  C   UNL     1      -0.892   3.972 -22.809  0.00  0.00    +0.006 A 
ATOM     23  C   UNL     1      -1.921   3.552 -22.133  0.00  0.00    +0.000 A 
ATOM     24  C   UNL     1      -1.885   2.391 -21.550  0.00  0.00    +0.000 A 
ATOM     25  C   UNL     1      -0.821   1.648 -21.642  0.00  0.00    +0.000 A 
ATOM     26  C   UNL     1       0.208   2.068 -22.318  0.00  0.00    +0.006 A 
ENDBRANCH  20  21
ENDBRANCH  19  20
ENDBRANCH  14  19
BRANCH  18  27
ATOM     27  C   UNL     1       7.525   4.697 -22.461  0.00  0.00    +0.143 C 
BRANCH  27  28
ATOM     28  C   UNL     1       8.001   4.471 -23.649  0.00  0.00    -0.030 A 
ATOM     29  C   UNL     1       8.302   3.259 -24.008  0.00  0.00    +0.005 A 
ATOM     30  C   UNL     1       8.779   3.032 -25.197  0.00  0.00    +0.000 A 
ATOM     31  C   UNL     1       8.955   4.018 -26.025  0.00  0.00    +0.000 A 
ATOM     32  C   UNL     1       8.654   5.231 -25.666  0.00  0.00    +0.000 A 
ATOM     33  C   UNL     1       8.177   5.457 -24.477  0.00  0.00    +0.005 A 
ENDBRANCH  27  28
ENDBRANCH  18  27
TORSDOF 5
ENDMDL
