MODEL 1
REMARK VINA RESULT:   -11.380      0.000      0.000
REMARK INTER + INTRA:         -12.646
REMARK INTER:                 -12.748
REMARK INTRA:                   0.102
REMARK UNBOUND:                 0.064
REMARK  Name = ZINC000013423762
REMARK  5 active torsions:
REMARK  status: ('A' for Active; 'I' for Inactive)
REMARK    1  A    between atoms: C_1  and  C_2
REMARK    2  A    between atoms: C_2  and  C_3
REMARK    3  A    between atoms: C_3  and  O_4
REMARK    4  A    between atoms: C_18  and  C_19
REMARK    5  A    between atoms: C_23  and  C_24
REMARK                            x       y       z     vdW  Elec       q    Type
REMARK                         _______ _______ _______ _____ _____    ______ ____
ROOT
ATOM      1  C   UNL     1      -4.710   3.232 -22.447  0.00  0.00    +0.071 C 
ATOM      2  C   UNL     1      -4.714   2.731 -21.236  0.00  0.00    +0.035 C 
ATOM      3  C   UNL     1      -3.489   2.360 -20.949  0.00  0.00    +0.007 C 
ATOM      4  C   UNL     1      -2.728   2.631 -21.978  0.00  0.00    +0.002 C 
ATOM      5  C   UNL     1      -1.448   2.457 -22.192  0.00  0.00    +0.004 C 
ATOM      6  C   UNL     1      -0.698   1.916 -21.259  0.00  0.00    +0.083 C 
ATOM      7  C   UNL     1       0.584   1.741 -21.471  0.00  0.00    +0.160 C 
ATOM      8  C   UNL     1       1.116   2.105 -22.611  0.00  0.00    +0.004 C 
ATOM      9  C   UNL     1       2.399   1.930 -22.823  0.00  0.00    +0.053 C 
ATOM     10  C   UNL     1       2.932   2.293 -23.964  0.00  0.00    +0.157 C 
ATOM     11  C   UNL     1       2.183   2.834 -24.897  0.00  0.00    +0.080 C 
ATOM     12  C   UNL     1       0.900   3.008 -24.683  0.00  0.00    +0.019 C 
ATOM     13  O   UNL     1       4.216   2.118 -24.175  0.00  0.00    -0.293 OA
ATOM     14  C   UNL     1       0.367   2.645 -23.544  0.00  0.00    -0.000 C 
ATOM     15  C   UNL     1      -0.382   3.185 -24.474  0.00  0.00    +0.016 C 
ATOM     16  O   UNL     1       1.334   1.201 -20.539  0.00  0.00    -0.292 OA
ATOM     17  C   UNL     1      -0.915   2.821 -23.333  0.00  0.00    +0.003 C 
ATOM     18  C   UNL     1      -1.666   3.361 -24.265  0.00  0.00    +0.005 C 
ATOM     19  C   UNL     1      -2.948   3.536 -24.051  0.00  0.00    +0.010 C 
ATOM     20  C   UNL     1      -3.479   3.172 -22.911  0.00  0.00    -0.000 C 
ATOM     21  C   UNL     1      -4.254   3.699 -23.800  0.00  0.00    +0.014 C 
ENDROOT
BRANCH   1  23
ATOM     22  C   UNL     1      -6.696   2.428 -21.667  0.00  0.00    +0.007 C 
ATOM     23  C   UNL     1      -5.993   3.389 -22.192  0.00  0.00    +0.032 C 
ENDBRANCH   1  23
BRANCH   1  24
ATOM     24  O   UNL     1      -5.033   3.659 -23.316  0.00  0.00    -0.388 OA
ATOM     25  H   UNL     1      -5.785   4.242 -23.131  0.00  0.00    +0.210 HD
ENDBRANCH   1  24
TORSDOF 2
ENDMDL
