MODEL 1
REMARK VINA RESULT:    -8.130      0.000      0.000
REMARK INTER + INTRA:         -13.856
REMARK INTER:                 -12.323
REMARK INTRA:                  -1.533
REMARK UNBOUND:                -0.972
REMARK  Name = ZINC000001531764
REMARK  11 active torsions:
REMARK  status: ('A' for Active; 'I' for Inactive)
REMARK    1  A    between atoms: C_1  and  C_2
REMARK    2  A    between atoms: C_2  and  C_3
REMARK    3  A    between atoms: C_3  and  C_4
REMARK    4  A    between atoms: C_4  and  C_5
REMARK    5  A    between atoms: C_5  and  C_6
REMARK    6  A    between atoms: C_6  and  C_7
REMARK    7  A    between atoms: C_7  and  C_8
REMARK    8  A    between atoms: C_8  and  C_9
REMARK    9  A    between atoms: C_9  and  C_10
REMARK   10  A    between atoms: C_10  and  C_11
REMARK   11  A    between atoms: C_11  and  C_12
REMARK                            x       y       z     vdW  Elec       q    Type
REMARK                         _______ _______ _______ _____ _____    ______ ____
ROOT
ATOM      1  C   UNL     1      -1.402   2.705 -22.507  0.00  0.00    +0.038 C 
ENDROOT
BRANCH   1   2
ATOM      2  C   UNL     1      -0.165   2.978 -22.802  0.00  0.00    -0.011 C 
ATOM      3  C   UNL     1       0.742   2.050 -22.724  0.00  0.00    +0.169 C 
ATOM      4  C   UNL     1       1.978   2.324 -23.018  0.00  0.00    -0.089 C 
ATOM      5  C   UNL     1       2.307   3.524 -23.391  0.00  0.00    +0.039 C 
ATOM      6  C   UNL     1       1.400   4.452 -23.469  0.00  0.00    +0.166 C 
ATOM      7  O   UNL     1       1.729   5.654 -23.842  0.00  0.00    -0.289 OA
ATOM      8  O   UNL     1       2.885   1.396 -22.940  0.00  0.00    -0.826 OA
ATOM      9  O   UNL     1       0.413   0.850 -22.351  0.00  0.00    -0.289 OA
ATOM     10  C   UNL     1       0.164   4.179 -23.175  0.00  0.00    -0.086 C 
ATOM     11  O   UNL     1      -0.744   5.107 -23.253  0.00  0.00    -0.826 OA
ENDBRANCH   1   2
BRANCH   1  12
ATOM     12  C   UNL     1      -1.805   2.766 -21.273  0.00  0.00    +0.005 C 
BRANCH  12  13
ATOM     13  C   UNL     1      -2.964   3.283 -20.993  0.00  0.00    +0.000 C 
BRANCH  13  14
ATOM     14  C   UNL     1      -4.012   2.518 -20.907  0.00  0.00    +0.000 C 
BRANCH  14  15
ATOM     15  C   UNL     1      -5.049   2.750 -21.658  0.00  0.00    +0.000 C 
BRANCH  15  16
ATOM     16  C   UNL     1      -5.071   3.796 -22.430  0.00  0.00    +0.000 C 
BRANCH  16  17
ATOM     17  C   UNL     1      -5.312   3.660 -23.700  0.00  0.00    -0.000 C 
BRANCH  17  18
ATOM     18  C   UNL     1      -4.862   4.540 -24.545  0.00  0.00    -0.000 C 
BRANCH  18  19
ATOM     19  C   UNL     1      -3.616   4.509 -24.914  0.00  0.00    -0.000 C 
BRANCH  19  21
ATOM     20  C   UNL     1      -3.279   3.444 -26.869  0.00  0.00    +0.004 C 
ATOM     21  C   UNL     1      -3.160   3.487 -25.575  0.00  0.00    -0.003 C 
ENDBRANCH  19  21
ENDBRANCH  18  19
ENDBRANCH  17  18
ENDBRANCH  16  17
ENDBRANCH  15  16
ENDBRANCH  14  15
ENDBRANCH  13  14
ENDBRANCH  12  13
ENDBRANCH   1  12
TORSDOF 10
ENDMDL
