MODEL 1
REMARK VINA RESULT:   -11.243      0.000      0.000
REMARK INTER + INTRA:         -12.014
REMARK INTER:                 -11.876
REMARK INTRA:                  -0.139
REMARK UNBOUND:                -0.114
REMARK  Name = ZINC000038258179
REMARK  3 active torsions:
REMARK  status: ('A' for Active; 'I' for Inactive)
REMARK    1  A    between atoms: C_1  and  O_2
REMARK    2  A    between atoms: O_2  and  C_3
REMARK    3  A    between atoms: N_17  and  C_18
REMARK                            x       y       z     vdW  Elec       q    Type
REMARK                         _______ _______ _______ _____ _____    ______ ____
ROOT
ATOM      1  C   UNL     1       0.498   2.610 -23.194  0.00  0.00    +0.162 A 
ATOM      2  C   UNL     1       0.429   2.057 -22.062  0.00  0.00    +0.050 A 
ATOM      3  C   UNL     1      -0.668   1.947 -21.478  0.00  0.00    +0.008 A 
ATOM      4  C   UNL     1      -1.704   2.388 -22.018  0.00  0.00    -0.034 A 
ATOM      5  C   UNL     1      -1.660   2.942 -23.144  0.00  0.00    +0.016 A 
ATOM      6  C   UNL     1      -2.696   3.379 -23.676  0.00  0.00    +0.071 C 
ATOM      7  C   UNL     1      -3.808   3.916 -24.383  0.00  0.00    +0.071 C 
ATOM      8  C   UNL     1      -5.060   3.807 -23.749  0.00  0.00    +0.133 C 
ATOM      9  N   UNL     1      -5.098   3.184 -22.488  0.00  0.00    +0.239 N 
ATOM     10  H   UNL     1      -5.979   3.079 -21.986  0.00  0.00    +0.204 HD
ATOM     11  C   UNL     1      -6.166   3.048 -21.860  0.00  0.00    +0.191 C 
ATOM     12  C   UNL     1      -3.863   2.718 -21.964  0.00  0.00    +0.096 C 
ATOM     13  C   UNL     1      -3.796   3.272 -23.096  0.00  0.00    -0.007 C 
ATOM     14  C   UNL     1      -4.845   3.715 -23.637  0.00  0.00    +0.006 C 
ATOM     15  C   UNL     1      -4.783   4.263 -24.756  0.00  0.00    -0.000 C 
ATOM     16  C   UNL     1      -3.679   4.378 -25.353  0.00  0.00    +0.018 C 
ATOM     17  C   UNL     1      -2.642   3.938 -24.813  0.00  0.00    +0.212 C 
ATOM     18  O   UNL     1      -1.152   3.745 -24.922  0.00  0.00    -0.480 OA
ATOM     19  C   UNL     1      -2.826   2.278 -21.426  0.00  0.00    +0.094 C 
ATOM     20  C   UNL     1      -0.554   3.054 -23.736  0.00  0.00    +0.167 A 
ENDROOT
BRANCH   1  22
ATOM     21  C   UNL     1       2.386   3.630 -23.456  0.00  0.00    +0.277 C 
ATOM     22  O   UNL     1       1.597   2.718 -23.775  0.00  0.00    -0.491 OA
ENDBRANCH   1  22
TORSDOF 1
ENDMDL
