MODEL 1
REMARK VINA RESULT:    -7.988      0.000      0.000
REMARK INTER + INTRA:         -18.233
REMARK INTER:                 -16.149
REMARK INTRA:                  -2.084
REMARK UNBOUND:                -2.072
REMARK  Name = ZINC000008382403
REMARK  24 active torsions:
REMARK  status: ('A' for Active; 'I' for Inactive)
REMARK    1  A    between atoms: C_1  and  O_2
REMARK    2  A    between atoms: O_2  and  C_3
REMARK    3  A    between atoms: C_3  and  O_4
REMARK    4  A    between atoms: O_4  and  C_5
REMARK    5  A    between atoms: C_8  and  C_9
REMARK    6  A    between atoms: C_10  and  C_11
REMARK    7  A    between atoms: C_11  and  C_13
REMARK    8  A    between atoms: C_14  and  O_15
REMARK    9  A    between atoms: O_15  and  C_16
REMARK   10  A    between atoms: C_16  and  O_17
REMARK   11  A    between atoms: O_17  and  C_18
REMARK   12  A    between atoms: C_20  and  O_21
REMARK   13  A    between atoms: O_21  and  C_22
REMARK   14  A    between atoms: C_22  and  O_23
REMARK   15  A    between atoms: O_23  and  C_24
REMARK   16  A    between atoms: C_25  and  C_26
REMARK   17  A    between atoms: C_26  and  C_27
REMARK   18  A    between atoms: C_28  and  C_29
REMARK   19  A    between atoms: C_28  and  C_30
REMARK   20  A    between atoms: C_31  and  O_32
REMARK   21  A    between atoms: C_34  and  O_35
REMARK   22  A    between atoms: O_35  and  C_36
REMARK   23  A    between atoms: C_36  and  O_37
REMARK   24  A    between atoms: O_37  and  C_38
REMARK                            x       y       z     vdW  Elec       q    Type
REMARK                         _______ _______ _______ _____ _____    ______ ____
ROOT
ATOM      1  C   UNL     1       1.547   2.031 -23.902  0.00  0.00    +0.105 A 
ATOM      2  C   UNL     1       1.224   1.681 -22.692  0.00  0.00    +0.141 A 
ATOM      3  C   UNL     1       0.097   2.075 -22.181  0.00  0.00    +0.092 A 
ATOM      4  C   UNL     1      -0.709   2.820 -22.878  0.00  0.00    +0.134 A 
ATOM      5  C   UNL     1      -0.386   3.170 -24.087  0.00  0.00    +0.040 A 
ATOM      6  C   UNL     1       0.742   2.776 -24.600  0.00  0.00    +0.138 A 
ENDROOT
BRANCH   1   7
ATOM      7  C   UNL     1       2.675   1.636 -24.414  0.00  0.00    +0.193 C 
ATOM      8  O   UNL     1       2.683   0.755 -25.369  0.00  0.00    -0.287 OA
BRANCH   7  10
ATOM      9  C   UNL     1       3.870   3.376 -23.628  0.00  0.00    +0.012 C 
ATOM     10  C   UNL     1       3.795   2.123 -23.970  0.00  0.00    +0.052 C 
BRANCH   9  14
ATOM     11  C   UNL     1       7.232   4.837 -22.296  0.00  0.00    +0.165 A 
ATOM     12  C   UNL     1       7.152   3.579 -22.617  0.00  0.00    +0.050 A 
ATOM     13  C   UNL     1       6.031   3.093 -23.061  0.00  0.00    +0.012 A 
ATOM     14  C   UNL     1       4.990   3.863 -23.184  0.00  0.00    -0.021 A 
ATOM     15  C   UNL     1       5.071   5.119 -22.863  0.00  0.00    +0.057 A 
ATOM     16  C   UNL     1       6.192   5.607 -22.419  0.00  0.00    +0.166 A 
BRANCH  11  17
ATOM     17  O   UNL     1       8.352   5.324 -21.852  0.00  0.00    -0.463 OA
BRANCH  17  18
ATOM     18  C   UNL     1       8.849   4.893 -20.730  0.00  0.00    +0.394 C 
BRANCH  18  20
ATOM     19  C   UNL     1       8.491   6.465 -19.158  0.00  0.00    +0.198 C 
ATOM     20  O   UNL     1       8.314   5.256 -19.601  0.00  0.00    -0.347 OA
ENDBRANCH  18  20
ENDBRANCH  17  18
ENDBRANCH  11  17
BRANCH  16  21
ATOM     21  O   UNL     1       6.272   6.864 -22.097  0.00  0.00    -0.463 OA
BRANCH  21  22
ATOM     22  C   UNL     1       5.217   7.493 -21.668  0.00  0.00    +0.394 C 
BRANCH  22  23
ATOM     23  O   UNL     1       5.156   8.789 -21.750  0.00  0.00    -0.347 OA
ATOM     24  C   UNL     1       4.092   9.361 -22.228  0.00  0.00    +0.198 C 
ENDBRANCH  22  23
ENDBRANCH  21  22
ENDBRANCH  16  21
ENDBRANCH   9  14
ENDBRANCH   7  10
ENDBRANCH   1   7
BRANCH   6  25
ATOM     25  O   UNL     1       1.064   3.126 -25.809  0.00  0.00    -0.506 OA
ATOM     26  H   UNL     1       1.198   2.471 -26.466  0.00  0.00    +0.292 HD
ENDBRANCH   6  25
BRANCH   2  27
ATOM     27  O   UNL     1       2.029   0.936 -21.994  0.00  0.00    -0.465 OA
BRANCH  27  28
ATOM     28  C   UNL     1       2.400   1.314 -20.807  0.00  0.00    +0.394 C 
BRANCH  28  29
ATOM     29  O   UNL     1       3.313   0.645 -20.167  0.00  0.00    -0.347 OA
ATOM     30  C   UNL     1       4.423   0.326 -20.764  0.00  0.00    +0.198 C 
ENDBRANCH  28  29
ENDBRANCH  27  28
ENDBRANCH   2  27
BRANCH   5  31
ATOM     31  C   UNL     1      -1.192   3.915 -24.786  0.00  0.00    +0.069 C 
BRANCH  31  32
ATOM     32  C   UNL     1      -2.010   3.368 -25.635  0.00  0.00    -0.023 C 
ATOM     33  C   UNL     1      -3.256   3.739 -25.668  0.00  0.00    -0.079 C 
ATOM     34  C   UNL     1      -3.682   4.658 -24.852  0.00  0.00    +0.038 C 
ATOM     35  C   UNL     1      -4.075   3.193 -26.516  0.00  0.00    +0.038 C 
ENDBRANCH  31  32
ENDBRANCH   5  31
BRANCH   4  36
ATOM     36  O   UNL     1      -1.837   3.214 -22.366  0.00  0.00    -0.466 OA
BRANCH  36  37
ATOM     37  C   UNL     1      -2.660   2.343 -21.860  0.00  0.00    +0.394 C 
BRANCH  37  38
ATOM     38  O   UNL     1      -3.464   2.691 -20.899  0.00  0.00    -0.347 OA
ATOM     39  C   UNL     1      -3.257   3.799 -20.249  0.00  0.00    +0.198 C 
ENDBRANCH  37  38
ENDBRANCH  36  37
ENDBRANCH   4  36
TORSDOF 18
ENDMDL
