MODEL 1
REMARK VINA RESULT:   -12.689      0.000      0.000
REMARK INTER + INTRA:          -8.860
REMARK INTER:                 -12.747
REMARK INTRA:                   3.886
REMARK UNBOUND:                 6.796
REMARK  Name = ZINC000004104844
REMARK  8 active torsions:
REMARK  status: ('A' for Active; 'I' for Inactive)
REMARK    1  A    between atoms: C_1  and  C_2
REMARK    2  A    between atoms: C_7  and  C_8
REMARK    3  A    between atoms: C_7  and  C_9
REMARK    4  A    between atoms: C_13  and  C_14
REMARK    5  A    between atoms: C_15  and  O_16
REMARK    6  A    between atoms: C_15  and  C_17
REMARK    7  A    between atoms: C_17  and  C_18
REMARK    8  A    between atoms: C_18  and  C_19
REMARK                            x       y       z     vdW  Elec       q    Type
REMARK                         _______ _______ _______ _____ _____    ______ ____
ROOT
ATOM      1  C   UNL     1      -0.339   3.722 -25.501  0.00  0.00    +0.018 C 
ATOM      2  C   UNL     1      -1.396   3.639 -24.728  0.00  0.00    +0.084 C 
ATOM      3  C   UNL     1      -2.591   3.624 -25.270  0.00  0.00    +0.139 C 
ATOM      4  C   UNL     1      -3.655   3.541 -24.504  0.00  0.00    +0.079 C 
ATOM      5  C   UNL     1      -3.525   3.473 -23.204  0.00  0.00    +0.010 C 
ATOM      6  C   UNL     1      -4.586   3.390 -22.437  0.00  0.00    -0.031 C 
ATOM      7  C   UNL     1      -4.457   3.321 -21.131  0.00  0.00    +0.007 C 
ATOM      8  C   UNL     1      -3.260   3.336 -20.593  0.00  0.00    +0.001 C 
ATOM      9  C   UNL     1      -2.196   3.419 -21.355  0.00  0.00    +0.010 C 
ATOM     10  C   UNL     1      -5.160   3.435 -23.618  0.00  0.00    +0.011 C 
ATOM     11  C   UNL     1      -5.848   3.322 -22.083  0.00  0.00    +0.011 C 
ATOM     12  C   UNL     1      -2.333   3.487 -22.661  0.00  0.00    +0.001 C 
ATOM     13  C   UNL     1      -1.491   3.487 -22.089  0.00  0.00    +0.014 C 
ATOM     14  O   UNL     1      -2.724   3.693 -26.573  0.00  0.00    -0.297 OA
ATOM     15  C   UNL     1      -1.263   3.570 -23.426  0.00  0.00    +0.081 C 
ENDROOT
BRANCH  15  16
ATOM     16  O   UNL     1      -0.556   3.535 -22.323  0.00  0.00    -0.387 OA
ATOM     17  H   UNL     1       0.306   3.953 -22.477  0.00  0.00    +0.210 HD
ENDBRANCH  15  16
BRANCH  15  18
ATOM     18  C   UNL     1      -0.007   3.640 -23.814  0.00  0.00    +0.041 C 
BRANCH  18  19
ATOM     19  C   UNL     1       0.673   4.734 -23.720  0.00  0.00    +0.041 C 
BRANCH  19  20
ATOM     20  C   UNL     1       1.959   4.680 -23.460  0.00  0.00    -0.010 A 
ATOM     21  C   UNL     1       2.725   3.629 -23.626  0.00  0.00    +0.044 A 
ATOM     22  C   UNL     1       3.945   3.954 -23.261  0.00  0.00    +0.195 A 
ATOM     23  O   UNL     1       3.929   5.207 -22.870  0.00  0.00    -0.471 OA
ATOM     24  C   UNL     1       2.702   5.656 -22.993  0.00  0.00    +0.198 A 
ENDBRANCH  19  20
ENDBRANCH  18  19
ENDBRANCH  15  18
TORSDOF 4
ENDMDL
