MODEL 1
REMARK VINA RESULT:    -9.511      0.000      0.000
REMARK INTER + INTRA:         -11.811
REMARK INTER:                 -11.460
REMARK INTRA:                  -0.351
REMARK UNBOUND:                -0.632
REMARK  Name = COc1ccc2c(c1Oc1ccccc1)[C@@]13CCN(C)[C@H](C2)[C@@H]1[C@@H](C)CC(=O)C3 ZINC000100393769
REMARK  6 active torsions:
REMARK  status: ('A' for Active; 'I' for Inactive)
REMARK    1  A    between atoms: C_1  and  O_2
REMARK    2  A    between atoms: O_2  and  C_3
REMARK    3  A    between atoms: C_8  and  O_9
REMARK    4  A    between atoms: O_9  and  C_10
REMARK    5  A    between atoms: N_19  and  C_20
REMARK    6  A    between atoms: C_24  and  C_25
REMARK                            x       y       z     vdW  Elec       q    Type
REMARK                         _______ _______ _______ _____ _____    ______ ____
ROOT
ATOM      1  C   UNL     1      -1.788   2.702 -21.223  0.00  0.00    +0.162 A 
ATOM      2  C   UNL     1      -2.945   2.724 -20.721  0.00  0.00    +0.050 A 
ATOM      3  C   UNL     1      -3.928   2.955 -21.477  0.00  0.00    +0.008 A 
ATOM      4  C   UNL     1      -3.691   3.188 -22.902  0.00  0.00    -0.035 A 
ATOM      5  C   UNL     1      -2.696   3.154 -23.248  0.00  0.00    +0.009 A 
ATOM      6  C   UNL     1      -2.327   3.275 -24.115  0.00  0.00    +0.019 C 
ATOM      7  C   UNL     1      -2.786   3.032 -22.519  0.00  0.00    +0.063 C 
ATOM      8  C   UNL     1      -4.204   3.104 -22.160  0.00  0.00    +0.132 C 
ATOM      9  N   UNL     1      -4.992   3.330 -22.991  0.00  0.00    +0.236 N 
ATOM     10  H   UNL     1      -5.412   3.534 -23.897  0.00  0.00    +0.203 HD
ATOM     11  C   UNL     1      -4.583   3.562 -24.497  0.00  0.00    +0.073 C 
ATOM     12  C   UNL     1      -5.964   3.263 -22.092  0.00  0.00    +0.190 C 
ATOM     13  C   UNL     1      -1.144   3.235 -24.531  0.00  0.00    +0.086 C 
ATOM     14  C   UNL     1      -0.904   3.437 -25.785  0.00  0.00    +0.134 C 
ATOM     15  O   UNL     1       0.297   3.399 -26.219  0.00  0.00    -0.297 OA
ATOM     16  C   UNL     1      -1.872   3.683 -26.632  0.00  0.00    +0.078 C 
ATOM     17  C   UNL     1      -3.101   3.731 -26.238  0.00  0.00    +0.002 C 
ATOM     18  C   UNL     1      -4.048   3.972 -27.067  0.00  0.00    +0.008 C 
ATOM     19  C   UNL     1      -3.381   3.541 -25.031  0.00  0.00    +0.052 C 
ATOM     20  C   UNL     1      -4.681   3.419 -23.652  0.00  0.00    +0.090 C 
ATOM     21  C   UNL     1      -1.651   2.916 -22.484  0.00  0.00    +0.174 A 
ENDROOT
BRANCH   1  23
ATOM     22  C   UNL     1       0.100   1.432 -20.640  0.00  0.00    +0.277 C 
ATOM     23  O   UNL     1      -0.593   2.477 -20.615  0.00  0.00    -0.491 OA
ENDBRANCH   1  23
BRANCH  21  24
ATOM     24  O   UNL     1      -0.366   2.960 -23.418  0.00  0.00    -0.452 OA
BRANCH  24  25
ATOM     25  C   UNL     1       0.865   3.621 -23.352  0.00  0.00    +0.129 A 
ATOM     26  C   UNL     1       1.885   2.851 -23.341  0.00  0.00    +0.046 A 
ATOM     27  C   UNL     1       3.059   3.352 -23.282  0.00  0.00    +0.004 A 
ATOM     28  C   UNL     1       3.212   4.617 -23.234  0.00  0.00    +0.000 A 
ATOM     29  C   UNL     1       2.191   5.389 -23.244  0.00  0.00    +0.004 A 
ATOM     30  C   UNL     1       1.016   4.889 -23.304  0.00  0.00    +0.046 A 
ENDBRANCH  24  25
ENDBRANCH  21  24
TORSDOF 3
ENDMDL
