MODEL 1
REMARK VINA RESULT:   -10.959      0.000      0.000
REMARK INTER + INTRA:         -12.067
REMARK INTER:                 -11.951
REMARK INTRA:                  -0.117
REMARK UNBOUND:                -0.148
REMARK  Name = COc1ccc2c3c1O[C@@H]1[C@@H](O)C=C[C@@H]4[C@@H](C2)N(C=O)CC[C@]314     ZINC000253503930
REMARK  3 active torsions:
REMARK  status: ('A' for Active; 'I' for Inactive)
REMARK    1  A    between atoms: C_1  and  O_2
REMARK    2  A    between atoms: O_2  and  C_3
REMARK    3  A    between atoms: C_11  and  O_12
REMARK                            x       y       z     vdW  Elec       q    Type
REMARK                         _______ _______ _______ _____ _____    ______ ____
ROOT
ATOM      1  C   UNL     1       0.931   2.644 -23.926  0.00  0.00    +0.162 A 
ATOM      2  C   UNL     1       1.069   2.168 -22.762  0.00  0.00    +0.050 A 
ATOM      3  C   UNL     1       0.082   2.057 -22.002  0.00  0.00    +0.008 A 
ATOM      4  C   UNL     1      -1.050   2.419 -22.396  0.00  0.00    -0.038 A 
ATOM      5  C   UNL     1      -1.210   2.896 -23.550  0.00  0.00    +0.012 A 
ATOM      6  C   UNL     1      -2.342   3.256 -23.937  0.00  0.00    +0.049 C 
ATOM      7  C   UNL     1      -3.579   3.699 -24.489  0.00  0.00    +0.035 C 
ATOM      8  C   UNL     1      -4.711   3.587 -23.655  0.00  0.00    +0.109 C 
ATOM      9  N   UNL     1      -4.519   3.051 -22.364  0.00  0.00    -0.300 N 
ATOM     10  C   UNL     1      -5.473   2.912 -21.548  0.00  0.00    +0.328 C 
ATOM     11  O   UNL     1      -6.638   3.251 -21.864  0.00  0.00    -0.279 OA
ATOM     12  C   UNL     1      -3.192   2.670 -22.017  0.00  0.00    +0.088 C 
ATOM     13  C   UNL     1      -3.331   3.146 -23.180  0.00  0.00    +0.046 C 
ATOM     14  C   UNL     1      -4.477   3.511 -23.573  0.00  0.00    -0.022 C 
ATOM     15  C   UNL     1      -4.619   3.983 -24.723  0.00  0.00    +0.004 C 
ATOM     16  C   UNL     1      -3.626   4.099 -25.498  0.00  0.00    +0.178 C 
ATOM     17  C   UNL     1      -2.495   3.736 -25.104  0.00  0.00    +0.217 C 
ATOM     18  O   UNL     1      -1.028   3.593 -25.438  0.00  0.00    -0.481 OA
ATOM     19  C   UNL     1      -2.060   2.308 -21.624  0.00  0.00    +0.058 C 
ATOM     20  C   UNL     1      -0.216   3.009 -24.320  0.00  0.00    +0.167 A 
ENDROOT
BRANCH   1  22
ATOM     21  C   UNL     1       2.773   1.839 -24.736  0.00  0.00    +0.277 C 
ATOM     22  O   UNL     1       1.921   2.753 -24.682  0.00  0.00    -0.491 OA
ENDBRANCH   1  22
BRANCH  16  23
ATOM     23  O   UNL     1      -3.774   4.570 -26.645  0.00  0.00    -0.384 OA
ATOM     24  H   UNL     1      -4.440   5.276 -26.621  0.00  0.00    +0.210 HD
ENDBRANCH  16  23
TORSDOF 2
ENDMDL
