MODEL 1
REMARK VINA RESULT:   -10.018      0.000      0.000
REMARK INTER + INTRA:         -11.335
REMARK INTER:                 -11.213
REMARK INTRA:                  -0.122
REMARK UNBOUND:                -0.145
REMARK  Name = COc1ccc2c(c1O)[C@@]13CCN(C)[C@@H](C2)[C@@H]1C(Br)=CC=C3C             ZINC000253504282
REMARK  5 active torsions:
REMARK  status: ('A' for Active; 'I' for Inactive)
REMARK    1  A    between atoms: C_1  and  O_2
REMARK    2  A    between atoms: O_2  and  C_3
REMARK    3  A    between atoms: C_8  and  O_9
REMARK    4  A    between atoms: N_13  and  C_14
REMARK    5  A    between atoms: C_22  and  C_23
REMARK                            x       y       z     vdW  Elec       q    Type
REMARK                         _______ _______ _______ _____ _____    ______ ____
ROOT
ATOM      1  C   UNL     1      -4.906   3.458 -22.892  0.00  0.00    +0.162 A 
ATOM      2  C   UNL     1      -5.198   3.789 -24.084  0.00  0.00    +0.049 A 
ATOM      3  C   UNL     1      -4.270   3.795 -24.954  0.00  0.00    +0.008 A 
ATOM      4  C   UNL     1      -2.898   3.420 -24.551  0.00  0.00    -0.034 A 
ATOM      5  C   UNL     1      -2.735   3.154 -23.527  0.00  0.00    +0.012 A 
ATOM      6  C   UNL     1      -1.940   2.884 -23.059  0.00  0.00    +0.038 C 
ATOM      7  C   UNL     1      -3.443   3.339 -23.699  0.00  0.00    +0.067 C 
ATOM      8  C   UNL     1      -3.544   3.686 -25.134  0.00  0.00    +0.132 C 
ATOM      9  N   UNL     1      -2.579   3.641 -25.810  0.00  0.00    +0.236 N 
ATOM     10  H   UNL     1      -1.617   3.513 -26.122  0.00  0.00    +0.203 HD
ATOM     11  C   UNL     1      -1.153   3.215 -25.234  0.00  0.00    +0.078 C 
ATOM     12  C   UNL     1      -3.315   4.028 -26.848  0.00  0.00    +0.190 C 
ATOM     13  C   UNL     1      -1.734   2.566 -21.850  0.00  0.00    -0.061 C 
ATOM     14  C   UNL     1      -2.647   2.560 -20.994  0.00  0.00    +0.040 C 
ATOM     15  C   UNL     1      -0.534   2.231 -21.464  0.00  0.00    +0.001 C 
ATOM     16  C   UNL     1       0.475   2.217 -22.319  0.00  0.00    +0.011 C 
ATOM     17  C   UNL     1       0.308   2.536 -23.570  0.00  0.00    +0.005 C 
ATOM     18 BR   UNL     1       1.300   2.519 -24.396  0.00  0.00    -0.054 Br
ATOM     19  C   UNL     1      -0.841   2.867 -23.983  0.00  0.00    +0.090 C 
ATOM     20  C   UNL     1      -1.976   3.428 -25.425  0.00  0.00    +0.090 C 
ATOM     21  C   UNL     1      -3.684   3.139 -22.600  0.00  0.00    +0.163 A 
ENDROOT
BRANCH   1  23
ATOM     22  C   UNL     1      -6.818   2.703 -21.702  0.00  0.00    +0.277 C 
ATOM     23  O   UNL     1      -5.748   3.382 -21.797  0.00  0.00    -0.491 OA
ENDBRANCH   1  23
BRANCH  21  24
ATOM     24  O   UNL     1      -3.419   2.811 -21.396  0.00  0.00    -0.503 OA
ATOM     25  H   UNL     1      -2.859   3.352 -20.875  0.00  0.00    +0.292 HD
ENDBRANCH  21  24
TORSDOF 2
ENDMDL
