MODEL 1
REMARK VINA RESULT:   -11.938      0.000      0.000
REMARK INTER + INTRA:         -11.083
REMARK INTER:                 -11.281
REMARK INTRA:                   0.198
REMARK UNBOUND:                 1.553
REMARK  Name = ZINC000000265501
REMARK  2 active torsions:
REMARK  status: ('A' for Active; 'I' for Inactive)
REMARK    1  A    between atoms: C_1  and  N_2
REMARK    2  A    between atoms: C_3  and  C_4
REMARK                            x       y       z     vdW  Elec       q    Type
REMARK                         _______ _______ _______ _____ _____    ______ ____
ROOT
ATOM      1  C   UNL     1      -1.369   2.638 -21.524  0.00  0.00    +0.149 C 
ATOM      2  N   UNL     1      -2.082   3.169 -22.473  0.00  0.00    -0.343 N 
ATOM      3  C   UNL     1      -1.496   3.704 -23.504  0.00  0.00    +0.053 A 
ATOM      4  C   UNL     1      -2.209   4.236 -24.452  0.00  0.00    +0.077 A 
ATOM      5  C   UNL     1      -3.507   4.232 -24.370  0.00  0.00    +0.190 A 
ATOM      6  C   UNL     1      -4.091   3.697 -23.340  0.00  0.00    +0.045 A 
ATOM      7  C   UNL     1      -5.388   3.693 -23.258  0.00  0.00    +0.014 A 
ATOM      8  C   UNL     1      -5.974   3.158 -22.227  0.00  0.00    +0.001 A 
ATOM      9  C   UNL     1      -5.261   2.627 -21.279  0.00  0.00    +0.002 A 
ATOM     10  C   UNL     1      -3.963   2.630 -21.361  0.00  0.00    +0.026 A 
ATOM     11  O   UNL     1      -4.219   4.763 -25.319  0.00  0.00    -0.287 OA
ATOM     12  C   UNL     1      -3.379   3.165 -22.391  0.00  0.00    +0.053 A 
ENDROOT
BRANCH   3  13
ATOM     13  C   UNL     1      -0.199   3.708 -23.585  0.00  0.00    +0.002 A 
ATOM     14  C   UNL     1       0.463   4.808 -23.383  0.00  0.00    +0.014 A 
ATOM     15  C   UNL     1       1.760   4.811 -23.464  0.00  0.00    +0.050 A 
ATOM     16  C   UNL     1       2.397   3.712 -23.747  0.00  0.00    +0.166 A 
ATOM     17  C   UNL     1       1.735   2.611 -23.949  0.00  0.00    +0.167 A 
ATOM     18  O   UNL     1       2.591   1.670 -24.211  0.00  0.00    -0.453 OA
ATOM     19  C   UNL     1       3.783   2.188 -24.171  0.00  0.00    +0.466 C 
ATOM     20  O   UNL     1       3.662   3.451 -23.884  0.00  0.00    -0.453 OA
ATOM     21  C   UNL     1       0.437   2.610 -23.867  0.00  0.00    +0.059 A 
ENDBRANCH   3  13
TORSDOF 1
ENDMDL
