MODEL 1
REMARK VINA RESULT:    -9.759      0.000      0.000
REMARK INTER + INTRA:          -9.759
REMARK INTER:                  -9.759
REMARK INTRA:                   0.000
REMARK UNBOUND:                 0.000
REMARK  Name = ZINC000004104807
REMARK  3 active torsions:
REMARK  status: ('A' for Active; 'I' for Inactive)
REMARK    1  A    between atoms: C_1  and  C_2
REMARK    2  A    between atoms: C_10  and  C_11
REMARK    3  A    between atoms: C_15  and  C_16
REMARK                            x       y       z     vdW  Elec       q    Type
REMARK                         _______ _______ _______ _____ _____    ______ ____
ROOT
ATOM      1  C   UNL     1       0.186   2.614 -24.414  0.00  0.00    +0.019 C 
ATOM      2  C   UNL     1      -0.386   2.545 -23.248  0.00  0.00    +0.101 C 
ATOM      3  C   UNL     1       0.199   2.247 -22.126  0.00  0.00    +0.311 C 
ATOM      4  O   UNL     1      -0.696   2.280 -21.185  0.00  0.00    -0.458 OA
ATOM      5  C   UNL     1      -1.835   2.598 -21.725  0.00  0.00    +0.212 C 
ATOM      6  C   UNL     1      -3.022   2.759 -21.220  0.00  0.00    +0.191 C 
ATOM      7  O   UNL     1      -4.209   2.921 -20.715  0.00  0.00    -0.361 OA
ATOM      8  C   UNL     1      -4.017   3.084 -21.990  0.00  0.00    +0.097 C 
ATOM      9  C   UNL     1      -5.277   3.365 -22.143  0.00  0.00    +0.044 C 
ATOM     10  C   UNL     1      -3.825   3.248 -23.265  0.00  0.00    +0.037 C 
ATOM     11  C   UNL     1      -4.821   3.574 -24.036  0.00  0.00    +0.003 C 
ATOM     12  C   UNL     1      -4.629   3.737 -25.311  0.00  0.00    +0.003 C 
ATOM     13  C   UNL     1      -3.442   3.576 -25.816  0.00  0.00    -0.014 C 
ATOM     14  C   UNL     1      -3.250   3.739 -27.091  0.00  0.00    +0.007 C 
ATOM     15  C   UNL     1      -2.447   3.251 -25.046  0.00  0.00    +0.004 C 
ATOM     16  C   UNL     1      -2.638   3.087 -23.770  0.00  0.00    +0.008 C 
ATOM     17  O   UNL     1       1.459   1.966 -21.973  0.00  0.00    -0.251 OA
ATOM     18  C   UNL     1      -1.643   2.761 -23.000  0.00  0.00    +0.046 C 
ENDROOT
TORSDOF 0
ENDMDL
