MODEL 1
REMARK VINA RESULT:    -9.310      0.000      0.000
REMARK INTER + INTRA:          -9.854
REMARK INTER:                  -9.854
REMARK INTRA:                   0.000
REMARK UNBOUND:                 0.000
REMARK  Name = ZINC000004104702
REMARK  4 active torsions:
REMARK  status: ('A' for Active; 'I' for Inactive)
REMARK    1  A    between atoms: C_1  and  C_2
REMARK    2  A    between atoms: C_5  and  O_6
REMARK    3  A    between atoms: C_14  and  C_15
REMARK    4  A    between atoms: C_14  and  C_16
REMARK                            x       y       z     vdW  Elec       q    Type
REMARK                         _______ _______ _______ _____ _____    ______ ____
ROOT
ATOM      1  C   UNL     1      -1.795   3.749 -25.437  0.00  0.00    +0.008 C 
ATOM      2  C   UNL     1      -2.929   3.768 -24.802  0.00  0.00    -0.007 C 
ATOM      3  C   UNL     1      -4.049   4.246 -25.254  0.00  0.00    +0.007 C 
ATOM      4  C   UNL     1      -4.956   4.086 -24.336  0.00  0.00    +0.043 C 
ATOM      5  C   UNL     1      -4.394   3.508 -23.316  0.00  0.00    +0.127 C 
ATOM      6  C   UNL     1      -5.033   3.206 -22.224  0.00  0.00    +0.165 C 
ATOM      7  C   UNL     1      -4.575   2.631 -21.150  0.00  0.00    +0.078 C 
ATOM      8  C   UNL     1      -3.368   2.219 -20.904  0.00  0.00    +0.012 C 
ATOM      9  C   UNL     1      -2.318   2.278 -21.670  0.00  0.00    -0.001 C 
ATOM     10  C   UNL     1      -2.218   2.764 -22.871  0.00  0.00    +0.005 C 
ATOM     11  C   UNL     1      -1.176   2.250 -22.289  0.00  0.00    -0.028 C 
ATOM     12  C   UNL     1      -0.441   1.676 -21.382  0.00  0.00    +0.011 C 
ATOM     13  C   UNL     1      -0.288   2.422 -23.222  0.00  0.00    +0.011 C 
ATOM     14  O   UNL     1      -6.294   3.518 -22.203  0.00  0.00    -0.294 OA
ATOM     15  C   UNL     1      -3.142   3.312 -23.603  0.00  0.00    +0.035 C 
ENDROOT
BRANCH   5  16
ATOM     16  O   UNL     1      -5.660   3.799 -23.240  0.00  0.00    -0.381 OA
ATOM     17  H   UNL     1      -5.796   4.475 -22.559  0.00  0.00    +0.211 HD
ENDBRANCH   5  16
TORSDOF 1
ENDMDL
