MODEL 1
REMARK VINA RESULT:   -10.097      0.000      0.000
REMARK INTER + INTRA:         -14.131
REMARK INTER:                 -13.303
REMARK INTRA:                  -0.828
REMARK UNBOUND:                -0.788
REMARK  Name = ZINC000003894277
REMARK  8 active torsions:
REMARK  status: ('A' for Active; 'I' for Inactive)
REMARK    1  A    between atoms: C_7  and  O_8
REMARK    2  A    between atoms: O_8  and  C_9
REMARK    3  A    between atoms: C_11  and  C_12
REMARK    4  A    between atoms: C_12  and  O_13
REMARK    5  A    between atoms: C_14  and  O_15
REMARK    6  A    between atoms: C_16  and  O_17
REMARK    7  A    between atoms: C_18  and  O_19
REMARK    8  A    between atoms: C_20  and  O_21
REMARK                            x       y       z     vdW  Elec       q    Type
REMARK                         _______ _______ _______ _____ _____    ______ ____
ROOT
ATOM      1  C   UNL     1       1.496   2.929 -23.945  0.00  0.00    +0.339 C 
ATOM      2  O   UNL     1       1.806   2.830 -22.687  0.00  0.00    -0.331 OA
ATOM      3  C   UNL     1       2.653   1.925 -22.295  0.00  0.00    +0.179 C 
ATOM      4  C   UNL     1       3.192   1.120 -23.163  0.00  0.00    +0.177 C 
ATOM      5  C   UNL     1       2.882   1.219 -24.422  0.00  0.00    +0.180 C 
ATOM      6  C   UNL     1       2.034   2.124 -24.813  0.00  0.00    +0.214 C 
ENDROOT
BRANCH   5   7
ATOM      7  O   UNL     1       3.420   0.415 -25.289  0.00  0.00    -0.386 OA
ATOM      8  H   UNL     1       2.889   0.412 -26.101  0.00  0.00    +0.210 HD
ENDBRANCH   5   7
BRANCH   4   9
ATOM      9  O   UNL     1       4.039   0.215 -22.771  0.00  0.00    -0.386 OA
ATOM     10  H   UNL     1       4.075   0.204 -21.801  0.00  0.00    +0.210 HD
ENDBRANCH   4   9
BRANCH   6  11
ATOM     11  O   UNL     1       1.725   2.224 -26.071  0.00  0.00    -0.383 OA
ATOM     12  H   UNL     1       1.329   1.391 -26.373  0.00  0.00    +0.210 HD
ENDBRANCH   6  11
BRANCH   1  13
ATOM     13  O   UNL     1       0.648   3.834 -24.336  0.00  0.00    -0.457 OA
BRANCH  13  20
ATOM     14  O   UNL     1      -6.095   3.239 -21.773  0.00  0.00    -0.245 OA
ATOM     15  C   UNL     1      -4.829   3.375 -22.039  0.00  0.00    +0.337 A 
ATOM     16  C   UNL     1      -3.983   3.598 -21.079  0.00  0.00    +0.092 A 
ATOM     17  C   UNL     1      -2.718   3.734 -21.345  0.00  0.00    +0.018 A 
ATOM     18  C   UNL     1      -2.299   3.648 -22.574  0.00  0.00    +0.021 A 
ATOM     19  C   UNL     1      -1.035   3.784 -22.841  0.00  0.00    +0.061 A 
ATOM     20  C   UNL     1      -0.617   3.698 -24.069  0.00  0.00    +0.166 A 
ATOM     21  C   UNL     1      -1.464   3.475 -25.029  0.00  0.00    +0.162 A 
ATOM     22  C   UNL     1      -2.729   3.339 -24.763  0.00  0.00    +0.096 A 
ATOM     23  C   UNL     1      -3.146   3.425 -23.535  0.00  0.00    +0.143 A 
ATOM     24  O   UNL     1      -4.412   3.289 -23.267  0.00  0.00    -0.422 OA
BRANCH  21  25
ATOM     25  O   UNL     1      -1.046   3.389 -26.257  0.00  0.00    -0.503 OA
ATOM     26  H   UNL     1      -0.909   4.167 -26.761  0.00  0.00    +0.292 HD
ENDBRANCH  21  25
ENDBRANCH  13  20
ENDBRANCH   1  13
BRANCH   3  27
ATOM     27  C   UNL     1       2.963   1.824 -21.037  0.00  0.00    +0.190 C 
BRANCH  27  28
ATOM     28  O   UNL     1       4.135   2.203 -20.624  0.00  0.00    -0.392 OA
ATOM     29  H   UNL     1       4.774   2.132 -21.351  0.00  0.00    +0.210 HD
ENDBRANCH  27  28
ENDBRANCH   3  27
TORSDOF 8
ENDMDL
