MODEL 1
REMARK VINA RESULT:   -10.691      0.000      0.000
REMARK INTER + INTRA:         -12.057
REMARK INTER:                 -11.911
REMARK INTRA:                  -0.146
REMARK UNBOUND:                -0.116
REMARK  Name = ZINC000005909803
REMARK  4 active torsions:
REMARK  status: ('A' for Active; 'I' for Inactive)
REMARK    1  A    between atoms: C_1  and  O_2
REMARK    2  A    between atoms: O_2  and  C_3
REMARK    3  A    between atoms: C_15  and  O_16
REMARK    4  A    between atoms: N_19  and  C_20
REMARK                            x       y       z     vdW  Elec       q    Type
REMARK                         _______ _______ _______ _____ _____    ______ ____
ROOT
ATOM      1  C   UNL     1       0.514   2.564 -23.210  0.00  0.00    +0.162 A 
ATOM      2  C   UNL     1       0.479   2.013 -22.071  0.00  0.00    +0.050 A 
ATOM      3  C   UNL     1      -0.603   1.910 -21.450  0.00  0.00    +0.008 A 
ATOM      4  C   UNL     1      -1.657   2.352 -21.956  0.00  0.00    -0.034 A 
ATOM      5  C   UNL     1      -1.645   2.904 -23.091  0.00  0.00    +0.015 A 
ATOM      6  C   UNL     1      -2.701   3.345 -23.595  0.00  0.00    +0.086 C 
ATOM      7  C   UNL     1      -3.837   3.884 -24.268  0.00  0.00    +0.070 C 
ATOM      8  C   UNL     1      -5.071   3.781 -23.591  0.00  0.00    +0.132 C 
ATOM      9  N   UNL     1      -5.073   3.163 -22.326  0.00  0.00    +0.238 N 
ATOM     10  H   UNL     1      -5.945   3.070 -21.805  0.00  0.00    +0.203 HD
ATOM     11  C   UNL     1      -6.125   3.033 -21.662  0.00  0.00    +0.191 C 
ATOM     12  C   UNL     1      -3.820   2.692 -21.836  0.00  0.00    +0.106 C 
ATOM     13  C   UNL     1      -3.778   3.241 -22.974  0.00  0.00    +0.141 C 
ATOM     14  C   UNL     1      -4.851   3.685 -23.477  0.00  0.00    +0.017 C 
ATOM     15  C   UNL     1      -4.830   4.232 -24.605  0.00  0.00    +0.049 C 
ATOM     16  C   UNL     1      -3.742   4.344 -25.244  0.00  0.00    +0.197 C 
ATOM     17  O   UNL     1      -3.724   4.890 -26.369  0.00  0.00    -0.289 OA
ATOM     18  C   UNL     1      -2.682   3.901 -24.739  0.00  0.00    +0.257 C 
ATOM     19  O   UNL     1      -1.191   3.701 -24.893  0.00  0.00    -0.476 OA
ATOM     20  C   UNL     1      -2.765   2.251 -21.331  0.00  0.00    +0.093 C 
ATOM     21  C   UNL     1      -0.556   3.011 -23.722  0.00  0.00    +0.167 A 
ENDROOT
BRANCH   1  23
ATOM     22  C   UNL     1       2.384   3.603 -23.565  0.00  0.00    +0.277 C 
ATOM     23  O   UNL     1       1.597   2.665 -23.828  0.00  0.00    -0.491 OA
ENDBRANCH   1  23
BRANCH  13  24
ATOM     24  O   UNL     1      -2.725   2.797 -22.463  0.00  0.00    -0.378 OA
ATOM     25  H   UNL     1      -2.209   3.532 -22.097  0.00  0.00    +0.211 HD
ENDBRANCH  13  24
TORSDOF 2
ENDMDL
