MODEL 1
REMARK VINA RESULT:    -9.650      0.000      0.000
REMARK INTER + INTRA:          -9.932
REMARK INTER:                  -9.932
REMARK INTRA:                   0.000
REMARK UNBOUND:                 0.000
REMARK  Name = ZINC000019800973
REMARK  4 active torsions:
REMARK  status: ('A' for Active; 'I' for Inactive)
REMARK    1  A    between atoms: C_1  and  C_2
REMARK    2  A    between atoms: C_9  and  O_10
REMARK    3  A    between atoms: C_14  and  C_15
REMARK    4  A    between atoms: C_14  and  C_16
REMARK                            x       y       z     vdW  Elec       q    Type
REMARK                         _______ _______ _______ _____ _____    ______ ____
ROOT
ATOM      1  C   UNL     1      -3.914   2.556 -20.630  0.00  0.00    +0.008 C 
ATOM      2  C   UNL     1      -4.281   2.993 -21.798  0.00  0.00    -0.010 C 
ATOM      3  C   UNL     1      -5.483   3.362 -22.132  0.00  0.00    +0.004 C 
ATOM      4  C   UNL     1      -5.456   3.735 -23.377  0.00  0.00    +0.011 C 
ATOM      5  C   UNL     1      -4.239   3.595 -23.813  0.00  0.00    +0.059 C 
ATOM      6  C   UNL     1      -3.875   3.883 -25.028  0.00  0.00    +0.139 C 
ATOM      7  C   UNL     1      -2.697   3.784 -25.566  0.00  0.00    +0.106 C 
ATOM      8  C   UNL     1      -1.590   3.371 -25.023  0.00  0.00    +0.126 C 
ATOM      9  C   UNL     1      -1.389   2.957 -23.807  0.00  0.00    +0.028 C 
ATOM     10  C   UNL     1      -2.245   2.853 -22.835  0.00  0.00    +0.005 C 
ATOM     11  C   UNL     1      -1.003   2.518 -22.645  0.00  0.00    -0.026 C 
ATOM     12  C   UNL     1      -1.055   2.151 -21.400  0.00  0.00    +0.011 C 
ATOM     13  C   UNL     1       0.257   2.311 -22.890  0.00  0.00    +0.011 C 
ATOM     14  O   UNL     1      -4.816   4.330 -25.807  0.00  0.00    -0.297 OA
ATOM     15  C   UNL     1      -3.514   3.137 -22.837  0.00  0.00    +0.006 C 
ENDROOT
BRANCH   8  16
ATOM     16  O   UNL     1      -0.547   3.374 -25.798  0.00  0.00    -0.391 OA
ATOM     17  H   UNL     1      -0.691   3.991 -26.533  0.00  0.00    +0.210 HD
ENDBRANCH   8  16
TORSDOF 1
ENDMDL
