MODEL 1
REMARK VINA RESULT:   -11.068      0.000      0.000
REMARK INTER + INTRA:         -11.715
REMARK INTER:                 -11.715
REMARK INTRA:                   0.000
REMARK UNBOUND:                 0.000
REMARK  Name = C[C@]12CC[C@@H]3c4cc(Br)c(O)c(Br)c4CC[C@H]3[C@H]1CC[C@@H]2O          ZINC000225364540
REMARK  3 active torsions:
REMARK  status: ('A' for Active; 'I' for Inactive)
REMARK    1  A    between atoms: C_1  and  C_2
REMARK    2  A    between atoms: C_10  and  O_11
REMARK    3  A    between atoms: C_21  and  O_22
REMARK                            x       y       z     vdW  Elec       q    Type
REMARK                         _______ _______ _______ _____ _____    ______ ____
ROOT
ATOM      1  C   UNL     1       2.750   2.352 -24.761  0.00  0.00    +0.014 C 
ATOM      2  C   UNL     1       2.024   2.108 -23.709  0.00  0.00    -0.003 C 
ATOM      3  C   UNL     1       1.375   2.683 -24.678  0.00  0.00    +0.010 C 
ATOM      4  C   UNL     1       0.112   2.961 -24.539  0.00  0.00    +0.009 C 
ATOM      5  C   UNL     1      -0.501   2.664 -23.432  0.00  0.00    +0.023 C 
ATOM      6  C   UNL     1      -1.763   2.942 -23.292  0.00  0.00    -0.039 A 
ATOM      7  C   UNL     1      -2.412   3.517 -24.261  0.00  0.00    +0.023 A 
ATOM      8  C   UNL     1      -3.675   3.795 -24.122  0.00  0.00    +0.061 A 
ATOM      9  C   UNL     1      -4.288   3.498 -23.015  0.00  0.00    +0.145 A 
ATOM     10  C   UNL     1      -3.638   2.923 -22.046  0.00  0.00    +0.064 A 
ATOM     11 BR   UNL     1      -4.251   2.626 -20.939  0.00  0.00    -0.046 Br
ATOM     12 BR   UNL     1      -4.324   4.370 -25.090  0.00  0.00    -0.046 Br
ATOM     13  C   UNL     1      -2.376   2.645 -22.185  0.00  0.00    -0.026 A 
ATOM     14  C   UNL     1      -1.726   2.070 -21.217  0.00  0.00    +0.037 C 
ATOM     15  C   UNL     1      -0.464   1.792 -21.356  0.00  0.00    +0.009 C 
ATOM     16  C   UNL     1       0.149   2.089 -22.463  0.00  0.00    +0.000 C 
ATOM     17  C   UNL     1       3.263   1.732 -23.596  0.00  0.00    +0.121 C 
ATOM     18  C   UNL     1       3.416   1.202 -22.419  0.00  0.00    +0.032 C 
ATOM     19  C   UNL     1       2.272   1.252 -21.805  0.00  0.00    +0.007 C 
ATOM     20  C   UNL     1       1.411   1.811 -22.602  0.00  0.00    +0.001 C 
ENDROOT
BRANCH   9  21
ATOM     21  O   UNL     1      -5.550   3.776 -22.875  0.00  0.00    -0.505 OA
ATOM     22  H   UNL     1      -5.986   4.304 -23.514  0.00  0.00    +0.292 HD
ENDBRANCH   9  21
BRANCH  17  23
ATOM     23  O   UNL     1       4.187   1.862 -24.501  0.00  0.00    -0.391 OA
ATOM     24  H   UNL     1       4.079   2.714 -24.953  0.00  0.00    +0.210 HD
ENDBRANCH  17  23
TORSDOF 2
ENDMDL
