MODEL 1
REMARK VINA RESULT:   -10.089      0.000      0.000
REMARK INTER + INTRA:         -10.089
REMARK INTER:                 -10.089
REMARK INTRA:                   0.000
REMARK UNBOUND:                 0.000
REMARK  Name = ZINC000003897051
REMARK  1 active torsions:
REMARK  status: ('A' for Active; 'I' for Inactive)
REMARK    1  A    between atoms: C_8  and  C_9
REMARK                            x       y       z     vdW  Elec       q    Type
REMARK                         _______ _______ _______ _____ _____    ______ ____
ROOT
ATOM      1  C   UNL     1       0.468   1.507 -21.131  0.00  0.00    +0.020 C 
ATOM      2  C   UNL     1       0.129   2.038 -22.268  0.00  0.00    +0.036 C 
ATOM      3  C   UNL     1       0.921   2.258 -23.275  0.00  0.00    +0.335 C 
ATOM      4  O   UNL     1       0.220   2.797 -24.227  0.00  0.00    -0.457 OA
ATOM      5  C   UNL     1      -1.005   2.911 -23.809  0.00  0.00    +0.185 C 
ATOM      6  C   UNL     1      -2.077   3.381 -24.374  0.00  0.00    +0.052 C 
ATOM      7  C   UNL     1      -3.206   3.383 -23.729  0.00  0.00    -0.022 C 
ATOM      8  C   UNL     1      -4.277   3.853 -24.295  0.00  0.00    +0.007 C 
ATOM      9  C   UNL     1      -5.405   3.854 -23.649  0.00  0.00    +0.005 C 
ATOM     10  C   UNL     1      -5.462   3.384 -22.438  0.00  0.00    +0.030 C 
ATOM     11  C   UNL     1      -4.390   2.914 -21.872  0.00  0.00    -0.073 C 
ATOM     12  C   UNL     1      -4.447   2.444 -20.661  0.00  0.00    +0.008 C 
ATOM     13  C   UNL     1      -3.149   3.852 -24.940  0.00  0.00    +0.012 C 
ATOM     14  C   UNL     1      -3.261   2.913 -22.517  0.00  0.00    +0.021 C 
ATOM     15  C   UNL     1      -2.190   2.442 -21.952  0.00  0.00    +0.020 C 
ATOM     16  O   UNL     1       2.192   1.985 -23.321  0.00  0.00    -0.245 OA
ATOM     17  C   UNL     1      -1.062   2.442 -22.598  0.00  0.00    +0.067 C 
ENDROOT
TORSDOF 0
ENDMDL
