MODEL 1
REMARK VINA RESULT:   -10.551      0.000      0.000
REMARK INTER + INTRA:         -11.261
REMARK INTER:                 -11.134
REMARK INTRA:                  -0.127
REMARK UNBOUND:                -0.093
REMARK  Name = ZINC000027729031
REMARK  3 active torsions:
REMARK  status: ('A' for Active; 'I' for Inactive)
REMARK    1  A    between atoms: C_1  and  O_2
REMARK    2  A    between atoms: O_2  and  C_3
REMARK    3  A    between atoms: N_12  and  C_13
REMARK                            x       y       z     vdW  Elec       q    Type
REMARK                         _______ _______ _______ _____ _____    ______ ____
ROOT
ATOM      1  C   UNL     1      -0.356   2.230 -22.942  0.00  0.00    +0.120 A 
ATOM      2  C   UNL     1      -0.583   2.284 -21.698  0.00  0.00    +0.046 A 
ATOM      3  C   UNL     1      -1.724   2.670 -21.303  0.00  0.00    +0.008 A 
ATOM      4  C   UNL     1      -2.740   3.039 -22.296  0.00  0.00    -0.038 A 
ATOM      5  C   UNL     1      -2.479   2.969 -23.319  0.00  0.00    -0.033 A 
ATOM      6  C   UNL     1      -2.978   3.156 -24.108  0.00  0.00    +0.015 C 
ATOM      7  C   UNL     1      -1.944   2.775 -22.831  0.00  0.00    +0.063 C 
ATOM      8  C   UNL     1      -2.423   2.914 -21.449  0.00  0.00    +0.132 C 
ATOM      9  N   UNL     1      -3.520   3.288 -21.258  0.00  0.00    +0.236 N 
ATOM     10  H   UNL     1      -4.468   3.618 -21.445  0.00  0.00    +0.203 HD
ATOM     11  C   UNL     1      -4.509   3.652 -22.445  0.00  0.00    +0.072 C 
ATOM     12  C   UNL     1      -3.371   3.210 -19.874  0.00  0.00    +0.190 C 
ATOM     13  C   UNL     1      -2.671   3.074 -25.323  0.00  0.00    +0.086 C 
ATOM     14  C   UNL     1      -3.545   3.392 -26.225  0.00  0.00    +0.134 C 
ATOM     15  O   UNL     1      -3.235   3.309 -27.470  0.00  0.00    -0.297 OA
ATOM     16  C   UNL     1      -4.750   3.801 -25.894  0.00  0.00    +0.075 C 
ATOM     17  C   UNL     1      -5.102   3.899 -24.652  0.00  0.00    +0.017 C 
ATOM     18  C   UNL     1      -4.286   3.600 -23.743  0.00  0.00    +0.049 C 
ATOM     19  C   UNL     1      -3.879   3.424 -21.894  0.00  0.00    +0.090 C 
ATOM     20  C   UNL     1      -1.293   2.569 -23.764  0.00  0.00    +0.050 A 
ENDROOT
BRANCH   1  22
ATOM     21  C   UNL     1       1.511   2.493 -24.503  0.00  0.00    +0.277 C 
ATOM     22  O   UNL     1       0.766   1.858 -23.708  0.00  0.00    -0.495 OA
ENDBRANCH   1  22
TORSDOF 1
ENDMDL
