MODEL 1
REMARK VINA RESULT:    -9.385      0.000      0.000
REMARK INTER + INTRA:          -9.659
REMARK INTER:                  -9.659
REMARK INTRA:                   0.000
REMARK UNBOUND:                 0.000
REMARK  Name = ZINC000004104725
REMARK  4 active torsions:
REMARK  status: ('A' for Active; 'I' for Inactive)
REMARK    1  A    between atoms: C_1  and  C_2
REMARK    2  A    between atoms: C_2  and  C_3
REMARK    3  A    between atoms: C_12  and  C_13
REMARK    4  A    between atoms: C_12  and  O_14
REMARK                            x       y       z     vdW  Elec       q    Type
REMARK                         _______ _______ _______ _____ _____    ______ ____
ROOT
ATOM      1  C   UNL     1      -5.460   3.326 -22.157  0.00  0.00    +0.011 C 
ATOM      2  C   UNL     1      -4.301   2.891 -21.762  0.00  0.00    -0.028 C 
ATOM      3  C   UNL     1      -3.044   2.562 -21.795  0.00  0.00    -0.001 C 
ATOM      4  C   UNL     1      -1.811   2.181 -21.641  0.00  0.00    +0.012 C 
ATOM      5  C   UNL     1      -0.846   2.189 -22.512  0.00  0.00    +0.075 C 
ATOM      6  C   UNL     1      -0.875   2.579 -23.752  0.00  0.00    +0.137 C 
ATOM      7  C   UNL     1      -1.877   3.058 -24.427  0.00  0.00    +0.061 C 
ATOM      8  C   UNL     1      -1.795   3.420 -25.672  0.00  0.00    +0.014 C 
ATOM      9  C   UNL     1      -2.964   3.851 -26.044  0.00  0.00    +0.035 C 
ATOM     10  C   UNL     1      -3.770   3.755 -25.028  0.00  0.00    +0.067 C 
ATOM     11  C   UNL     1      -4.758   3.762 -24.185  0.00  0.00    +0.041 C 
ATOM     12  C   UNL     1      -3.098   3.266 -24.029  0.00  0.00    +0.034 C 
ATOM     13  O   UNL     1       0.246   2.477 -24.402  0.00  0.00    -0.297 OA
ATOM     14  C   UNL     1      -4.582   2.587 -20.530  0.00  0.00    +0.011 C 
ATOM     15  C   UNL     1      -3.617   3.045 -22.858  0.00  0.00    +0.005 C 
ENDROOT
BRANCH  10  16
ATOM     16  O   UNL     1      -4.647   4.247 -25.852  0.00  0.00    -0.389 OA
ATOM     17  H   UNL     1      -5.355   4.680 -25.349  0.00  0.00    +0.210 HD
ENDBRANCH  10  16
TORSDOF 1
ENDMDL
