MODEL 1
REMARK VINA RESULT:   -10.095      0.000      0.000
REMARK INTER + INTRA:          -8.917
REMARK INTER:                 -10.081
REMARK INTRA:                   1.164
REMARK UNBOUND:                 2.359
REMARK  Name = ZINC000000898126
REMARK  4 active torsions:
REMARK  status: ('A' for Active; 'I' for Inactive)
REMARK    1  A    between atoms: C_2  and  C_3
REMARK    2  A    between atoms: C_3  and  C_4
REMARK    3  A    between atoms: C_3  and  C_5
REMARK    4  A    between atoms: C_3  and  C_6
REMARK                            x       y       z     vdW  Elec       q    Type
REMARK                         _______ _______ _______ _____ _____    ______ ____
ROOT
ATOM      1  C   UNL     1       0.843   3.924 -23.830  0.00  0.00    +0.047 A 
ATOM      2  C   UNL     1       0.010   3.811 -22.840  0.00  0.00    +0.023 A 
ATOM      3  C   UNL     1      -1.267   3.721 -23.071  0.00  0.00    +0.019 A 
ATOM      4  C   UNL     1      -2.100   3.608 -22.080  0.00  0.00    +0.023 A 
ATOM      5  C   UNL     1      -3.376   3.517 -22.312  0.00  0.00    +0.021 A 
ATOM      6  C   UNL     1      -4.398   3.398 -21.517  0.00  0.00    +0.049 A 
ATOM      7  C   UNL     1      -5.472   3.348 -22.249  0.00  0.00    +0.196 A 
ATOM      8  O   UNL     1      -5.114   3.436 -23.495  0.00  0.00    -0.463 OA
ATOM      9  C   UNL     1      -3.818   3.540 -23.534  0.00  0.00    +0.138 A 
ATOM     10  C   UNL     1      -2.984   3.653 -24.525  0.00  0.00    +0.093 A 
ATOM     11  C   UNL     1      -1.709   3.744 -24.293  0.00  0.00    +0.143 A 
ATOM     12  O   UNL     1      -0.874   3.857 -25.284  0.00  0.00    -0.422 OA
ATOM     13  C   UNL     1       0.401   3.947 -25.053  0.00  0.00    +0.341 A 
ATOM     14  O   UNL     1       1.235   4.060 -26.044  0.00  0.00    -0.245 OA
ENDROOT
BRANCH   1  15
ATOM     15  C   UNL     1       2.119   4.015 -23.599  0.00  0.00    +0.015 C 
ATOM     16  C   UNL     1       3.150   4.717 -23.231  0.00  0.00    +0.020 C 
ATOM     17  C   UNL     1       1.970   5.262 -23.265  0.00  0.00    +0.020 C 
BRANCH  15  19
ATOM     18  C   UNL     1       2.509   1.811 -23.343  0.00  0.00    +0.005 C 
ATOM     19  C   UNL     1       2.886   2.979 -23.772  0.00  0.00    -0.023 C 
ENDBRANCH  15  19
ENDBRANCH   1  15
TORSDOF 2
ENDMDL
