MODEL 1
REMARK VINA RESULT:    -9.008      0.000      0.000
REMARK INTER + INTRA:         -11.392
REMARK INTER:                 -11.947
REMARK INTRA:                   0.555
REMARK UNBOUND:                 0.512
REMARK  Name = ZINC000000338223
REMARK  10 active torsions:
REMARK  status: ('A' for Active; 'I' for Inactive)
REMARK    1  A    between atoms: C_1  and  O_2
REMARK    2  A    between atoms: O_2  and  C_3
REMARK    3  A    between atoms: C_6  and  C_7
REMARK    4  A    between atoms: C_7  and  C_8
REMARK    5  A    between atoms: C_11  and  O_12
REMARK    6  A    between atoms: O_12  and  C_13
REMARK    7  A    between atoms: C_14  and  O_15
REMARK    8  A    between atoms: O_15  and  C_16
REMARK    9  A    between atoms: N_21  and  C_22
REMARK   10  A    between atoms: C_24  and  O_25
REMARK                            x       y       z     vdW  Elec       q    Type
REMARK                         _______ _______ _______ _____ _____    ______ ____
ROOT
ATOM      1  C   UNL     1       0.319   2.249 -23.098  0.00  0.00    +0.100 C 
ATOM      2  C   UNL     1      -0.912   2.608 -23.309  0.00  0.00    +0.008 A 
ATOM      3  C   UNL     1      -1.237   3.188 -24.425  0.00  0.00    +0.058 A 
ATOM      4  C   UNL     1      -2.469   3.548 -24.637  0.00  0.00    +0.162 A 
ATOM      5  C   UNL     1      -3.374   3.328 -23.730  0.00  0.00    +0.162 A 
ATOM      6  C   UNL     1      -3.049   2.748 -22.613  0.00  0.00    +0.053 A 
ATOM      7  C   UNL     1      -1.817   2.388 -22.402  0.00  0.00    -0.030 A 
ATOM      8  C   UNL     1      -1.492   1.808 -21.285  0.00  0.00    +0.086 C 
ATOM      9  C   UNL     1      -0.261   1.449 -21.075  0.00  0.00    +0.136 C 
ATOM     10  N   UNL     1       0.645   1.669 -21.981  0.00  0.00    +0.239 N 
ATOM     11  H   UNL     1       1.614   1.605 -22.294  0.00  0.00    +0.204 HD
ATOM     12  C   UNL     1       1.877   1.309 -21.770  0.00  0.00    +0.191 C 
ENDROOT
BRANCH   5  13
ATOM     13  O   UNL     1      -4.605   3.687 -23.941  0.00  0.00    -0.491 OA
ATOM     14  C   UNL     1      -5.476   3.620 -22.978  0.00  0.00    +0.277 C 
ENDBRANCH   5  13
BRANCH   4  15
ATOM     15  O   UNL     1      -2.794   4.128 -25.753  0.00  0.00    -0.491 OA
ATOM     16  C   UNL     1      -3.049   3.411 -26.808  0.00  0.00    +0.277 C 
ENDBRANCH   4  15
BRANCH   1  17
ATOM     17  C   UNL     1       1.225   2.469 -24.004  0.00  0.00    +0.094 C 
BRANCH  17  21
ATOM     18  C   UNL     1       4.334   4.666 -23.161  0.00  0.00    +0.161 A 
ATOM     19  C   UNL     1       4.495   3.446 -23.578  0.00  0.00    +0.049 A 
ATOM     20  C   UNL     1       3.459   2.713 -23.859  0.00  0.00    +0.007 A 
ATOM     21  C   UNL     1       2.261   3.201 -23.723  0.00  0.00    -0.038 A 
ATOM     22  C   UNL     1       2.101   4.422 -23.306  0.00  0.00    +0.053 A 
ATOM     23  C   UNL     1       3.138   5.155 -23.025  0.00  0.00    +0.159 A 
BRANCH  18  25
ATOM     24  C   UNL     1       6.566   4.965 -23.148  0.00  0.00    +0.277 C 
ATOM     25  O   UNL     1       5.371   5.399 -22.880  0.00  0.00    -0.491 OA
ENDBRANCH  18  25
BRANCH  23  26
ATOM     26  O   UNL     1       2.977   6.376 -22.608  0.00  0.00    -0.503 OA
ATOM     27  H   UNL     1       2.789   7.059 -23.221  0.00  0.00    +0.292 HD
ENDBRANCH  23  26
ENDBRANCH  17  21
ENDBRANCH   1  17
TORSDOF 6
ENDMDL
