MODEL 1
REMARK VINA RESULT:    -9.742      0.000      0.000
REMARK INTER + INTRA:          -7.883
REMARK INTER:                 -11.831
REMARK INTRA:                   3.948
REMARK UNBOUND:                 4.137
REMARK  Name = COC1=C2Oc3c(OC)ccc4c3[C@@]23CCN(C)[C@H](C4)C3=C[C@@H]1C(C)(C)O       ZINC000096316419
REMARK  9 active torsions:
REMARK  status: ('A' for Active; 'I' for Inactive)
REMARK    1  A    between atoms: C_1  and  O_2
REMARK    2  A    between atoms: O_2  and  C_3
REMARK    3  A    between atoms: C_7  and  O_8
REMARK    4  A    between atoms: O_8  and  C_9
REMARK    5  A    between atoms: N_17  and  C_18
REMARK    6  A    between atoms: C_23  and  C_24
REMARK    7  A    between atoms: C_24  and  C_25
REMARK    8  A    between atoms: C_24  and  C_26
REMARK    9  A    between atoms: C_24  and  O_27
REMARK                            x       y       z     vdW  Elec       q    Type
REMARK                         _______ _______ _______ _____ _____    ______ ____
ROOT
ATOM      1  C   UNL     1       0.625   2.839 -24.488  0.00  0.00    +0.146 C 
ATOM      2  C   UNL     1      -0.602   3.045 -24.316  0.00  0.00    +0.159 C 
ATOM      3  O   UNL     1      -1.910   3.521 -24.918  0.00  0.00    -0.452 OA
ATOM      4  C   UNL     1      -3.073   3.458 -23.964  0.00  0.00    +0.174 A 
ATOM      5  C   UNL     1      -4.317   3.667 -23.789  0.00  0.00    +0.162 A 
ATOM      6  C   UNL     1      -4.843   3.411 -22.659  0.00  0.00    +0.050 A 
ATOM      7  C   UNL     1      -4.145   2.955 -21.720  0.00  0.00    +0.008 A 
ATOM      8  C   UNL     1      -2.915   2.751 -21.897  0.00  0.00    -0.034 A 
ATOM      9  C   UNL     1      -2.198   2.286 -20.941  0.00  0.00    +0.094 C 
ATOM     10  C   UNL     1      -0.970   2.081 -21.117  0.00  0.00    +0.096 C 
ATOM     11  C   UNL     1      -0.441   2.336 -22.244  0.00  0.00    -0.007 C 
ATOM     12  C   UNL     1       0.800   2.129 -22.421  0.00  0.00    -0.007 C 
ATOM     13  N   UNL     1       0.434   1.812 -21.212  0.00  0.00    +0.239 N 
ATOM     14  H   UNL     1       0.974   1.442 -20.430  0.00  0.00    +0.204 HD
ATOM     15  C   UNL     1       1.083   1.356 -20.238  0.00  0.00    +0.191 C 
ATOM     16  C   UNL     1       1.055   2.085 -22.457  0.00  0.00    +0.133 C 
ATOM     17  C   UNL     1       0.241   2.599 -23.498  0.00  0.00    +0.075 C 
ATOM     18  C   UNL     1      -2.370   2.998 -23.011  0.00  0.00    +0.020 A 
ATOM     19  C   UNL     1      -1.144   2.792 -23.183  0.00  0.00    +0.091 C 
ATOM     20  C   UNL     1       1.329   2.379 -23.535  0.00  0.00    +0.112 C 
ENDROOT
BRANCH  20  21
ATOM     21  C   UNL     1       2.559   2.172 -23.707  0.00  0.00    +0.074 C 
ATOM     22  C   UNL     1       3.399   3.033 -23.341  0.00  0.00    +0.042 C 
ATOM     23  C   UNL     1       3.494   1.436 -24.116  0.00  0.00    +0.042 C 
BRANCH  21  24
ATOM     24  O   UNL     1       2.299   1.057 -24.228  0.00  0.00    -0.388 OA
ATOM     25  H   UNL     1       3.081   0.486 -24.177  0.00  0.00    +0.210 HD
ENDBRANCH  21  24
ENDBRANCH  20  21
BRANCH   1  27
ATOM     26  C   UNL     1       1.155   4.264 -26.050  0.00  0.00    +0.276 C 
ATOM     27  O   UNL     1       1.157   3.089 -25.601  0.00  0.00    -0.495 OA
ENDBRANCH   1  27
BRANCH   5  28
ATOM     28  O   UNL     1      -5.020   4.122 -24.726  0.00  0.00    -0.491 OA
ATOM     29  C   UNL     1      -5.195   3.443 -25.769  0.00  0.00    +0.277 C 
ENDBRANCH   5  28
TORSDOF 4
ENDMDL
