MODEL 1
REMARK VINA RESULT:   -10.295      0.000      0.000
REMARK INTER + INTRA:          -9.584
REMARK INTER:                 -10.901
REMARK INTRA:                   1.317
REMARK UNBOUND:                 1.313
REMARK  Name = CC(=O)O[C@@H]1CCC2=C[C@@H](OC2=O)c2c(C)coc2C=C1C                     ZINC001078928924
REMARK  5 active torsions:
REMARK  status: ('A' for Active; 'I' for Inactive)
REMARK    1  A    between atoms: C_1  and  C_2
REMARK    2  A    between atoms: C_2  and  O_4
REMARK    3  A    between atoms: O_4  and  C_5
REMARK    4  A    between atoms: C_15  and  C_16
REMARK    5  A    between atoms: C_21  and  C_22
REMARK                            x       y       z     vdW  Elec       q    Type
REMARK                         _______ _______ _______ _____ _____    ______ ____
ROOT
ATOM      1  C   UNL     1      -1.810   2.665 -22.784  0.00  0.00    +0.203 C 
ATOM      2  C   UNL     1      -2.203   3.271 -23.884  0.00  0.00    +0.054 C 
ATOM      3  C   UNL     1      -1.301   3.661 -24.760  0.00  0.00    +0.046 C 
ATOM      4  C   UNL     1      -0.059   3.428 -24.496  0.00  0.00    +0.037 C 
ATOM      5  C   UNL     1       0.225   2.825 -23.386  0.00  0.00    +0.032 C 
ATOM      6  C   UNL     1       1.510   2.690 -23.315  0.00  0.00    +0.234 C 
ATOM      7  C   UNL     1       1.982   2.073 -22.204  0.00  0.00    +0.045 A 
ATOM      8  C   UNL     1       3.169   1.763 -21.784  0.00  0.00    -0.005 A 
ATOM      9  C   UNL     1       3.047   1.172 -20.639  0.00  0.00    +0.199 A 
ATOM     10  O   UNL     1       1.785   1.116 -20.348  0.00  0.00    -0.463 OA
ATOM     11  C   UNL     1       4.281   2.004 -22.405  0.00  0.00    +0.047 C 
ATOM     12  C   UNL     1       1.128   1.672 -21.315  0.00  0.00    +0.135 A 
ATOM     13  C   UNL     1      -0.140   1.868 -21.505  0.00  0.00    +0.049 C 
ATOM     14  O   UNL     1       2.023   3.213 -24.387  0.00  0.00    -0.449 OA
ATOM     15  C   UNL     1       1.054   3.667 -25.114  0.00  0.00    +0.336 C 
ATOM     16  O   UNL     1       1.174   4.258 -26.261  0.00  0.00    -0.245 OA
ATOM     17  C   UNL     1      -0.544   2.464 -22.583  0.00  0.00    -0.029 C 
ATOM     18  C   UNL     1      -1.408   2.066 -21.700  0.00  0.00    +0.043 C 
ENDROOT
BRANCH   1  19
ATOM     19  O   UNL     1      -2.675   2.264 -21.893  0.00  0.00    -0.457 OA
BRANCH  19  21
ATOM     20  C   UNL     1      -3.032   3.770 -20.270  0.00  0.00    +0.136 C 
ATOM     21  C   UNL     1      -3.456   3.110 -21.304  0.00  0.00    +0.305 C 
ATOM     22  O   UNL     1      -4.655   3.297 -21.744  0.00  0.00    -0.251 OA
ENDBRANCH  19  21
ENDBRANCH   1  19
TORSDOF 2
ENDMDL
