MODEL 1
REMARK VINA RESULT:    -9.451      0.000      0.000
REMARK INTER + INTRA:          -9.727
REMARK INTER:                  -9.727
REMARK INTRA:                   0.000
REMARK UNBOUND:                 0.000
REMARK  Name = ZINC000004104698
REMARK  4 active torsions:
REMARK  status: ('A' for Active; 'I' for Inactive)
REMARK    1  A    between atoms: C_1  and  C_2
REMARK    2  A    between atoms: C_2  and  C_3
REMARK    3  A    between atoms: C_13  and  C_14
REMARK    4  A    between atoms: C_13  and  O_15
REMARK                            x       y       z     vdW  Elec       q    Type
REMARK                         _______ _______ _______ _____ _____    ______ ____
ROOT
ATOM      1  C   UNL     1      -3.684   3.977 -25.589  0.00  0.00    +0.012 C 
ATOM      2  C   UNL     1      -2.602   3.470 -25.074  0.00  0.00    -0.021 C 
ATOM      3  C   UNL     1      -3.026   3.207 -23.874  0.00  0.00    +0.012 C 
ATOM      4  C   UNL     1      -3.618   3.017 -22.732  0.00  0.00    +0.028 C 
ATOM      5  C   UNL     1      -4.861   3.331 -22.509  0.00  0.00    +0.067 C 
ATOM      6  C   UNL     1      -4.838   3.730 -23.746  0.00  0.00    +0.041 C 
ATOM      7  C   UNL     1      -5.140   3.014 -21.280  0.00  0.00    +0.035 C 
ATOM      8  C   UNL     1      -4.072   2.504 -20.744  0.00  0.00    +0.007 C 
ATOM      9  C   UNL     1      -3.131   2.506 -21.641  0.00  0.00    -0.004 C 
ATOM     10  C   UNL     1      -1.931   2.059 -21.420  0.00  0.00    +0.011 C 
ATOM     11  C   UNL     1      -0.921   2.013 -22.238  0.00  0.00    +0.075 C 
ATOM     12  C   UNL     1      -0.861   2.402 -23.477  0.00  0.00    +0.137 C 
ATOM     13  O   UNL     1       0.286   2.238 -24.066  0.00  0.00    -0.297 OA
ATOM     14  C   UNL     1      -1.804   3.557 -26.096  0.00  0.00    +0.012 C 
ATOM     15  C   UNL     1      -1.799   2.934 -24.204  0.00  0.00    +0.065 C 
ENDROOT
BRANCH   5  16
ATOM     16  O   UNL     1      -6.097   3.728 -22.545  0.00  0.00    -0.389 OA
ATOM     17  H   UNL     1      -6.289   4.110 -23.417  0.00  0.00    +0.210 HD
ENDBRANCH   5  16
TORSDOF 1
ENDMDL
