MODEL 1
REMARK VINA RESULT:    -8.685      0.000      0.000
REMARK INTER + INTRA:          -8.239
REMARK INTER:                 -11.484
REMARK INTRA:                   3.245
REMARK UNBOUND:                 3.493
REMARK  Name = ZINC000000199433
REMARK  11 active torsions:
REMARK  status: ('A' for Active; 'I' for Inactive)
REMARK    1  A    between atoms: C_1  and  O_2
REMARK    2  A    between atoms: O_2  and  C_3
REMARK    3  A    between atoms: C_12  and  C_13
REMARK    4  A    between atoms: C_12  and  O_19
REMARK    5  A    between atoms: C_13  and  C_14
REMARK    6  A    between atoms: C_14  and  C_15
REMARK    7  A    between atoms: C_15  and  C_16
REMARK    8  A    between atoms: C_15  and  C_17
REMARK    9  A    between atoms: C_15  and  O_18
REMARK   10  A    between atoms: O_19  and  C_20
REMARK   11  A    between atoms: C_21  and  O_22
REMARK                            x       y       z     vdW  Elec       q    Type
REMARK                         _______ _______ _______ _____ _____    ______ ____
ROOT
ATOM      1  C   UNL     1       3.433   2.343 -23.238  0.00  0.00    +0.137 A 
ATOM      2  C   UNL     1       2.251   2.812 -23.501  0.00  0.00    +0.019 A 
ATOM      3  C   UNL     1       1.245   2.490 -22.742  0.00  0.00    +0.086 A 
ATOM      4  C   UNL     1       0.059   2.958 -23.002  0.00  0.00    +0.137 C 
ATOM      5  C   UNL     1      -0.116   3.746 -24.020  0.00  0.00    +0.153 C 
ATOM      6  C   UNL     1       0.888   4.068 -24.778  0.00  0.00    +0.039 C 
ATOM      7  N   UNL     1       1.421   1.702 -21.725  0.00  0.00    -0.214 NA
ATOM      8  C   UNL     1       2.606   1.235 -21.466  0.00  0.00    +0.231 A 
ATOM      9  O   UNL     1       3.042   0.444 -20.528  0.00  0.00    -0.445 OA
ATOM     10  C   UNL     1       4.318   0.278 -20.708  0.00  0.00    +0.198 A 
ATOM     11  C   UNL     1       4.672   0.963 -21.754  0.00  0.00    +0.055 A 
ATOM     12  C   UNL     1       2.072   3.599 -24.516  0.00  0.00    +0.043 C 
ATOM     13  C   UNL     1       3.613   1.554 -22.221  0.00  0.00    +0.082 A 
ENDROOT
BRANCH   5  14
ATOM     14  O   UNL     1      -1.301   4.215 -24.281  0.00  0.00    -0.389 OA
ATOM     15  H   UNL     1      -1.771   4.383 -23.450  0.00  0.00    +0.210 HD
ENDBRANCH   5  14
BRANCH   4  16
ATOM     16  O   UNL     1      -0.187   2.223 -21.923  0.00  0.00    -0.368 OA
ATOM     17  C   UNL     1      -0.879   1.125 -21.998  0.00  0.00    +0.195 C 
ENDBRANCH   4  16
BRANCH   1  19
ATOM     18  C   UNL     1       5.332   3.506 -23.568  0.00  0.00    +0.277 C 
ATOM     19  O   UNL     1       4.441   2.664 -23.997  0.00  0.00    -0.494 OA
ENDBRANCH   1  19
BRANCH   4  20
ATOM     20  C   UNL     1      -1.223   3.187 -22.906  0.00  0.00    +0.047 C 
BRANCH  20  21
ATOM     21  C   UNL     1      -1.676   3.944 -21.975  0.00  0.00    +0.037 C 
BRANCH  21  22
ATOM     22  C   UNL     1      -2.839   3.730 -21.448  0.00  0.00    +0.061 C 
ATOM     23  C   UNL     1      -2.973   3.749 -20.155  0.00  0.00    +0.041 C 
ATOM     24  C   UNL     1      -4.105   3.472 -21.574  0.00  0.00    +0.041 C 
BRANCH  22  25
ATOM     25  O   UNL     1      -3.354   3.584 -22.630  0.00  0.00    -0.389 OA
ATOM     26  H   UNL     1      -4.197   4.064 -22.677  0.00  0.00    +0.210 HD
ENDBRANCH  22  25
ENDBRANCH  21  22
ENDBRANCH  20  21
ENDBRANCH   4  20
TORSDOF 7
ENDMDL
