MODEL 1
REMARK VINA RESULT:    -9.560      0.000      0.000
REMARK INTER + INTRA:         -11.324
REMARK INTER:                 -10.971
REMARK INTRA:                  -0.353
REMARK UNBOUND:                -0.367
REMARK  Name = ZINC000005809705
REMARK  5 active torsions:
REMARK  status: ('A' for Active; 'I' for Inactive)
REMARK    1  A    between atoms: C_1  and  O_2
REMARK    2  A    between atoms: O_2  and  C_3
REMARK    3  A    between atoms: C_7  and  O_8
REMARK    4  A    between atoms: C_9  and  C_10
REMARK    5  A    between atoms: C_14  and  C_15
REMARK                            x       y       z     vdW  Elec       q    Type
REMARK                         _______ _______ _______ _____ _____    ______ ____
ROOT
ATOM      1  C   UNL     1       2.580   1.403 -22.283  0.00  0.00    +0.130 A 
ATOM      2  C   UNL     1       1.301   1.332 -22.062  0.00  0.00    +0.092 A 
ATOM      3  C   UNL     1       0.526   2.315 -22.409  0.00  0.00    +0.139 A 
ATOM      4  C   UNL     1       1.029   3.370 -22.978  0.00  0.00    +0.101 A 
ATOM      5  C   UNL     1       0.253   4.354 -23.326  0.00  0.00    +0.174 C 
ATOM      6  C   UNL     1      -1.026   4.282 -23.105  0.00  0.00    +0.129 C 
ATOM      7  C   UNL     1      -1.529   3.227 -22.536  0.00  0.00    +0.211 C 
ATOM      8  O   UNL     1       0.757   5.409 -23.895  0.00  0.00    -0.292 OA
ATOM      9  C   UNL     1       2.308   3.442 -23.199  0.00  0.00    +0.137 A 
ATOM     10  O   UNL     1      -0.754   2.244 -22.188  0.00  0.00    -0.483 OA
ATOM     11  C   UNL     1       3.083   2.458 -22.851  0.00  0.00    +0.033 A 
ATOM     12  C   UNL     1       4.363   2.529 -23.072  0.00  0.00    +0.051 C 
ENDROOT
BRANCH   7  13
ATOM     13  C   UNL     1      -2.808   3.155 -22.315  0.00  0.00    -0.007 A 
ATOM     14  C   UNL     1      -3.247   2.629 -21.209  0.00  0.00    +0.007 A 
ATOM     15  C   UNL     1      -4.526   2.556 -20.987  0.00  0.00    +0.000 A 
ATOM     16  C   UNL     1      -5.366   3.009 -21.870  0.00  0.00    +0.000 A 
ATOM     17  C   UNL     1      -4.927   3.535 -22.974  0.00  0.00    +0.000 A 
ATOM     18  C   UNL     1      -3.648   3.608 -23.197  0.00  0.00    +0.007 A 
ENDBRANCH   7  13
BRANCH   1  20
ATOM     19  C   UNL     1       3.746   0.304 -20.701  0.00  0.00    +0.277 C 
ATOM     20  O   UNL     1       3.356   0.419 -21.935  0.00  0.00    -0.495 OA
ENDBRANCH   1  20
BRANCH   9  21
ATOM     21  O   UNL     1       2.811   4.497 -23.768  0.00  0.00    -0.506 OA
ATOM     22  H   UNL     1       2.734   4.612 -24.695  0.00  0.00    +0.292 HD
ENDBRANCH   9  21
TORSDOF 3
ENDMDL
