MODEL 1
REMARK VINA RESULT:    -9.370      0.000      0.000
REMARK INTER + INTRA:          -9.946
REMARK INTER:                  -9.816
REMARK INTRA:                  -0.131
REMARK UNBOUND:                -0.028
REMARK  Name = ZINC000004098812
REMARK  5 active torsions:
REMARK  status: ('A' for Active; 'I' for Inactive)
REMARK    1  A    between atoms: C_1  and  O_2
REMARK    2  A    between atoms: O_2  and  C_3
REMARK    3  A    between atoms: N_17  and  C_18
REMARK    4  A    between atoms: C_21  and  C_22
REMARK    5  A    between atoms: C_21  and  C_23
REMARK                            x       y       z     vdW  Elec       q    Type
REMARK                         _______ _______ _______ _____ _____    ______ ____
ROOT
ATOM      1  C   UNL     1      -1.857   3.365 -25.076  0.00  0.00    +0.136 A 
ATOM      2  C   UNL     1      -3.065   3.406 -24.595  0.00  0.00    +0.092 A 
ATOM      3  C   UNL     1      -3.283   3.073 -23.357  0.00  0.00    +0.134 A 
ATOM      4  C   UNL     1      -2.294   2.699 -22.601  0.00  0.00    +0.041 A 
ATOM      5  C   UNL     1      -2.512   2.365 -21.363  0.00  0.00    +0.013 C 
ATOM      6  C   UNL     1      -3.718   2.406 -20.882  0.00  0.00    +0.020 C 
ATOM      7  C   UNL     1      -4.707   2.781 -21.639  0.00  0.00    +0.124 C 
ATOM      8  C   UNL     1      -5.918   3.075 -22.009  0.00  0.00    +0.060 C 
ATOM      9  C   UNL     1      -5.346   2.550 -20.530  0.00  0.00    +0.060 C 
ATOM     10  C   UNL     1      -1.086   2.657 -23.083  0.00  0.00    +0.067 A 
ATOM     11  N   UNL     1      -0.098   2.283 -22.326  0.00  0.00    -0.342 N 
ATOM     12  C   UNL     1      -0.316   1.949 -21.089  0.00  0.00    +0.149 C 
ATOM     13  C   UNL     1       1.109   2.241 -22.808  0.00  0.00    +0.053 A 
ATOM     14  C   UNL     1       2.098   1.867 -22.051  0.00  0.00    +0.026 A 
ATOM     15  C   UNL     1       3.305   1.826 -22.533  0.00  0.00    +0.002 A 
ATOM     16  C   UNL     1       3.523   2.159 -23.771  0.00  0.00    +0.001 A 
ATOM     17  C   UNL     1       2.534   2.533 -24.526  0.00  0.00    +0.014 A 
ATOM     18  C   UNL     1       1.327   2.575 -24.045  0.00  0.00    +0.046 A 
ATOM     19  C   UNL     1       0.338   2.949 -24.801  0.00  0.00    +0.201 A 
ATOM     20  O   UNL     1       0.556   3.283 -26.039  0.00  0.00    -0.286 OA
ATOM     21  O   UNL     1      -4.489   3.114 -22.875  0.00  0.00    -0.481 OA
ATOM     22  C   UNL     1      -0.869   2.990 -24.319  0.00  0.00    +0.088 A 
ENDROOT
BRANCH   1  24
ATOM     23  C   UNL     1      -2.609   3.659 -27.178  0.00  0.00    +0.277 C 
ATOM     24  O   UNL     1      -1.639   3.698 -26.313  0.00  0.00    -0.494 OA
ENDBRANCH   1  24
TORSDOF 1
ENDMDL
