MODEL 1
REMARK VINA RESULT:   -10.041      0.000      0.000
REMARK INTER + INTRA:          -9.045
REMARK INTER:                 -10.881
REMARK INTRA:                   1.836
REMARK UNBOUND:                 1.876
REMARK  Name = C[C@@H]1CC[C@H](O)[C@]2(CO)CC[C@H]3[C@H]([C@H]12)C3(C)C              ZINC000100393062
REMARK  6 active torsions:
REMARK  status: ('A' for Active; 'I' for Inactive)
REMARK    1  A    between atoms: C_1  and  C_2
REMARK    2  A    between atoms: C_5  and  O_6
REMARK    3  A    between atoms: C_7  and  C_8
REMARK    4  A    between atoms: C_8  and  O_9
REMARK    5  A    between atoms: C_15  and  C_16
REMARK    6  A    between atoms: C_15  and  C_17
REMARK                            x       y       z     vdW  Elec       q    Type
REMARK                         _______ _______ _______ _____ _____    ______ ____
ROOT
ATOM      1  C   UNL     1      -3.705   2.494 -21.007  0.00  0.00    +0.008 C 
ATOM      2  C   UNL     1      -3.983   2.998 -22.173  0.00  0.00    -0.010 C 
ATOM      3  C   UNL     1      -5.199   3.367 -22.448  0.00  0.00    +0.006 C 
ATOM      4  C   UNL     1      -5.477   3.871 -23.614  0.00  0.00    +0.032 C 
ATOM      5  C   UNL     1      -4.540   4.005 -24.505  0.00  0.00    +0.123 C 
ATOM      6  C   UNL     1      -3.324   3.636 -24.230  0.00  0.00    +0.023 C 
ATOM      7  C   UNL     1      -2.387   3.770 -25.121  0.00  0.00    +0.012 C 
ATOM      8  C   UNL     1      -1.171   3.400 -24.846  0.00  0.00    +0.005 C 
ATOM      9  C   UNL     1      -0.893   2.896 -23.680  0.00  0.00    -0.001 C 
ATOM     10  C   UNL     1      -1.830   2.762 -22.789  0.00  0.00    +0.003 C 
ATOM     11  C   UNL     1      -0.614   2.392 -22.515  0.00  0.00    -0.028 C 
ATOM     12  C   UNL     1       0.659   2.171 -22.663  0.00  0.00    +0.011 C 
ATOM     13  C   UNL     1      -0.778   1.966 -21.298  0.00  0.00    +0.011 C 
ATOM     14  C   UNL     1      -3.046   3.132 -23.064  0.00  0.00    +0.007 C 
ENDROOT
BRANCH   5  15
ATOM     15  O   UNL     1      -4.818   4.509 -25.671  0.00  0.00    -0.391 OA
ATOM     16  H   UNL     1      -5.148   3.809 -26.254  0.00  0.00    +0.210 HD
ENDBRANCH   5  15
BRANCH   6  17
ATOM     17  C   UNL     1      -3.602   4.139 -25.396  0.00  0.00    +0.165 C 
BRANCH  17  18
ATOM     18  O   UNL     1      -4.085   5.343 -25.485  0.00  0.00    -0.394 OA
ATOM     19  H   UNL     1      -4.006   5.656 -26.401  0.00  0.00    +0.209 HD
ENDBRANCH  17  18
ENDBRANCH   6  17
TORSDOF 3
ENDMDL
