MODEL 1
REMARK VINA RESULT:   -10.085      0.000      0.000
REMARK INTER + INTRA:         -10.208
REMARK INTER:                 -11.154
REMARK INTRA:                   0.947
REMARK UNBOUND:                 1.057
REMARK  Name = ZINC000096316353
REMARK  4 active torsions:
REMARK  status: ('A' for Active; 'I' for Inactive)
REMARK    1  A    between atoms: C_1  and  O_2
REMARK    2  A    between atoms: O_2  and  C_3
REMARK    3  A    between atoms: C_7  and  O_8
REMARK    4  A    between atoms: O_8  and  C_9
REMARK                            x       y       z     vdW  Elec       q    Type
REMARK                         _______ _______ _______ _____ _____    ______ ____
ROOT
ATOM      1  C   UNL     1      -2.772   3.712 -25.319  0.00  0.00    +0.159 C 
ATOM      2  C   UNL     1      -1.634   3.359 -24.929  0.00  0.00    +0.158 C 
ATOM      3  O   UNL     1      -0.170   3.204 -25.277  0.00  0.00    -0.452 OA
ATOM      4  C   UNL     1       0.657   2.651 -24.150  0.00  0.00    +0.174 A 
ATOM      5  C   UNL     1       1.809   2.295 -23.759  0.00  0.00    +0.162 A 
ATOM      6  C   UNL     1       1.961   1.853 -22.582  0.00  0.00    +0.050 A 
ATOM      7  C   UNL     1       0.983   1.767 -21.807  0.00  0.00    +0.008 A 
ATOM      8  C   UNL     1      -0.155   2.119 -22.197  0.00  0.00    -0.038 A 
ATOM      9  C   UNL     1      -1.158   2.033 -21.409  0.00  0.00    +0.058 C 
ATOM     10  C   UNL     1      -2.294   2.385 -21.798  0.00  0.00    +0.088 C 
ATOM     11  C   UNL     1      -2.448   2.828 -22.974  0.00  0.00    +0.051 C 
ATOM     12  C   UNL     1      -3.600   3.183 -23.365  0.00  0.00    -0.017 C 
ATOM     13  N   UNL     1      -3.628   2.759 -22.141  0.00  0.00    -0.300 N 
ATOM     14  C   UNL     1      -4.586   2.653 -21.322  0.00  0.00    +0.328 C 
ATOM     15  O   UNL     1      -4.391   2.210 -20.164  0.00  0.00    -0.279 OA
ATOM     16  C   UNL     1      -3.835   3.257 -23.447  0.00  0.00    +0.109 C 
ATOM     17  C   UNL     1      -2.713   3.343 -24.299  0.00  0.00    +0.039 C 
ATOM     18  C   UNL     1      -0.330   2.562 -23.364  0.00  0.00    +0.016 A 
ATOM     19  C   UNL     1      -1.467   2.913 -23.748  0.00  0.00    +0.070 C 
ATOM     20  C   UNL     1      -3.756   3.621 -24.528  0.00  0.00    +0.045 C 
ENDROOT
BRANCH   1  22
ATOM     21  C   UNL     1      -3.337   3.387 -27.387  0.00  0.00    +0.277 C 
ATOM     22  O   UNL     1      -2.933   4.151 -26.480  0.00  0.00    -0.492 OA
ENDBRANCH   1  22
BRANCH   5  23
ATOM     23  O   UNL     1       2.791   2.380 -24.533  0.00  0.00    -0.491 OA
ATOM     24  C   UNL     1       3.956   2.306 -24.079  0.00  0.00    +0.277 C 
ENDBRANCH   5  23
TORSDOF 2
ENDMDL
