MODEL 1
REMARK VINA RESULT:   -10.051      0.000      0.000
REMARK INTER + INTRA:         -10.051
REMARK INTER:                 -10.051
REMARK INTRA:                   0.000
REMARK UNBOUND:                 0.000
REMARK  Name = ZINC000071404307
REMARK  2 active torsions:
REMARK  status: ('A' for Active; 'I' for Inactive)
REMARK    1  A    between atoms: C_1  and  C_2
REMARK    2  A    between atoms: C_2  and  C_3
REMARK                            x       y       z     vdW  Elec       q    Type
REMARK                         _______ _______ _______ _____ _____    ______ ____
ROOT
ATOM      1  C   UNL     1       1.511   1.681 -21.931  0.00  0.00    +0.055 C 
ATOM      2  C   UNL     1       0.272   2.016 -22.134  0.00  0.00    +0.105 C 
ATOM      3  C   UNL     1       0.746   2.163 -23.336  0.00  0.00    +0.052 C 
ATOM      4  C   UNL     1      -0.035   2.553 -24.299  0.00  0.00    +0.045 C 
ATOM      5  C   UNL     1      -1.289   2.797 -24.061  0.00  0.00    +0.020 A 
ATOM      6  C   UNL     1      -1.763   2.651 -22.859  0.00  0.00    +0.134 A 
ATOM      7  C   UNL     1      -3.018   2.895 -22.621  0.00  0.00    +0.026 A 
ATOM      8  C   UNL     1      -3.492   2.749 -21.419  0.00  0.00    +0.012 A 
ATOM      9  C   UNL     1      -4.746   2.993 -21.181  0.00  0.00    +0.001 A 
ATOM     10  C   UNL     1      -5.526   3.383 -22.145  0.00  0.00    +0.001 A 
ATOM     11  C   UNL     1      -5.052   3.530 -23.346  0.00  0.00    +0.011 A 
ATOM     12  C   UNL     1      -3.798   3.286 -23.584  0.00  0.00    +0.013 A 
ATOM     13  C   UNL     1      -3.324   3.432 -24.786  0.00  0.00    +0.097 A 
ATOM     14  N   UNL     1      -3.880   3.802 -25.902  0.00  0.00    -0.235 NA
ATOM     15  C   UNL     1      -2.969   3.787 -26.829  0.00  0.00    +0.197 A 
ATOM     16  N   UNL     1      -1.851   3.407 -26.287  0.00  0.00    -0.344 N 
ATOM     17  H   UNL     1      -0.989   3.304 -26.751  0.00  0.00    +0.167 HD
ATOM     18  C   UNL     1      -2.070   3.188 -25.025  0.00  0.00    +0.073 A 
ATOM     19  C   UNL     1       0.229   1.753 -20.862  0.00  0.00    +0.055 C 
ATOM     20  O   UNL     1      -0.982   2.260 -21.896  0.00  0.00    -0.485 OA
ENDROOT
TORSDOF 0
ENDMDL
