MODEL 1
REMARK VINA RESULT:    -9.780      0.000      0.000
REMARK INTER + INTRA:          -9.780
REMARK INTER:                  -9.780
REMARK INTRA:                   0.000
REMARK UNBOUND:                 0.000
REMARK  Name = ZINC000004104810
REMARK  3 active torsions:
REMARK  status: ('A' for Active; 'I' for Inactive)
REMARK    1  A    between atoms: C_1  and  C_2
REMARK    2  A    between atoms: C_6  and  C_7
REMARK    3  A    between atoms: C_14  and  C_15
REMARK                            x       y       z     vdW  Elec       q    Type
REMARK                         _______ _______ _______ _____ _____    ______ ____
ROOT
ATOM      1  C   UNL     1      -3.249   3.763 -27.080  0.00  0.00    +0.007 C 
ATOM      2  C   UNL     1      -3.450   3.595 -25.806  0.00  0.00    -0.014 C 
ATOM      3  C   UNL     1      -4.639   3.759 -25.308  0.00  0.00    +0.003 C 
ATOM      4  C   UNL     1      -4.839   3.591 -24.035  0.00  0.00    +0.003 C 
ATOM      5  C   UNL     1      -3.850   3.259 -23.259  0.00  0.00    +0.037 C 
ATOM      6  C   UNL     1      -4.050   3.092 -21.986  0.00  0.00    +0.097 C 
ATOM      7  O   UNL     1      -4.250   2.924 -20.712  0.00  0.00    -0.361 OA
ATOM      8  C   UNL     1      -5.308   3.378 -22.146  0.00  0.00    +0.044 C 
ATOM      9  C   UNL     1      -3.061   2.760 -21.211  0.00  0.00    +0.191 C 
ATOM     10  C   UNL     1      -1.871   2.596 -21.709  0.00  0.00    +0.212 C 
ATOM     11  O   UNL     1      -0.737   2.272 -21.163  0.00  0.00    -0.458 OA
ATOM     12  C   UNL     1       0.164   2.240 -22.099  0.00  0.00    +0.311 C 
ATOM     13  C   UNL     1      -0.413   2.544 -23.224  0.00  0.00    +0.101 C 
ATOM     14  C   UNL     1       0.166   2.615 -24.386  0.00  0.00    +0.019 C 
ATOM     15  O   UNL     1       1.422   1.954 -21.939  0.00  0.00    -0.251 OA
ATOM     16  C   UNL     1      -1.671   2.764 -22.982  0.00  0.00    +0.046 C 
ATOM     17  C   UNL     1      -2.660   3.095 -23.757  0.00  0.00    +0.008 C 
ATOM     18  C   UNL     1      -2.460   3.263 -25.031  0.00  0.00    +0.004 C 
ENDROOT
TORSDOF 0
ENDMDL
