MODEL 1
REMARK VINA RESULT:    -6.104      0.000      0.000
REMARK INTER + INTRA:          -7.479
REMARK INTER:                  -7.539
REMARK INTRA:                   0.059
REMARK UNBOUND:                 0.052
REMARK  Name = ZINC000006731693
REMARK  5 active torsions:
REMARK  status: ('A' for Active; 'I' for Inactive)
REMARK    1  A    between atoms: N_1  and  CA_2
REMARK    2  A    between atoms: CA_2  and  C_3
REMARK    3  A    between atoms: CA_2  and  CB_5
REMARK    4  A    between atoms: C_3  and  O_4
REMARK    5  A    between atoms: CB_5  and  CG_6
REMARK                            x       y       z     vdW  Elec       q    Type
REMARK                         _______ _______ _______ _____ _____    ______ ____
ROOT
ATOM      1  CA  PHE A   1      -3.697   3.560 -25.872  0.00  0.00    +0.091 C 
ENDROOT
BRANCH   1   2
ATOM      2  N   PHE A   1      -4.818   3.021 -26.250  0.00  0.00    +0.223 N 
ATOM      3  H1  PHE A   1      -5.184   3.527 -27.056  0.00  0.00    +0.200 HD
ATOM      4  H2  PHE A   1      -4.659   2.046 -26.503  0.00  0.00    +0.200 HD
ATOM      5  H3  PHE A   1      -5.492   3.067 -25.485  0.00  0.00    +0.200 HD
ENDBRANCH   1   2
BRANCH   1   6
ATOM      6  CB  PHE A   1      -3.649   4.260 -24.778  0.00  0.00    +0.091 C 
BRANCH   6   7
ATOM      7  CG  PHE A   1      -3.979   3.718 -23.643  0.00  0.00    -0.042 A 
ATOM      8  CD2 PHE A   1      -5.216   3.751 -23.243  0.00  0.00    +0.004 A 
ATOM      9  CE2 PHE A   1      -5.546   3.208 -22.110  0.00  0.00    +0.000 A 
ATOM     10  CZ  PHE A   1      -4.640   2.633 -21.375  0.00  0.00    +0.000 A 
ATOM     11  CE1 PHE A   1      -3.404   2.600 -21.776  0.00  0.00    +0.000 A 
ATOM     12  CD1 PHE A   1      -3.073   3.143 -22.910  0.00  0.00    +0.004 A 
ENDBRANCH   6   7
ENDBRANCH   1   6
BRANCH   1  13
ATOM     13  C   PHE A   1      -2.624   3.399 -26.588  0.00  0.00    +0.210 C 
BRANCH  13  14
ATOM     14  O   PHE A   1      -1.457   3.384 -26.015  0.00  0.00    -0.389 OA
ATOM     15  H   PHE A   1      -0.841   3.936 -26.522  0.00  0.00    +0.210 HD
ENDBRANCH  13  14
ENDBRANCH   1  13
TORSDOF 5
ENDMDL
