MODEL 1
REMARK VINA RESULT:    -8.568      0.000      0.000
REMARK INTER + INTRA:         -19.923
REMARK INTER:                 -16.049
REMARK INTRA:                  -3.874
REMARK UNBOUND:                -2.840
REMARK  Name = ZINC000008382368
REMARK  19 active torsions:
REMARK  status: ('A' for Active; 'I' for Inactive)
REMARK    1  A    between atoms: C_1  and  C_2
REMARK    2  A    between atoms: C_2  and  C_3
REMARK    3  A    between atoms: C_3  and  C_4
REMARK    4  A    between atoms: C_4  and  C_5
REMARK    5  A    between atoms: C_6  and  C_7
REMARK    6  A    between atoms: C_7  and  C_8
REMARK    7  A    between atoms: C_8  and  C_9
REMARK    8  A    between atoms: C_9  and  C_10
REMARK    9  A    between atoms: C_10  and  C_11
REMARK   10  A    between atoms: C_11  and  C_12
REMARK   11  A    between atoms: C_12  and  C_13
REMARK   12  A    between atoms: C_13  and  C_14
REMARK   13  A    between atoms: C_14  and  C_15
REMARK   14  A    between atoms: C_15  and  C_16
REMARK   15  A    between atoms: C_16  and  C_17
REMARK   16  A    between atoms: C_17  and  C_18
REMARK   17  A    between atoms: C_18  and  C_19
REMARK   18  A    between atoms: C_19  and  C_20
REMARK   19  A    between atoms: C_25  and  C_26
REMARK                            x       y       z     vdW  Elec       q    Type
REMARK                         _______ _______ _______ _____ _____    ______ ____
ROOT
ATOM      1  C   UNL     1      -3.617   4.546 -24.629  0.00  0.00    +0.000 C 
ENDROOT
BRANCH   1   2
ATOM      2  C   UNL     1      -4.891   4.303 -24.716  0.00  0.00    +0.000 C 
BRANCH   2   3
ATOM      3  C   UNL     1      -5.454   3.481 -23.881  0.00  0.00    -0.000 C 
BRANCH   3   4
ATOM      4  C   UNL     1      -5.434   3.735 -22.605  0.00  0.00    +0.000 C 
BRANCH   4   5
ATOM      5  C   UNL     1      -5.405   2.758 -21.748  0.00  0.00    +0.000 C 
BRANCH   5   6
ATOM      6  C   UNL     1      -4.345   2.561 -21.023  0.00  0.00    +0.000 C 
BRANCH   6   7
ATOM      7  C   UNL     1      -3.499   3.530 -20.834  0.00  0.00    +0.000 C 
BRANCH   7   8
ATOM      8  C   UNL     1      -2.253   3.380 -21.174  0.00  0.00    +0.004 C 
BRANCH   8   9
ATOM      9  C   UNL     1      -1.730   2.191 -21.221  0.00  0.00    +0.027 C 
BRANCH   9  11
ATOM     10  C   UNL     1       0.176   1.246 -21.960  0.00  0.00    -0.031 C 
ATOM     11  C   UNL     1      -0.441   2.045 -21.139  0.00  0.00    -0.031 C 
BRANCH  10  12
ATOM     12  C   UNL     1       1.465   1.100 -21.878  0.00  0.00    +0.027 C 
BRANCH  12  13
ATOM     13  C   UNL     1       2.114   1.611 -20.875  0.00  0.00    +0.004 C 
BRANCH  13  15
ATOM     14  C   UNL     1       3.957   0.364 -21.225  0.00  0.00    +0.004 C 
ATOM     15  C   UNL     1       3.403   1.455 -20.787  0.00  0.00    -0.003 C 
ENDBRANCH  13  15
ENDBRANCH  12  13
ENDBRANCH  10  12
ENDBRANCH   9  11
ENDBRANCH   8   9
ENDBRANCH   7   8
ENDBRANCH   6   7
ENDBRANCH   5   6
ENDBRANCH   4   5
ENDBRANCH   3   4
ENDBRANCH   2   3
ENDBRANCH   1   2
BRANCH   1  16
ATOM     16  C   UNL     1      -2.789   3.982 -25.458  0.00  0.00    +0.000 C 
BRANCH  16  17
ATOM     17  C   UNL     1      -2.091   2.953 -25.081  0.00  0.00    +0.000 C 
BRANCH  17  18
ATOM     18  C   UNL     1      -0.938   3.125 -24.507  0.00  0.00    +0.005 C 
BRANCH  18  19
ATOM     19  C   UNL     1       0.067   3.588 -25.191  0.00  0.00    +0.038 C 
BRANCH  19  20
ATOM     20  C   UNL     1       1.234   3.706 -24.632  0.00  0.00    -0.011 C 
ATOM     21  C   UNL     1       1.495   4.738 -23.885  0.00  0.00    +0.169 C 
ATOM     22  C   UNL     1       2.662   4.856 -23.326  0.00  0.00    -0.086 C 
ATOM     23  C   UNL     1       3.569   3.943 -23.513  0.00  0.00    -0.014 C 
ATOM     24  C   UNL     1       3.308   2.911 -24.259  0.00  0.00    +0.169 C 
ATOM     25  O   UNL     1       4.214   1.998 -24.447  0.00  0.00    -0.289 OA
ATOM     26  C   UNL     1       4.736   4.062 -22.954  0.00  0.00    +0.047 C 
ATOM     27  O   UNL     1       2.924   5.888 -22.579  0.00  0.00    -0.826 OA
ATOM     28  O   UNL     1       0.589   5.651 -23.698  0.00  0.00    -0.289 OA
ATOM     29  C   UNL     1       2.140   2.793 -24.819  0.00  0.00    -0.086 C 
ATOM     30  O   UNL     1       1.878   1.761 -25.565  0.00  0.00    -0.826 OA
ENDBRANCH  19  20
ENDBRANCH  18  19
ENDBRANCH  17  18
ENDBRANCH  16  17
ENDBRANCH   1  16
TORSDOF 17
ENDMDL
