MODEL 1
REMARK VINA RESULT:   -10.398      0.000      0.000
REMARK INTER + INTRA:         -14.157
REMARK INTER:                 -13.346
REMARK INTRA:                  -0.811
REMARK UNBOUND:                -0.416
REMARK  Name = ZINC000003894276
REMARK  8 active torsions:
REMARK  status: ('A' for Active; 'I' for Inactive)
REMARK    1  A    between atoms: C_7  and  O_8
REMARK    2  A    between atoms: O_8  and  C_9
REMARK    3  A    between atoms: C_11  and  C_12
REMARK    4  A    between atoms: C_12  and  O_13
REMARK    5  A    between atoms: C_14  and  O_15
REMARK    6  A    between atoms: C_16  and  O_17
REMARK    7  A    between atoms: C_18  and  O_19
REMARK    8  A    between atoms: C_20  and  O_21
REMARK                            x       y       z     vdW  Elec       q    Type
REMARK                         _______ _______ _______ _____ _____    ______ ____
ROOT
ATOM      1  C   UNL     1       1.465   2.926 -23.960  0.00  0.00    +0.339 C 
ATOM      2  O   UNL     1       1.749   2.807 -22.698  0.00  0.00    -0.331 OA
ATOM      3  C   UNL     1       2.591   1.897 -22.304  0.00  0.00    +0.179 C 
ATOM      4  C   UNL     1       3.148   1.108 -23.174  0.00  0.00    +0.177 C 
ATOM      5  C   UNL     1       2.864   1.227 -24.437  0.00  0.00    +0.180 C 
ATOM      6  C   UNL     1       2.022   2.136 -24.830  0.00  0.00    +0.214 C 
ENDROOT
BRANCH   5   7
ATOM      7  O   UNL     1       3.421   0.437 -25.306  0.00  0.00    -0.386 OA
ATOM      8  H   UNL     1       2.800   0.265 -26.032  0.00  0.00    +0.210 HD
ENDBRANCH   5   7
BRANCH   4   9
ATOM      9  O   UNL     1       3.990   0.198 -22.780  0.00  0.00    -0.386 OA
ATOM     10  H   UNL     1       3.730  -0.662 -23.147  0.00  0.00    +0.210 HD
ENDBRANCH   4   9
BRANCH   6  11
ATOM     11  O   UNL     1       1.737   2.256 -26.093  0.00  0.00    -0.383 OA
ATOM     12  H   UNL     1       2.305   1.662 -26.610  0.00  0.00    +0.210 HD
ENDBRANCH   6  11
BRANCH   1  13
ATOM     13  O   UNL     1       0.623   3.836 -24.354  0.00  0.00    -0.457 OA
BRANCH  13  20
ATOM     14  O   UNL     1      -6.122   3.288 -21.786  0.00  0.00    -0.245 OA
ATOM     15  C   UNL     1      -4.856   3.415 -22.053  0.00  0.00    +0.337 A 
ATOM     16  C   UNL     1      -4.007   3.628 -21.092  0.00  0.00    +0.092 A 
ATOM     17  C   UNL     1      -2.742   3.755 -21.360  0.00  0.00    +0.018 A 
ATOM     18  C   UNL     1      -2.325   3.669 -22.589  0.00  0.00    +0.021 A 
ATOM     19  C   UNL     1      -1.059   3.795 -22.857  0.00  0.00    +0.061 A 
ATOM     20  C   UNL     1      -0.643   3.709 -24.085  0.00  0.00    +0.166 A 
ATOM     21  C   UNL     1      -1.493   3.495 -25.046  0.00  0.00    +0.162 A 
ATOM     22  C   UNL     1      -2.758   3.368 -24.778  0.00  0.00    +0.096 A 
ATOM     23  C   UNL     1      -3.174   3.455 -23.550  0.00  0.00    +0.143 A 
ATOM     24  O   UNL     1      -4.440   3.328 -23.281  0.00  0.00    -0.422 OA
BRANCH  21  25
ATOM     25  O   UNL     1      -1.077   3.408 -26.274  0.00  0.00    -0.503 OA
ATOM     26  H   UNL     1      -0.195   3.643 -26.488  0.00  0.00    +0.292 HD
ENDBRANCH  21  25
ENDBRANCH  13  20
ENDBRANCH   1  13
BRANCH   3  27
ATOM     27  C   UNL     1       2.876   1.777 -21.042  0.00  0.00    +0.190 C 
BRANCH  27  28
ATOM     28  O   UNL     1       4.025   2.184 -20.593  0.00  0.00    -0.392 OA
ATOM     29  H   UNL     1       4.419   1.493 -20.038  0.00  0.00    +0.210 HD
ENDBRANCH  27  28
ENDBRANCH   3  27
TORSDOF 8
ENDMDL
