MODEL 1
REMARK VINA RESULT:    -8.958      0.000      0.000
REMARK INTER + INTRA:         -11.269
REMARK INTER:                 -11.156
REMARK INTRA:                  -0.113
REMARK UNBOUND:                 0.046
REMARK  Name = ZINC000004104805
REMARK  8 active torsions:
REMARK  status: ('A' for Active; 'I' for Inactive)
REMARK    1  A    between atoms: C_1  and  O_2
REMARK    2  A    between atoms: O_2  and  C_3
REMARK    3  A    between atoms: C_4  and  O_5
REMARK    4  A    between atoms: C_9  and  O_10
REMARK    5  A    between atoms: C_13  and  C_14
REMARK    6  A    between atoms: C_14  and  O_15
REMARK    7  A    between atoms: C_16  and  O_17
REMARK    8  A    between atoms: C_18  and  O_19
REMARK                            x       y       z     vdW  Elec       q    Type
REMARK                         _______ _______ _______ _____ _____    ______ ____
ROOT
ATOM      1  C   UNL     1      -2.728   3.755 -25.189  0.00  0.00    +0.203 A 
ATOM      2  C   UNL     1      -3.673   3.915 -24.312  0.00  0.00    +0.163 A 
ATOM      3  C   UNL     1      -3.476   3.571 -23.074  0.00  0.00    +0.064 A 
ATOM      4  C   UNL     1      -2.333   3.066 -22.714  0.00  0.00    +0.072 A 
ATOM      5  C   UNL     1      -1.388   2.906 -23.591  0.00  0.00    +0.044 A 
ATOM      6  C   UNL     1      -0.245   2.401 -23.231  0.00  0.00    +0.196 C 
ATOM      7  O   UNL     1       0.700   2.241 -24.109  0.00  0.00    -0.360 OA
ATOM      8  C   UNL     1       1.843   1.736 -23.748  0.00  0.00    +0.175 C 
ATOM      9  C   UNL     1       2.040   1.392 -22.511  0.00  0.00    +0.178 C 
ATOM     10  C   UNL     1       1.095   1.552 -21.633  0.00  0.00    +0.189 C 
ATOM     11  C   UNL     1      -0.048   2.057 -21.994  0.00  0.00    +0.241 C 
ATOM     12  O   UNL     1      -0.993   2.217 -21.115  0.00  0.00    -0.452 OA
ATOM     13  C   UNL     1      -2.136   2.722 -21.475  0.00  0.00    +0.340 C 
ATOM     14  O   UNL     1      -3.081   2.883 -20.598  0.00  0.00    -0.245 OA
ATOM     15  C   UNL     1      -1.585   3.250 -24.829  0.00  0.00    +0.169 A 
ENDROOT
BRANCH   1  17
ATOM     16  C   UNL     1      -3.523   3.281 -27.242  0.00  0.00    +0.277 C 
ATOM     17  O   UNL     1      -2.925   4.099 -26.428  0.00  0.00    -0.489 OA
ENDBRANCH   1  17
BRANCH  10  18
ATOM     18  O   UNL     1       1.292   1.208 -20.395  0.00  0.00    -0.385 OA
ATOM     19  H   UNL     1       0.519   1.458 -19.864  0.00  0.00    +0.210 HD
ENDBRANCH  10  18
BRANCH   9  20
ATOM     20  O   UNL     1       3.183   0.887 -22.151  0.00  0.00    -0.386 OA
ATOM     21  H   UNL     1       3.263   0.925 -21.185  0.00  0.00    +0.210 HD
ENDBRANCH   9  20
BRANCH  15  22
ATOM     22  O   UNL     1      -0.639   3.089 -25.707  0.00  0.00    -0.503 OA
ATOM     23  H   UNL     1       0.236   3.360 -25.509  0.00  0.00    +0.292 HD
ENDBRANCH  15  22
BRANCH   2  24
ATOM     24  O   UNL     1      -4.816   4.420 -24.672  0.00  0.00    -0.503 OA
ATOM     25  H   UNL     1      -5.292   4.969 -24.081  0.00  0.00    +0.292 HD
ENDBRANCH   2  24
BRANCH   8  26
ATOM     26  C   UNL     1       2.788   1.575 -24.626  0.00  0.00    +0.190 C 
BRANCH  26  27
ATOM     27  O   UNL     1       3.070   0.385 -25.068  0.00  0.00    -0.392 OA
ATOM     28  H   UNL     1       3.408   0.449 -25.975  0.00  0.00    +0.210 HD
ENDBRANCH  26  27
ENDBRANCH   8  26
TORSDOF 7
ENDMDL
