MODEL 1
REMARK VINA RESULT:    -8.776      0.000      0.000
REMARK INTER + INTRA:         -11.046
REMARK INTER:                 -10.743
REMARK INTRA:                  -0.303
REMARK UNBOUND:                -0.475
REMARK  Name = ZINC000001642232
REMARK  5 active torsions:
REMARK  status: ('A' for Active; 'I' for Inactive)
REMARK    1  A    between atoms: N_6  and  C1*_7
REMARK    2  A    between atoms: C4*_9  and  C5*_10
REMARK    3  A    between atoms: C5*_10  and  O5*_11
REMARK    4  A    between atoms: C3*_12  and  O3*_13
REMARK    5  A    between atoms: C2*_14  and  O2*_15
REMARK                            x       y       z     vdW  Elec       q    Type
REMARK                         _______ _______ _______ _____ _____    ______ ____
ROOT
ATOM      1  O   UNL     1      -5.548   2.574 -21.288  0.00  0.00    -0.265 OA
ATOM      2  C   UNL     1      -4.381   2.790 -21.819  0.00  0.00    +0.282 A 
ATOM      3  N   UNL     1      -3.305   2.392 -21.208  0.00  0.00    -0.273 N 
ATOM      4  H   UNL     1      -3.374   1.928 -20.343  0.00  0.00    +0.173 HD
ATOM      5  C   UNL     1      -2.138   2.608 -21.739  0.00  0.00    +0.333 A 
ATOM      6  N   UNL     1      -2.048   3.222 -22.881  0.00  0.00    -0.247 N 
ATOM      7  C   UNL     1      -3.124   3.620 -23.493  0.00  0.00    +0.170 A 
ATOM      8  N   UNL     1      -3.034   4.233 -24.636  0.00  0.00    -0.234 NA
ATOM      9  C   UNL     1      -4.110   4.631 -25.247  0.00  0.00    +0.133 A 
ATOM     10  C   UNL     1      -5.276   4.415 -24.716  0.00  0.00    +0.131 A 
ATOM     11  N   UNL     1      -5.367   3.801 -23.573  0.00  0.00    -0.245 NA
ATOM     12  O   UNL     1      -1.062   2.211 -21.128  0.00  0.00    -0.246 OA
ATOM     13  C   UNL     1      -4.291   3.404 -22.962  0.00  0.00    +0.171 A 
ENDROOT
BRANCH   6  14
ATOM     14  C1* UNL     1      -0.881   3.438 -23.413  0.00  0.00    +0.257 C 
ATOM     15  O4* UNL     1      -0.180   2.580 -24.093  0.00  0.00    -0.346 OA
ATOM     16  C4* UNL     1       0.923   3.162 -24.457  0.00  0.00    +0.177 C 
ATOM     17  C3* UNL     1       0.906   4.380 -24.003  0.00  0.00    +0.178 C 
ATOM     18  C2* UNL     1      -0.210   4.550 -23.357  0.00  0.00    +0.195 C 
BRANCH  17  19
ATOM     19  O3* UNL     1       1.838   5.271 -24.165  0.00  0.00    -0.386 OA
ATOM     20  H3* UNL     1       2.640   4.840 -24.501  0.00  0.00    +0.210 HD
ENDBRANCH  17  19
BRANCH  18  21
ATOM     21  O2* UNL     1      -0.588   5.642 -22.761  0.00  0.00    -0.385 OA
ATOM     22  H2* UNL     1      -0.013   6.375 -23.032  0.00  0.00    +0.210 HD
ENDBRANCH  18  21
BRANCH  16  23
ATOM     23  C5* UNL     1       1.878   2.621 -25.154  0.00  0.00    +0.190 C 
BRANCH  23  24
ATOM     24  O5* UNL     1       1.646   2.205 -26.364  0.00  0.00    -0.392 OA
ATOM     25  H5* UNL     1       0.691   2.232 -26.536  0.00  0.00    +0.210 HD
ENDBRANCH  23  24
ENDBRANCH  16  23
ENDBRANCH   6  14
TORSDOF 5
ENDMDL
