MODEL 1
REMARK VINA RESULT:    -9.717      0.000      0.000
REMARK INTER + INTRA:         -10.792
REMARK INTER:                 -12.116
REMARK INTRA:                   1.324
REMARK UNBOUND:                 1.765
REMARK  Name = ZINC000004175461
REMARK  11 active torsions:
REMARK  status: ('A' for Active; 'I' for Inactive)
REMARK    1  A    between atoms: C_1  and  O_2
REMARK    2  A    between atoms: O_2  and  C_3
REMARK    3  A    between atoms: C_6  and  C_7
REMARK    4  A    between atoms: C_7  and  C_8
REMARK    5  A    between atoms: C_9  and  C_10
REMARK    6  A    between atoms: C_9  and  C_11
REMARK    7  A    between atoms: C_16  and  C_17
REMARK    8  A    between atoms: C_20  and  O_21
REMARK    9  A    between atoms: C_24  and  O_25
REMARK   10  A    between atoms: C_28  and  C_29
REMARK   11  A    between atoms: C_28  and  C_30
REMARK                            x       y       z     vdW  Elec       q    Type
REMARK                         _______ _______ _______ _____ _____    ______ ____
ROOT
ATOM      1  C   UNL     1      -1.360   2.658 -21.901  0.00  0.00    +0.145 A 
ATOM      2  C   UNL     1      -2.653   2.777 -21.944  0.00  0.00    +0.059 A 
ATOM      3  C   UNL     1      -3.215   3.411 -22.931  0.00  0.00    +0.139 A 
ATOM      4  O   UNL     1      -4.508   3.529 -22.975  0.00  0.00    -0.481 OA
ATOM      5  C   UNL     1      -5.241   3.014 -22.032  0.00  0.00    +0.124 C 
ATOM      6  C   UNL     1      -4.679   2.380 -21.046  0.00  0.00    +0.020 C 
ATOM      7  C   UNL     1      -6.168   3.531 -22.781  0.00  0.00    +0.060 C 
ATOM      8  C   UNL     1      -6.295   2.678 -21.349  0.00  0.00    +0.060 C 
ATOM      9  C   UNL     1      -2.483   3.926 -23.874  0.00  0.00    +0.042 A 
ATOM     10  C   UNL     1      -1.188   3.807 -23.830  0.00  0.00    +0.153 A 
ATOM     11  O   UNL     1      -0.457   4.322 -24.773  0.00  0.00    -0.421 OA
ATOM     12  C   UNL     1       0.837   4.203 -24.729  0.00  0.00    +0.349 A 
ATOM     13  C   UNL     1       1.399   3.570 -23.743  0.00  0.00    +0.109 A 
ATOM     14  C   UNL     1       0.667   3.055 -22.800  0.00  0.00    +0.146 A 
ATOM     15  O   UNL     1       1.569   4.719 -25.672  0.00  0.00    -0.244 OA
ATOM     16  C   UNL     1      -3.385   2.262 -21.002  0.00  0.00    +0.015 C 
ATOM     17  C   UNL     1      -0.627   3.173 -22.844  0.00  0.00    +0.102 A 
ENDROOT
BRANCH  13  18
ATOM     18  C   UNL     1       2.693   3.451 -23.700  0.00  0.00    -0.007 A 
ATOM     19  C   UNL     1       3.421   4.434 -23.261  0.00  0.00    +0.012 A 
ATOM     20  C   UNL     1       4.715   4.315 -23.218  0.00  0.00    +0.046 A 
ATOM     21  C   UNL     1       5.280   3.214 -23.614  0.00  0.00    +0.117 A 
ATOM     22  C   UNL     1       4.552   2.231 -24.053  0.00  0.00    +0.046 A 
ATOM     23  C   UNL     1       3.258   2.349 -24.096  0.00  0.00    +0.012 A 
BRANCH  21  24
ATOM     24  O   UNL     1       6.574   3.095 -23.570  0.00  0.00    -0.507 OA
ATOM     25  H   UNL     1       7.058   3.490 -22.872  0.00  0.00    +0.292 HD
ENDBRANCH  21  24
ENDBRANCH  13  18
BRANCH  14  26
ATOM     26  O   UNL     1       1.229   2.421 -21.814  0.00  0.00    -0.505 OA
ATOM     27  H   UNL     1       0.763   1.741 -21.368  0.00  0.00    +0.292 HD
ENDBRANCH  14  26
BRANCH   1  29
ATOM     28  C   UNL     1      -0.681   0.730 -20.956  0.00  0.00    +0.277 C 
ATOM     29  O   UNL     1      -0.797   2.024 -20.914  0.00  0.00    -0.494 OA
ENDBRANCH   1  29
BRANCH   9  30
ATOM     30  C   UNL     1      -3.045   4.559 -24.861  0.00  0.00    +0.069 C 
BRANCH  30  31
ATOM     31  C   UNL     1      -2.795   4.206 -26.086  0.00  0.00    -0.023 C 
ATOM     32  C   UNL     1      -3.679   3.534 -26.762  0.00  0.00    -0.079 C 
ATOM     33  C   UNL     1      -4.813   3.215 -26.212  0.00  0.00    +0.038 C 
ATOM     34  C   UNL     1      -3.429   3.181 -27.988  0.00  0.00    +0.038 C 
ENDBRANCH  30  31
ENDBRANCH   9  30
TORSDOF 6
ENDMDL
