MODEL 1
REMARK VINA RESULT:    -9.130      0.000      0.000
REMARK INTER + INTRA:         -11.454
REMARK INTER:                 -11.190
REMARK INTRA:                  -0.264
REMARK UNBOUND:                -0.189
REMARK  Name = ZINC000000519823
REMARK  8 active torsions:
REMARK  status: ('A' for Active; 'I' for Inactive)
REMARK    1  A    between atoms: C_1  and  O_2
REMARK    2  A    between atoms: O_2  and  C_3
REMARK    3  A    between atoms: C_8  and  O_9
REMARK    4  A    between atoms: C_11  and  O_12
REMARK    5  A    between atoms: C_13  and  O_14
REMARK    6  A    between atoms: O_14  and  C_15
REMARK    7  A    between atoms: N_21  and  C_22
REMARK    8  A    between atoms: N_21  and  C_23
REMARK                            x       y       z     vdW  Elec       q    Type
REMARK                         _______ _______ _______ _____ _____    ______ ____
ROOT
ATOM      1  C   UNL     1       1.416   2.247 -23.690  0.00  0.00    +0.162 A 
ATOM      2  C   UNL     1       1.407   1.950 -22.424  0.00  0.00    +0.050 A 
ATOM      3  C   UNL     1       0.301   2.033 -21.745  0.00  0.00    +0.008 A 
ATOM      4  C   UNL     1      -0.795   2.412 -22.331  0.00  0.00    -0.030 A 
ATOM      5  C   UNL     1      -0.787   2.709 -23.597  0.00  0.00    +0.035 A 
ATOM      6  C   UNL     1      -1.882   3.087 -24.183  0.00  0.00    +0.040 A 
ATOM      7  C   UNL     1      -1.874   3.384 -25.449  0.00  0.00    +0.167 A 
ATOM      8  C   UNL     1      -2.970   3.763 -26.037  0.00  0.00    +0.162 A 
ATOM      9  C   UNL     1      -4.075   3.846 -25.357  0.00  0.00    +0.053 A 
ATOM     10  C   UNL     1      -4.085   3.549 -24.092  0.00  0.00    -0.030 A 
ATOM     11  C   UNL     1      -5.190   3.632 -23.412  0.00  0.00    +0.086 C 
ATOM     12  C   UNL     1      -5.199   3.336 -22.147  0.00  0.00    +0.138 C 
ATOM     13  N   UNL     1      -4.103   2.957 -21.560  0.00  0.00    +0.245 N 
ATOM     14  C   UNL     1      -3.293   2.559 -20.624  0.00  0.00    +0.193 C 
ATOM     15  C   UNL     1      -4.927   2.902 -20.556  0.00  0.00    +0.193 C 
ATOM     16  C   UNL     1      -2.997   2.874 -22.239  0.00  0.00    +0.102 C 
ATOM     17  C   UNL     1      -2.988   3.170 -23.505  0.00  0.00    +0.015 A 
ATOM     18  C   UNL     1      -1.900   2.495 -21.652  0.00  0.00    +0.095 C 
ATOM     19  C   UNL     1       0.320   2.626 -24.276  0.00  0.00    +0.167 A 
ENDROOT
BRANCH   1  21
ATOM     20  C   UNL     1       3.301   1.134 -24.218  0.00  0.00    +0.277 C 
ATOM     21  O   UNL     1       2.521   2.164 -24.368  0.00  0.00    -0.491 OA
ENDBRANCH   1  21
BRANCH   8  22
ATOM     22  O   UNL     1      -2.960   4.059 -27.301  0.00  0.00    -0.491 OA
ATOM     23  C   UNL     1      -3.713   3.396 -28.130  0.00  0.00    +0.277 C 
ENDBRANCH   8  22
BRANCH   7  24
ATOM     24  O   UNL     1      -0.768   3.301 -26.128  0.00  0.00    -0.503 OA
ATOM     25  H   UNL     1      -0.072   3.906 -25.966  0.00  0.00    +0.292 HD
ENDBRANCH   7  24
BRANCH  19  26
ATOM     26  O   UNL     1       0.328   2.922 -25.542  0.00  0.00    -0.503 OA
ATOM     27  H   UNL     1      -0.407   3.360 -25.925  0.00  0.00    +0.292 HD
ENDBRANCH  19  26
TORSDOF 4
ENDMDL
