MODEL 1
REMARK VINA RESULT:    -6.558      0.000      0.000
REMARK INTER + INTRA:          -7.709
REMARK INTER:                  -7.335
REMARK INTRA:                  -0.374
REMARK UNBOUND:                -0.385
REMARK  Name = ZINC000000038028
REMARK  4 active torsions:
REMARK  status: ('A' for Active; 'I' for Inactive)
REMARK    1  A    between atoms: C_1  and  C_2
REMARK    2  A    between atoms: C_2  and  C_4
REMARK    3  A    between atoms: C_7  and  O_8
REMARK    4  A    between atoms: C_10  and  O_11
REMARK                            x       y       z     vdW  Elec       q    Type
REMARK                         _______ _______ _______ _____ _____    ______ ____
ROOT
ATOM      1  C   UNL     1      -3.975   3.397 -22.349  0.00  0.00    +0.059 A 
ATOM      2  C   UNL     1      -2.922   3.544 -23.099  0.00  0.00    +0.018 A 
ATOM      3  C   UNL     1      -3.054   3.900 -24.342  0.00  0.00    +0.046 A 
ATOM      4  C   UNL     1      -4.238   4.109 -24.836  0.00  0.00    +0.120 A 
ATOM      5  C   UNL     1      -5.290   3.962 -24.087  0.00  0.00    +0.091 A 
ATOM      6  C   UNL     1      -5.159   3.606 -22.844  0.00  0.00    +0.131 A 
ENDROOT
BRANCH   1   8
ATOM      7  C   UNL     1      -3.145   3.774 -20.291  0.00  0.00    +0.092 C 
ATOM      8  C   UNL     1      -3.843   3.040 -21.107  0.00  0.00    +0.164 C 
ATOM      9  O   UNL     1      -4.408   1.951 -20.680  0.00  0.00    -0.292 OA
ENDBRANCH   1   8
BRANCH   4  10
ATOM     10  O   UNL     1      -4.370   4.465 -26.079  0.00  0.00    -0.507 OA
ATOM     11  H   UNL     1      -3.611   4.580 -26.616  0.00  0.00    +0.292 HD
ENDBRANCH   4  10
BRANCH   6  12
ATOM     12  O   UNL     1      -6.211   3.459 -22.095  0.00  0.00    -0.506 OA
ATOM     13  H   UNL     1      -6.356   4.038 -21.372  0.00  0.00    +0.292 HD
ENDBRANCH   6  12
TORSDOF 3
ENDMDL
