MODEL 1
REMARK VINA RESULT:   -10.348      0.000      0.000
REMARK INTER + INTRA:         -10.650
REMARK INTER:                 -10.650
REMARK INTRA:                   0.000
REMARK UNBOUND:                 0.000
REMARK  Name = ZINC000071325821
REMARK  4 active torsions:
REMARK  status: ('A' for Active; 'I' for Inactive)
REMARK    1  A    between atoms: C_1  and  C_2
REMARK    2  A    between atoms: C_6  and  C_7
REMARK    3  A    between atoms: C_6  and  O_8
REMARK    4  A    between atoms: C_14  and  C_15
REMARK                            x       y       z     vdW  Elec       q    Type
REMARK                         _______ _______ _______ _____ _____    ______ ____
ROOT
ATOM      1  C   UNL     1      -5.768   3.390 -22.137  0.00  0.00    +0.039 C 
ATOM      2  C   UNL     1      -4.525   3.129 -22.414  0.00  0.00    -0.073 C 
ATOM      3  C   UNL     1      -4.177   3.288 -23.656  0.00  0.00    -0.061 C 
ATOM      4  C   UNL     1      -4.998   3.681 -24.584  0.00  0.00    +0.034 C 
ATOM      5  C   UNL     1      -4.340   3.736 -25.705  0.00  0.00    +0.039 C 
ATOM      6  C   UNL     1      -3.113   3.378 -25.469  0.00  0.00    +0.073 C 
ATOM      7  C   UNL     1      -2.951   3.590 -26.741  0.00  0.00    +0.042 C 
ATOM      8  C   UNL     1      -3.012   3.101 -24.202  0.00  0.00    +0.087 C 
ATOM      9  C   UNL     1      -1.907   2.709 -23.641  0.00  0.00    +0.190 C 
ATOM     10  O   UNL     1      -0.790   2.554 -24.288  0.00  0.00    -0.460 OA
ATOM     11  C   UNL     1       0.113   2.157 -23.442  0.00  0.00    +0.311 C 
ATOM     12  C   UNL     1      -0.446   2.066 -22.272  0.00  0.00    +0.101 C 
ATOM     13  C   UNL     1       0.141   1.698 -21.172  0.00  0.00    +0.019 C 
ATOM     14  O   UNL     1       1.357   1.896 -23.717  0.00  0.00    -0.251 OA
ATOM     15  C   UNL     1      -1.694   2.407 -22.394  0.00  0.00    +0.044 C 
ATOM     16  C   UNL     1      -2.533   2.423 -21.402  0.00  0.00    +0.012 C 
ATOM     17  C   UNL     1      -3.792   2.744 -21.410  0.00  0.00    +0.031 C 
ENDROOT
BRANCH   6  18
ATOM     18  O   UNL     1      -1.852   3.064 -25.499  0.00  0.00    -0.388 OA
ATOM     19  H   UNL     1      -1.431   3.490 -26.260  0.00  0.00    +0.210 HD
ENDBRANCH   6  18
TORSDOF 1
ENDMDL
