MODEL 1
REMARK VINA RESULT:   -10.758      0.000      0.000
REMARK INTER + INTRA:         -10.752
REMARK INTER:                 -11.672
REMARK INTRA:                   0.921
REMARK UNBOUND:                 1.264
REMARK  Name = ZINC000034643615
REMARK  5 active torsions:
REMARK  status: ('A' for Active; 'I' for Inactive)
REMARK    1  A    between atoms: C_1  and  O_2
REMARK    2  A    between atoms: O_2  and  C_3
REMARK    3  A    between atoms: C_11  and  O_12
REMARK    4  A    between atoms: O_12  and  C_13
REMARK    5  A    between atoms: N_19  and  C_20
REMARK                            x       y       z     vdW  Elec       q    Type
REMARK                         _______ _______ _______ _____ _____    ______ ____
ROOT
ATOM      1  C   UNL     1       0.871   2.255 -23.201  0.00  0.00    +0.162 A 
ATOM      2  C   UNL     1       0.837   1.847 -22.003  0.00  0.00    +0.050 A 
ATOM      3  C   UNL     1      -0.237   1.848 -21.364  0.00  0.00    +0.008 A 
ATOM      4  C   UNL     1      -1.287   2.255 -21.912  0.00  0.00    -0.034 A 
ATOM      5  C   UNL     1      -1.278   2.666 -23.102  0.00  0.00    +0.015 A 
ATOM      6  C   UNL     1      -2.328   3.071 -23.644  0.00  0.00    +0.070 C 
ATOM      7  C   UNL     1      -3.458   3.555 -24.367  0.00  0.00    +0.071 C 
ATOM      8  C   UNL     1      -4.685   3.568 -23.672  0.00  0.00    +0.133 C 
ATOM      9  N   UNL     1      -4.685   3.106 -22.338  0.00  0.00    +0.239 N 
ATOM     10  H   UNL     1      -5.544   3.093 -21.788  0.00  0.00    +0.204 HD
ATOM     11  C   UNL     1      -5.730   3.084 -21.651  0.00  0.00    +0.191 C 
ATOM     12  C   UNL     1      -3.436   2.664 -21.810  0.00  0.00    +0.096 C 
ATOM     13  C   UNL     1      -3.405   3.073 -23.007  0.00  0.00    -0.011 C 
ATOM     14  C   UNL     1      -4.468   3.483 -23.557  0.00  0.00    -0.018 C 
ATOM     15  C   UNL     1      -4.440   3.888 -24.741  0.00  0.00    +0.062 C 
ATOM     16  C   UNL     1      -3.358   3.891 -25.395  0.00  0.00    +0.163 C 
ATOM     17  C   UNL     1      -2.308   3.484 -24.847  0.00  0.00    +0.217 C 
ATOM     18  O   UNL     1      -0.825   3.227 -24.992  0.00  0.00    -0.481 OA
ATOM     19  C   UNL     1      -2.387   2.258 -21.263  0.00  0.00    +0.094 C 
ATOM     20  C   UNL     1      -0.194   2.666 -23.751  0.00  0.00    +0.167 A 
ENDROOT
BRANCH   1  22
ATOM     21  C   UNL     1       2.610   3.308 -23.955  0.00  0.00    +0.277 C 
ATOM     22  O   UNL     1       1.949   2.253 -23.837  0.00  0.00    -0.491 OA
ENDBRANCH   1  22
BRANCH  16  23
ATOM     23  O   UNL     1      -3.336   4.296 -26.577  0.00  0.00    -0.376 OA
ATOM     24  C   UNL     1      -3.357   3.475 -27.520  0.00  0.00    +0.194 C 
ENDBRANCH  16  23
TORSDOF 2
ENDMDL
