MODEL 1
REMARK VINA RESULT:   -10.545      0.000      0.000
REMARK INTER + INTRA:         -10.854
REMARK INTER:                 -10.854
REMARK INTRA:                   0.000
REMARK UNBOUND:                 0.000
REMARK  Name = C=C1C(=O)O[C@@H]2/C=C(\C)[C@@H](O)C/C=C(\C)CC[C@H]12                 ZINC000105223888
REMARK  3 active torsions:
REMARK  status: ('A' for Active; 'I' for Inactive)
REMARK    1  A    between atoms: C_8  and  C_9
REMARK    2  A    between atoms: C_10  and  O_11
REMARK    3  A    between atoms: C_14  and  C_15
REMARK                            x       y       z     vdW  Elec       q    Type
REMARK                         _______ _______ _______ _____ _____    ______ ____
ROOT
ATOM      1  C   UNL     1       0.660   1.525 -21.214  0.00  0.00    +0.020 C 
ATOM      2  C   UNL     1      -0.071   1.974 -22.193  0.00  0.00    +0.036 C 
ATOM      3  C   UNL     1       0.326   2.159 -23.421  0.00  0.00    +0.336 C 
ATOM      4  O   UNL     1      -0.681   2.616 -24.109  0.00  0.00    -0.453 OA
ATOM      5  C   UNL     1      -1.703   2.713 -23.303  0.00  0.00    +0.207 C 
ATOM      6  C   UNL     1      -2.789   3.067 -23.472  0.00  0.00    +0.019 C 
ATOM      7  C   UNL     1      -3.212   3.470 -24.626  0.00  0.00    -0.045 C 
ATOM      8  C   UNL     1      -4.517   3.883 -24.781  0.00  0.00    +0.144 C 
ATOM      9  C   UNL     1      -5.468   3.900 -23.730  0.00  0.00    +0.063 C 
ATOM     10  C   UNL     1      -5.204   3.514 -22.454  0.00  0.00    -0.025 C 
ATOM     11  C   UNL     1      -4.074   3.139 -22.252  0.00  0.00    -0.076 C 
ATOM     12  C   UNL     1      -3.566   2.719 -21.126  0.00  0.00    +0.031 C 
ATOM     13  C   UNL     1      -2.224   2.315 -21.052  0.00  0.00    +0.016 C 
ATOM     14  C   UNL     1      -3.462   3.169 -23.095  0.00  0.00    +0.039 C 
ATOM     15  C   UNL     1      -2.399   3.486 -25.654  0.00  0.00    +0.041 C 
ATOM     16  O   UNL     1       1.522   1.928 -23.885  0.00  0.00    -0.245 OA
ATOM     17  C   UNL     1      -1.327   2.318 -22.123  0.00  0.00    +0.070 C 
ENDROOT
BRANCH   8  18
ATOM     18  O   UNL     1      -4.901   4.283 -25.969  0.00  0.00    -0.387 OA
ATOM     19  H   UNL     1      -4.851   5.250 -26.016  0.00  0.00    +0.210 HD
ENDBRANCH   8  18
TORSDOF 1
ENDMDL
