MODEL 1
REMARK VINA RESULT:    -8.276      0.000      0.000
REMARK INTER + INTRA:         -14.744
REMARK INTER:                 -13.591
REMARK INTRA:                  -1.153
REMARK UNBOUND:                -1.147
REMARK  Name = ZINC000014718751
REMARK  18 active torsions:
REMARK  status: ('A' for Active; 'I' for Inactive)
REMARK    1  A    between atoms: C_1  and  C_2
REMARK    2  A    between atoms: C_2  and  C_3
REMARK    3  A    between atoms: C_3  and  C_4
REMARK    4  A    between atoms: C_10  and  C_11
REMARK    5  A    between atoms: C_11  and  C_13
REMARK    6  A    between atoms: C_13  and  C_14
REMARK    7  A    between atoms: C_13  and  C_15
REMARK    8  A    between atoms: C_15  and  C_16
REMARK    9  A    between atoms: C_17  and  O_18
REMARK   10  A    between atoms: C_19  and  C_20
REMARK   11  A    between atoms: C_20  and  C_21
REMARK   12  A    between atoms: C_22  and  C_23
REMARK   13  A    between atoms: C_22  and  C_24
REMARK   14  A    between atoms: C_24  and  C_25
REMARK   15  A    between atoms: C_25  and  C_26
REMARK   16  A    between atoms: C_27  and  C_28
REMARK   17  A    between atoms: C_27  and  C_29
REMARK   18  A    between atoms: C_30  and  O_31
REMARK                            x       y       z     vdW  Elec       q    Type
REMARK                         _______ _______ _______ _____ _____    ______ ____
ROOT
ATOM      1  C   UNL     1       4.870   5.923 -22.430  0.00  0.00    -0.026 A 
ATOM      2  C   UNL     1       6.055   5.537 -22.061  0.00  0.00    +0.096 A 
ATOM      3  C   UNL     1       6.368   4.275 -22.092  0.00  0.00    +0.338 A 
ATOM      4  O   UNL     1       5.494   3.400 -22.494  0.00  0.00    -0.421 OA
ATOM      5  C   UNL     1       4.309   3.785 -22.863  0.00  0.00    +0.157 A 
ATOM      6  C   UNL     1       3.436   2.910 -23.264  0.00  0.00    +0.102 A 
ATOM      7  C   UNL     1       2.251   3.296 -23.633  0.00  0.00    +0.138 A 
ATOM      8  C   UNL     1       1.939   4.557 -23.602  0.00  0.00    +0.041 A 
ATOM      9  C   UNL     1       2.812   5.433 -23.200  0.00  0.00    +0.135 A 
ATOM     10  O   UNL     1       7.552   3.890 -21.723  0.00  0.00    -0.245 OA
ATOM     11  C   UNL     1       3.997   5.048 -22.831  0.00  0.00    +0.063 A 
ENDROOT
BRANCH   9  12
ATOM     12  O   UNL     1       2.500   6.695 -23.169  0.00  0.00    -0.506 OA
ATOM     13  H   UNL     1       1.901   7.045 -23.798  0.00  0.00    +0.292 HD
ENDBRANCH   9  12
BRANCH   6  14
ATOM     14  C   UNL     1       3.748   1.648 -23.296  0.00  0.00    +0.173 C 
ATOM     15  O   UNL     1       3.993   1.067 -24.433  0.00  0.00    -0.292 OA
BRANCH  14  16
ATOM     16  C   UNL     1       3.816   0.967 -22.191  0.00  0.00    +0.057 C 
ATOM     17  C   UNL     1       2.764   0.845 -21.436  0.00  0.00    +0.016 C 
BRANCH  16  18
ATOM     18  C   UNL     1       4.936   0.409 -21.839  0.00  0.00    +0.008 C 
ATOM     19  C   UNL     1       5.143   0.095 -20.594  0.00  0.00    +0.004 C 
ENDBRANCH  16  18
ENDBRANCH  14  16
ENDBRANCH   6  14
BRANCH   7  20
ATOM     20  O   UNL     1       1.378   2.420 -24.034  0.00  0.00    -0.506 OA
ATOM     21  H   UNL     1       1.635   1.738 -24.623  0.00  0.00    +0.292 HD
ENDBRANCH   7  20
BRANCH   8  22
ATOM     22  C   UNL     1       0.753   4.944 -23.971  0.00  0.00    +0.069 C 
BRANCH  22  23
ATOM     23  C   UNL     1      -0.244   4.867 -23.140  0.00  0.00    -0.023 C 
ATOM     24  C   UNL     1      -1.390   4.407 -23.543  0.00  0.00    -0.076 C 
ATOM     25  C   UNL     1      -1.541   4.023 -24.776  0.00  0.00    +0.039 C 
BRANCH  24  26
ATOM     26  C   UNL     1      -2.388   4.330 -22.712  0.00  0.00    +0.034 C 
BRANCH  26  27
ATOM     27  C   UNL     1      -3.093   3.241 -22.642  0.00  0.00    +0.031 C 
BRANCH  27  28
ATOM     28  C   UNL     1      -4.392   3.307 -22.633  0.00  0.00    -0.028 C 
ATOM     29  C   UNL     1      -5.064   2.752 -21.667  0.00  0.00    -0.080 C 
ATOM     30  C   UNL     1      -4.437   2.131 -20.713  0.00  0.00    +0.038 C 
ATOM     31  C   UNL     1      -6.362   2.818 -21.658  0.00  0.00    +0.038 C 
ENDBRANCH  27  28
ENDBRANCH  26  27
ENDBRANCH  24  26
ENDBRANCH  22  23
ENDBRANCH   8  22
BRANCH   1  32
ATOM     32  C   UNL     1       4.558   7.184 -22.398  0.00  0.00    +0.036 C 
BRANCH  32  34
ATOM     33  C   UNL     1       4.453   8.482 -20.561  0.00  0.00    +0.004 C 
ATOM     34  C   UNL     1       5.136   7.976 -21.544  0.00  0.00    +0.001 C 
ENDBRANCH  32  34
ENDBRANCH   1  32
TORSDOF 12
ENDMDL
