MODEL 1
REMARK VINA RESULT:   -10.007      0.000      0.000
REMARK INTER + INTRA:          -9.052
REMARK INTER:                 -10.880
REMARK INTRA:                   1.828
REMARK UNBOUND:                 1.832
REMARK  Name = ZINC000004104705
REMARK  6 active torsions:
REMARK  status: ('A' for Active; 'I' for Inactive)
REMARK    1  A    between atoms: C_1  and  C_2
REMARK    2  A    between atoms: C_5  and  O_6
REMARK    3  A    between atoms: C_7  and  C_8
REMARK    4  A    between atoms: C_8  and  O_9
REMARK    5  A    between atoms: C_15  and  C_16
REMARK    6  A    between atoms: C_15  and  C_17
REMARK                            x       y       z     vdW  Elec       q    Type
REMARK                         _______ _______ _______ _____ _____    ______ ____
ROOT
ATOM      1  C   UNL     1      -3.708   2.501 -21.006  0.00  0.00    +0.008 C 
ATOM      2  C   UNL     1      -3.986   3.003 -22.173  0.00  0.00    -0.010 C 
ATOM      3  C   UNL     1      -5.202   3.373 -22.448  0.00  0.00    +0.006 C 
ATOM      4  C   UNL     1      -5.480   3.875 -23.614  0.00  0.00    +0.032 C 
ATOM      5  C   UNL     1      -4.543   4.008 -24.506  0.00  0.00    +0.123 C 
ATOM      6  C   UNL     1      -3.328   3.638 -24.231  0.00  0.00    +0.023 C 
ATOM      7  C   UNL     1      -2.391   3.770 -25.122  0.00  0.00    +0.012 C 
ATOM      8  C   UNL     1      -1.175   3.401 -24.847  0.00  0.00    +0.005 C 
ATOM      9  C   UNL     1      -0.897   2.899 -23.681  0.00  0.00    -0.001 C 
ATOM     10  C   UNL     1      -1.834   2.766 -22.789  0.00  0.00    +0.003 C 
ATOM     11  C   UNL     1      -0.618   2.396 -22.514  0.00  0.00    -0.028 C 
ATOM     12  C   UNL     1       0.655   2.174 -22.663  0.00  0.00    +0.011 C 
ATOM     13  C   UNL     1      -0.781   1.972 -21.297  0.00  0.00    +0.011 C 
ATOM     14  C   UNL     1      -3.049   3.136 -23.064  0.00  0.00    +0.007 C 
ENDROOT
BRANCH   5  15
ATOM     15  O   UNL     1      -4.822   4.510 -25.672  0.00  0.00    -0.391 OA
ATOM     16  H   UNL     1      -4.285   4.069 -26.349  0.00  0.00    +0.210 HD
ENDBRANCH   5  15
BRANCH   6  17
ATOM     17  C   UNL     1      -3.606   4.140 -25.397  0.00  0.00    +0.165 C 
BRANCH  17  18
ATOM     18  O   UNL     1      -4.084   5.346 -25.489  0.00  0.00    -0.394 OA
ATOM     19  H   UNL     1      -3.639   5.816 -26.212  0.00  0.00    +0.209 HD
ENDBRANCH  17  18
ENDBRANCH   6  17
TORSDOF 3
ENDMDL
