MODEL 1
REMARK VINA RESULT:    -9.379      0.000      0.000
REMARK INTER + INTRA:         -10.328
REMARK INTER:                 -10.099
REMARK INTRA:                  -0.229
REMARK UNBOUND:                 0.147
REMARK  Name = CC[N@@+]1(C)CCc2cc3c(c4c2[C@H]1Cc1ccc(OC)cc1-4)OCO3                  ZINC000249692481
REMARK  5 active torsions:
REMARK  status: ('A' for Active; 'I' for Inactive)
REMARK    1  A    between atoms: C_1  and  C_2
REMARK    2  A    between atoms: C_2  and  N_3
REMARK    3  A    between atoms: N_3  and  C_4
REMARK    4  A    between atoms: C_18  and  O_19
REMARK    5  A    between atoms: O_19  and  C_20
REMARK                            x       y       z     vdW  Elec       q    Type
REMARK                         _______ _______ _______ _____ _____    ______ ____
ROOT
ATOM      1  N   UNL     1       0.946   2.103 -22.303  0.00  0.00    +0.247 N 
ATOM      2  C   UNL     1       1.735   2.215 -23.329  0.00  0.00    +0.138 C 
ATOM      3  C   UNL     1       1.257   2.594 -24.477  0.00  0.00    +0.086 C 
ATOM      4  C   UNL     1      -0.010   2.861 -24.599  0.00  0.00    -0.030 A 
ATOM      5  C   UNL     1      -0.487   3.240 -25.747  0.00  0.00    +0.054 A 
ATOM      6  C   UNL     1      -1.753   3.507 -25.869  0.00  0.00    +0.167 A 
ATOM      7  C   UNL     1      -2.542   3.395 -24.841  0.00  0.00    +0.174 A 
ATOM      8  O   UNL     1      -3.744   3.715 -25.221  0.00  0.00    -0.452 OA
ATOM      9  C   UNL     1      -3.697   4.025 -26.483  0.00  0.00    +0.466 C 
ATOM     10  C   UNL     1      -2.064   3.016 -23.693  0.00  0.00    +0.037 A 
ATOM     11  C   UNL     1      -2.854   2.904 -22.666  0.00  0.00    -0.007 A 
ATOM     12  C   UNL     1      -4.121   3.171 -22.787  0.00  0.00    +0.054 A 
ATOM     13  C   UNL     1      -4.909   3.059 -21.760  0.00  0.00    +0.121 A 
ATOM     14  C   UNL     1      -4.432   2.680 -20.612  0.00  0.00    +0.046 A 
ATOM     15  C   UNL     1      -3.166   2.413 -20.491  0.00  0.00    +0.008 A 
ATOM     16  C   UNL     1      -2.376   2.525 -21.518  0.00  0.00    -0.034 A 
ATOM     17  C   UNL     1      -1.110   2.258 -21.396  0.00  0.00    +0.095 C 
ATOM     18  O   UNL     1      -2.467   3.896 -26.883  0.00  0.00    -0.453 OA
ATOM     19  C   UNL     1      -0.798   2.749 -23.572  0.00  0.00    +0.015 A 
ATOM     20  C   UNL     1       0.549   1.870 -21.086  0.00  0.00    +0.193 C 
ATOM     21  C   UNL     1      -0.321   2.370 -22.424  0.00  0.00    +0.102 C 
ENDROOT
BRANCH   1  23
ATOM     22  C   UNL     1       2.612   0.610 -22.055  0.00  0.00    +0.060 C 
ATOM     23  C   UNL     1       2.074   1.755 -21.759  0.00  0.00    +0.130 C 
ENDBRANCH   1  23
BRANCH  13  24
ATOM     24  O   UNL     1      -6.176   3.326 -21.881  0.00  0.00    -0.495 OA
ATOM     25  C   UNL     1      -7.057   2.384 -21.720  0.00  0.00    +0.277 C 
ENDBRANCH  13  24
TORSDOF 2
ENDMDL
