MODEL 1
REMARK VINA RESULT:   -10.950      0.000      0.000
REMARK INTER + INTRA:         -12.029
REMARK INTER:                 -11.920
REMARK INTRA:                  -0.109
REMARK UNBOUND:                -0.119
REMARK  Name = COc1ccc2c3c1O[C@@H]1[C@H](O)[C@H](Cl)C=C4[C@@H](C2)N(C)CC[C@]431     ZINC000253505633
REMARK  4 active torsions:
REMARK  status: ('A' for Active; 'I' for Inactive)
REMARK    1  A    between atoms: C_1  and  O_2
REMARK    2  A    between atoms: O_2  and  C_3
REMARK    3  A    between atoms: C_11  and  O_12
REMARK    4  A    between atoms: N_19  and  C_20
REMARK                            x       y       z     vdW  Elec       q    Type
REMARK                         _______ _______ _______ _____ _____    ______ ____
ROOT
ATOM      1  C   UNL     1       1.235   1.729 -22.180  0.00  0.00    +0.162 A 
ATOM      2  C   UNL     1       1.780   2.098 -23.260  0.00  0.00    +0.050 A 
ATOM      3  C   UNL     1       1.109   2.668 -24.149  0.00  0.00    +0.008 A 
ATOM      4  C   UNL     1      -0.114   2.874 -23.966  0.00  0.00    -0.034 A 
ATOM      5  C   UNL     1      -0.677   2.515 -22.899  0.00  0.00    +0.015 A 
ATOM      6  C   UNL     1      -1.898   2.723 -22.724  0.00  0.00    +0.070 C 
ATOM      7  C   UNL     1      -3.277   2.905 -22.409  0.00  0.00    +0.071 C 
ATOM      8  C   UNL     1      -4.061   3.545 -23.393  0.00  0.00    +0.133 C 
ATOM      9  N   UNL     1      -3.419   3.943 -24.584  0.00  0.00    +0.239 N 
ATOM     10  H   UNL     1      -3.940   4.409 -25.326  0.00  0.00    +0.204 HD
ATOM     11  C   UNL     1      -4.042   4.516 -25.505  0.00  0.00    +0.191 C 
ATOM     12  C   UNL     1      -2.026   3.661 -24.689  0.00  0.00    +0.096 C 
ATOM     13  C   UNL     1      -2.574   3.293 -23.611  0.00  0.00    -0.010 C 
ATOM     14  C   UNL     1      -3.808   3.502 -23.429  0.00  0.00    +0.000 C 
ATOM     15  C   UNL     1      -4.356   3.139 -22.362  0.00  0.00    +0.135 C 
ATOM     16 CL   UNL     1      -5.577   3.348 -22.188  0.00  0.00    -0.115 Cl
ATOM     17  C   UNL     1      -3.679   2.563 -21.462  0.00  0.00    +0.178 C 
ATOM     18  C   UNL     1      -2.458   2.355 -21.639  0.00  0.00    +0.219 C 
ATOM     19  O   UNL     1      -1.175   1.792 -21.080  0.00  0.00    -0.481 OA
ATOM     20  C   UNL     1      -0.804   3.455 -24.870  0.00  0.00    +0.094 C 
ATOM     21  C   UNL     1      -0.001   1.939 -22.001  0.00  0.00    +0.167 A 
ENDROOT
BRANCH   1  23
ATOM     22  C   UNL     1       3.066   0.751 -21.553  0.00  0.00    +0.277 C 
ATOM     23  O   UNL     1       1.911   1.159 -21.295  0.00  0.00    -0.491 OA
ENDBRANCH   1  23
BRANCH  17  24
ATOM     24  O   UNL     1      -4.230   2.201 -20.396  0.00  0.00    -0.386 OA
ATOM     25  H   UNL     1      -4.440   2.982 -19.861  0.00  0.00    +0.210 HD
ENDBRANCH  17  24
TORSDOF 2
ENDMDL
