MODEL 1
REMARK VINA RESULT:    -9.158      0.000      0.000
REMARK INTER + INTRA:         -10.092
REMARK INTER:                 -11.327
REMARK INTRA:                   1.235
REMARK UNBOUND:                 1.207
REMARK  Name = ZINC000002048860
REMARK  7 active torsions:
REMARK  status: ('A' for Active; 'I' for Inactive)
REMARK    1  A    between atoms: C_1  and  O_2
REMARK    2  A    between atoms: O_2  and  C_3
REMARK    3  A    between atoms: C_5  and  O_6
REMARK    4  A    between atoms: O_6  and  C_7
REMARK    5  A    between atoms: C_9  and  O_10
REMARK    6  A    between atoms: O_10  and  C_11
REMARK    7  A    between atoms: C_12  and  C_13
REMARK                            x       y       z     vdW  Elec       q    Type
REMARK                         _______ _______ _______ _____ _____    ______ ____
ROOT
ATOM      1  C   UNL     1      -3.807   2.675 -22.147  0.00  0.00    +0.127 A 
ATOM      2  C   UNL     1      -3.522   3.176 -23.314  0.00  0.00    +0.092 A 
ATOM      3  C   UNL     1      -2.287   3.227 -23.715  0.00  0.00    +0.138 A 
ATOM      4  C   UNL     1      -1.335   2.777 -22.951  0.00  0.00    +0.102 A 
ATOM      5  C   UNL     1      -0.100   2.828 -23.352  0.00  0.00    +0.149 A 
ATOM      6  C   UNL     1       0.850   2.378 -22.588  0.00  0.00    +0.109 A 
ATOM      7  C   UNL     1       0.566   1.877 -21.423  0.00  0.00    +0.349 A 
ATOM      8  O   UNL     1      -0.670   1.826 -21.022  0.00  0.00    -0.421 OA
ATOM      9  O   UNL     1       1.517   1.427 -20.659  0.00  0.00    -0.244 OA
ATOM     10  C   UNL     1      -1.620   2.276 -21.786  0.00  0.00    +0.150 A 
ATOM     11  C   UNL     1      -2.856   2.225 -21.384  0.00  0.00    +0.093 A 
ENDROOT
BRANCH   6  12
ATOM     12  C   UNL     1       2.086   2.429 -22.990  0.00  0.00    -0.004 A 
ATOM     13  C   UNL     1       2.543   1.524 -23.804  0.00  0.00    +0.012 A 
ATOM     14  C   UNL     1       3.778   1.574 -24.205  0.00  0.00    +0.050 A 
ATOM     15  C   UNL     1       4.557   2.529 -23.792  0.00  0.00    +0.166 A 
ATOM     16  C   UNL     1       4.100   3.434 -22.978  0.00  0.00    +0.167 A 
ATOM     17  O   UNL     1       5.065   4.266 -22.720  0.00  0.00    -0.453 OA
ATOM     18  C   UNL     1       6.118   3.876 -23.374  0.00  0.00    +0.466 C 
ATOM     19  O   UNL     1       5.804   2.802 -24.037  0.00  0.00    -0.453 OA
ATOM     20  C   UNL     1       2.865   3.384 -22.577  0.00  0.00    +0.058 A 
ENDBRANCH   6  12
BRANCH   1  22
ATOM     21  C   UNL     1      -5.942   3.368 -22.317  0.00  0.00    +0.277 C 
ATOM     22  O   UNL     1      -5.042   2.624 -21.746  0.00  0.00    -0.495 OA
ENDBRANCH   1  22
BRANCH   5  23
ATOM     23  O   UNL     1       0.184   3.329 -24.518  0.00  0.00    -0.493 OA
ATOM     24  C   UNL     1       0.692   4.522 -24.606  0.00  0.00    +0.277 C 
ENDBRANCH   5  23
BRANCH   3  25
ATOM     25  O   UNL     1      -2.001   3.728 -24.880  0.00  0.00    -0.494 OA
ATOM     26  C   UNL     1      -2.818   3.563 -25.877  0.00  0.00    +0.277 C 
ENDBRANCH   3  25
TORSDOF 4
ENDMDL
