MODEL 1
REMARK VINA RESULT:   -10.110      0.000      0.000
REMARK INTER + INTRA:         -10.603
REMARK INTER:                 -11.261
REMARK INTRA:                   0.659
REMARK UNBOUND:                 1.281
REMARK  Name = ZINC000014757021
REMARK  5 active torsions:
REMARK  status: ('A' for Active; 'I' for Inactive)
REMARK    1  A    between atoms: C_1  and  O_2
REMARK    2  A    between atoms: O_2  and  C_3
REMARK    3  A    between atoms: C_9  and  O_10
REMARK    4  A    between atoms: O_10  and  C_11
REMARK    5  A    between atoms: C_12  and  C_13
REMARK                            x       y       z     vdW  Elec       q    Type
REMARK                         _______ _______ _______ _____ _____    ______ ____
ROOT
ATOM      1  C   UNL     1      -4.518   3.465 -22.488  0.00  0.00    +0.124 A 
ATOM      2  C   UNL     1      -4.699   3.673 -23.758  0.00  0.00    +0.046 A 
ATOM      3  C   UNL     1      -3.690   3.623 -24.576  0.00  0.00    +0.019 A 
ATOM      4  C   UNL     1      -2.500   3.365 -24.124  0.00  0.00    +0.068 A 
ATOM      5  C   UNL     1      -1.490   3.315 -24.942  0.00  0.00    +0.235 A 
ATOM      6  C   UNL     1      -0.299   3.057 -24.489  0.00  0.00    +0.211 A 
ATOM      7  C   UNL     1      -0.117   2.849 -23.219  0.00  0.00    +0.181 A 
ATOM      8  O   UNL     1      -1.126   2.898 -22.400  0.00  0.00    -0.451 OA
ATOM      9  O   UNL     1      -1.671   3.524 -26.212  0.00  0.00    -0.283 OA
ATOM     10  C   UNL     1      -2.318   3.157 -22.853  0.00  0.00    +0.143 A 
ATOM     11  C   UNL     1      -3.327   3.206 -22.036  0.00  0.00    +0.092 A 
ENDROOT
BRANCH   7  12
ATOM     12  C   UNL     1       1.074   2.590 -22.766  0.00  0.00    +0.025 A 
ATOM     13  C   UNL     1       2.010   3.488 -22.847  0.00  0.00    +0.015 A 
ATOM     14  C   UNL     1       3.201   3.228 -22.393  0.00  0.00    +0.050 A 
ATOM     15  C   UNL     1       3.454   2.071 -21.858  0.00  0.00    +0.166 A 
ATOM     16  C   UNL     1       2.518   1.173 -21.777  0.00  0.00    +0.167 A 
ATOM     17  O   UNL     1       3.021   0.118 -21.209  0.00  0.00    -0.453 OA
ATOM     18  C   UNL     1       4.269   0.364 -20.939  0.00  0.00    +0.466 C 
ATOM     19  O   UNL     1       4.537   1.571 -21.341  0.00  0.00    -0.453 OA
ATOM     20  C   UNL     1       1.328   1.432 -22.230  0.00  0.00    +0.061 A 
ENDBRANCH   7  12
BRANCH   1  22
ATOM     21  C   UNL     1      -6.472   2.625 -21.748  0.00  0.00    +0.277 C 
ATOM     22  O   UNL     1      -5.528   3.514 -21.670  0.00  0.00    -0.495 OA
ENDBRANCH   1  22
BRANCH   6  23
ATOM     23  O   UNL     1       0.710   3.007 -25.306  0.00  0.00    -0.488 OA
ATOM     24  C   UNL     1       1.199   4.103 -25.806  0.00  0.00    +0.277 C 
ENDBRANCH   6  23
TORSDOF 3
ENDMDL
