MODEL 1
REMARK VINA RESULT:    -8.109      0.000      0.000
REMARK INTER + INTRA:         -10.229
REMARK INTER:                 -11.130
REMARK INTRA:                   0.901
REMARK UNBOUND:                 0.724
REMARK  Name = COc1ccc2c(c1)OC[C@H](c1c(OC)cc(OC)c(OC)c1OC)C2=O                     ZINC000253402585
REMARK  11 active torsions:
REMARK  status: ('A' for Active; 'I' for Inactive)
REMARK    1  A    between atoms: C_1  and  O_2
REMARK    2  A    between atoms: O_2  and  C_3
REMARK    3  A    between atoms: C_11  and  C_12
REMARK    4  A    between atoms: C_13  and  O_14
REMARK    5  A    between atoms: O_14  and  C_15
REMARK    6  A    between atoms: C_17  and  O_18
REMARK    7  A    between atoms: O_18  and  C_19
REMARK    8  A    between atoms: C_20  and  O_21
REMARK    9  A    between atoms: O_21  and  C_22
REMARK   10  A    between atoms: C_23  and  O_24
REMARK   11  A    between atoms: O_24  and  C_25
REMARK                            x       y       z     vdW  Elec       q    Type
REMARK                         _______ _______ _______ _____ _____    ______ ____
ROOT
ATOM      1  C   UNL     1      -2.395   3.829 -23.046  0.00  0.00    +0.053 A 
ATOM      2  C   UNL     1      -2.948   3.507 -21.914  0.00  0.00    +0.131 A 
ATOM      3  C   UNL     1      -4.238   3.353 -21.841  0.00  0.00    +0.095 A 
ATOM      4  C   UNL     1      -4.973   3.521 -22.900  0.00  0.00    +0.169 A 
ATOM      5  C   UNL     1      -4.419   3.842 -24.032  0.00  0.00    +0.204 A 
ATOM      6  C   UNL     1      -3.131   3.996 -24.105  0.00  0.00    +0.173 A 
ENDROOT
BRANCH   1  14
ATOM      7  C   UNL     1       3.531   3.409 -23.486  0.00  0.00    +0.124 A 
ATOM      8  C   UNL     1       3.013   2.220 -23.563  0.00  0.00    +0.046 A 
ATOM      9  C   UNL     1       1.724   2.065 -23.491  0.00  0.00    +0.018 A 
ATOM     10  C   UNL     1       0.953   3.101 -23.341  0.00  0.00    +0.060 A 
ATOM     11  C   UNL     1       1.471   4.291 -23.264  0.00  0.00    +0.134 A 
ATOM     12  O   UNL     1       0.700   5.326 -23.114  0.00  0.00    -0.490 OA
ATOM     13  C   UNL     1      -0.589   5.173 -23.041  0.00  0.00    +0.245 C 
ATOM     14  C   UNL     1      -1.107   3.983 -23.118  0.00  0.00    +0.135 C 
ATOM     15  C   UNL     1      -0.335   2.947 -23.268  0.00  0.00    +0.177 C 
ATOM     16  O   UNL     1      -0.854   1.757 -23.346  0.00  0.00    -0.291 OA
ATOM     17  C   UNL     1       2.759   4.445 -23.336  0.00  0.00    +0.092 A 
BRANCH   7  19
ATOM     18  C   UNL     1       5.402   4.499 -22.870  0.00  0.00    +0.277 C 
ATOM     19  O   UNL     1       4.820   3.563 -23.559  0.00  0.00    -0.495 OA
ENDBRANCH   7  19
ENDBRANCH   1  14
BRANCH   5  20
ATOM     20  O   UNL     1      -5.155   4.010 -25.090  0.00  0.00    -0.488 OA
ATOM     21  C   UNL     1      -5.347   3.019 -25.911  0.00  0.00    +0.277 C 
ENDBRANCH   5  20
BRANCH   4  22
ATOM     22  O   UNL     1      -6.261   3.367 -22.828  0.00  0.00    -0.491 OA
ATOM     23  C   UNL     1      -6.781   2.688 -21.848  0.00  0.00    +0.277 C 
ENDBRANCH   4  22
BRANCH   2  24
ATOM     24  O   UNL     1      -2.213   3.340 -20.856  0.00  0.00    -0.495 OA
ATOM     25  C   UNL     1      -2.672   3.674 -19.686  0.00  0.00    +0.277 C 
ENDBRANCH   2  24
BRANCH   6  26
ATOM     26  O   UNL     1      -2.578   4.318 -25.236  0.00  0.00    -0.491 OA
ATOM     27  C   UNL     1      -2.201   3.389 -26.063  0.00  0.00    +0.277 C 
ENDBRANCH   6  26
TORSDOF 6
ENDMDL
