MODEL 1
REMARK VINA RESULT:    -9.201      0.000      0.000
REMARK INTER + INTRA:          -9.739
REMARK INTER:                  -9.739
REMARK INTRA:                   0.000
REMARK UNBOUND:                 0.000
REMARK  Name = ZINC000006524916
REMARK  2 active torsions:
REMARK  status: ('A' for Active; 'I' for Inactive)
REMARK    1  A    between atoms: C_5  and  O_6
REMARK    2  A    between atoms: C_15  and  O_16
REMARK                            x       y       z     vdW  Elec       q    Type
REMARK                         _______ _______ _______ _____ _____    ______ ____
ROOT
ATOM      1  O   UNL     1      -3.352   4.461 -25.087  0.00  0.00    -0.286 OA
ATOM      2  C   UNL     1      -2.843   3.758 -24.120  0.00  0.00    +0.204 A 
ATOM      3  C   UNL     1      -1.582   3.442 -24.138  0.00  0.00    +0.068 A 
ATOM      4  C   UNL     1      -0.830   3.831 -25.124  0.00  0.00    +0.060 A 
ATOM      5  C   UNL     1       0.432   3.515 -25.143  0.00  0.00    +0.118 A 
ATOM      6  C   UNL     1       0.940   2.812 -24.175  0.00  0.00    +0.049 A 
ATOM      7  C   UNL     1       0.187   2.423 -23.189  0.00  0.00    +0.050 A 
ATOM      8  C   UNL     1      -1.075   2.738 -23.170  0.00  0.00    +0.139 A 
ATOM      9  O   UNL     1      -1.827   2.350 -22.184  0.00  0.00    -0.454 OA
ATOM     10  C   UNL     1      -3.088   2.665 -22.166  0.00  0.00    +0.143 A 
ATOM     11  C   UNL     1      -3.841   2.277 -21.180  0.00  0.00    +0.047 A 
ATOM     12  C   UNL     1      -5.102   2.592 -21.162  0.00  0.00    +0.007 A 
ATOM     13  C   UNL     1      -5.610   3.296 -22.130  0.00  0.00    +0.046 A 
ATOM     14  C   UNL     1      -4.857   3.684 -23.116  0.00  0.00    +0.131 A 
ATOM     15  C   UNL     1      -3.597   3.369 -23.134  0.00  0.00    +0.106 A 
ENDROOT
BRANCH   5  16
ATOM     16  O   UNL     1       1.185   3.904 -26.129  0.00  0.00    -0.507 OA
ATOM     17  H   UNL     1       0.803   4.089 -26.964  0.00  0.00    +0.292 HD
ENDBRANCH   5  16
BRANCH  14  18
ATOM     18  O   UNL     1      -5.365   4.388 -24.083  0.00  0.00    -0.506 OA
ATOM     19  H   UNL     1      -5.216   4.137 -24.974  0.00  0.00    +0.292 HD
ENDBRANCH  14  18
TORSDOF 2
ENDMDL
