MODEL 1
REMARK VINA RESULT:    -9.891      0.000      0.000
REMARK INTER + INTRA:         -13.850
REMARK INTER:                 -12.115
REMARK INTRA:                  -1.736
REMARK UNBOUND:                -0.779
REMARK  Name = ZINC000001531449
REMARK  9 active torsions:
REMARK  status: ('A' for Active; 'I' for Inactive)
REMARK    1  A    between atoms: C_1  and  C_2
REMARK    2  A    between atoms: C_2  and  C_3
REMARK    3  A    between atoms: C_4  and  C_5
REMARK    4  A    between atoms: C_5  and  C_6
REMARK    5  A    between atoms: C_6  and  C_7
REMARK    6  A    between atoms: C_7  and  C_8
REMARK    7  A    between atoms: C_9  and  C_10
REMARK    8  A    between atoms: C_10  and  C_11
REMARK    9  A    between atoms: C_21  and  O_22
REMARK                            x       y       z     vdW  Elec       q    Type
REMARK                         _______ _______ _______ _____ _____    ______ ____
ROOT
ATOM      1  C   UNL     1      -0.445   3.356 -24.626  0.00  0.00    -0.001 A 
ATOM      2  C   UNL     1      -0.590   2.768 -23.476  0.00  0.00    +0.019 A 
ATOM      3  C   UNL     1       0.456   2.371 -22.812  0.00  0.00    +0.018 A 
ATOM      4  C   UNL     1       0.312   1.783 -21.663  0.00  0.00    +0.018 A 
ATOM      5  C   UNL     1       1.358   1.386 -20.999  0.00  0.00    +0.092 A 
ATOM      6  C   UNL     1       2.548   1.578 -21.487  0.00  0.00    +0.337 A 
ATOM      7  O   UNL     1       2.691   2.166 -22.637  0.00  0.00    -0.422 OA
ATOM      8  O   UNL     1       3.593   1.182 -20.824  0.00  0.00    -0.245 OA
ATOM      9  C   UNL     1       1.646   2.563 -23.300  0.00  0.00    +0.143 A 
ATOM     10  C   UNL     1       1.790   3.151 -24.450  0.00  0.00    +0.092 A 
ATOM     11  C   UNL     1       0.745   3.547 -25.114  0.00  0.00    +0.124 A 
ENDROOT
BRANCH  11  12
ATOM     12  O   UNL     1       0.888   4.135 -26.264  0.00  0.00    -0.506 OA
ATOM     13  H   UNL     1       0.153   4.232 -26.836  0.00  0.00    +0.292 HD
ENDBRANCH  11  12
BRANCH   1  14
ATOM     14  C   UNL     1      -1.491   3.752 -25.289  0.00  0.00    +0.066 C 
BRANCH  14  16
ATOM     15  C   UNL     1      -3.735   3.689 -25.116  0.00  0.00    -0.076 C 
ATOM     16  C   UNL     1      -2.581   4.069 -24.655  0.00  0.00    -0.023 C 
ATOM     17  C   UNL     1      -3.799   2.991 -26.212  0.00  0.00    +0.039 C 
BRANCH  15  18
ATOM     18  C   UNL     1      -4.825   4.005 -24.483  0.00  0.00    +0.034 C 
BRANCH  18  19
ATOM     19  C   UNL     1      -4.802   4.179 -23.196  0.00  0.00    +0.031 C 
BRANCH  19  22
ATOM     20  C   UNL     1      -4.278   2.024 -20.567  0.00  0.00    +0.038 C 
ATOM     21  C   UNL     1      -4.153   3.043 -21.363  0.00  0.00    -0.080 C 
ATOM     22  C   UNL     1      -4.928   3.158 -22.400  0.00  0.00    -0.028 C 
ATOM     23  C   UNL     1      -3.252   3.949 -21.121  0.00  0.00    +0.038 C 
ENDBRANCH  19  22
ENDBRANCH  18  19
ENDBRANCH  15  18
ENDBRANCH  14  16
ENDBRANCH   1  14
TORSDOF 6
ENDMDL
