MODEL 1
REMARK VINA RESULT:    -8.926      0.000      0.000
REMARK INTER + INTRA:         -12.120
REMARK INTER:                 -11.614
REMARK INTRA:                  -0.507
REMARK UNBOUND:                -0.586
REMARK  Name = CN1[C@H]2CC[C@@H]1C[C@@H](OC(=O)[C@H](CO)c1ccccc1)C2                 ZINC000100068360
REMARK  7 active torsions:
REMARK  status: ('A' for Active; 'I' for Inactive)
REMARK    1  A    between atoms: C_1  and  N_2
REMARK    2  A    between atoms: C_8  and  O_9
REMARK    3  A    between atoms: O_9  and  C_10
REMARK    4  A    between atoms: C_10  and  C_12
REMARK    5  A    between atoms: C_12  and  C_13
REMARK    6  A    between atoms: C_12  and  C_15
REMARK    7  A    between atoms: C_13  and  O_14
REMARK                            x       y       z     vdW  Elec       q    Type
REMARK                         _______ _______ _______ _____ _____    ______ ____
ROOT
ATOM      1  C   UNL     1       0.061   2.873 -23.183  0.00  0.00    +0.317 C 
ATOM      2  O   UNL     1       0.062   1.531 -23.257  0.00  0.00    -0.250 OA
ENDROOT
BRANCH   1   3
ATOM      3  O   UNL     1      -0.715   3.501 -22.244  0.00  0.00    -0.460 OA
BRANCH   3  11
ATOM      4  C   UNL     1      -4.802   3.309 -22.428  0.00  0.00    +0.191 C 
ATOM      5  N   UNL     1      -4.289   3.332 -22.404  0.00  0.00    +0.238 N 
ATOM      6  H   UNL     1      -3.271   3.379 -22.356  0.00  0.00    +0.204 HD
ATOM      7  C   UNL     1      -4.182   2.939 -21.584  0.00  0.00    +0.068 C 
ATOM      8  C   UNL     1      -5.566   2.897 -21.694  0.00  0.00    +0.060 C 
ATOM      9  C   UNL     1      -5.531   3.650 -23.230  0.00  0.00    +0.060 C 
ATOM     10  C   UNL     1      -2.890   2.881 -21.285  0.00  0.00    +0.099 C 
ATOM     11  C   UNL     1      -2.093   3.435 -22.303  0.00  0.00    +0.187 C 
ATOM     12  C   UNL     1      -2.841   3.916 -23.393  0.00  0.00    +0.099 C 
ATOM     13  C   UNL     1      -4.145   3.737 -23.212  0.00  0.00    +0.068 C 
ENDBRANCH   3  11
ENDBRANCH   1   3
BRANCH   1  14
ATOM     14  C   UNL     1       0.842   3.600 -24.056  0.00  0.00    +0.153 C 
BRANCH  14  15
ATOM     15  C   UNL     1       2.077   4.011 -23.697  0.00  0.00    -0.032 A 
ATOM     16  C   UNL     1       3.130   3.181 -23.791  0.00  0.00    +0.004 A 
ATOM     17  C   UNL     1       4.357   3.598 -23.431  0.00  0.00    +0.000 A 
ATOM     18  C   UNL     1       4.532   4.856 -22.975  0.00  0.00    +0.000 A 
ATOM     19  C   UNL     1       3.479   5.686 -22.882  0.00  0.00    +0.000 A 
ATOM     20  C   UNL     1       2.253   5.269 -23.241  0.00  0.00    +0.004 A 
ENDBRANCH  14  15
BRANCH  14  21
ATOM     21  C   UNL     1       0.373   3.906 -25.280  0.00  0.00    +0.175 C 
BRANCH  21  22
ATOM     22  O   UNL     1      -0.533   3.105 -25.873  0.00  0.00    -0.394 OA
ATOM     23  H   UNL     1      -0.252   2.916 -26.782  0.00  0.00    +0.209 HD
ENDBRANCH  21  22
ENDBRANCH  14  21
ENDBRANCH   1  14
TORSDOF 6
ENDMDL
