MODEL 1
REMARK VINA RESULT:   -10.644      0.000      0.000
REMARK INTER + INTRA:         -14.659
REMARK INTER:                 -13.986
REMARK INTRA:                  -0.672
REMARK UNBOUND:                -1.526
REMARK  Name = COc1ccc2c(c1Oc1nnnn1-c1ccccc1)[C@@]13C=CC=C[C@@H]1[C@@H](C2)N(C)CC3  ZINC000253504729
REMARK  6 active torsions:
REMARK  status: ('A' for Active; 'I' for Inactive)
REMARK    1  A    between atoms: C_1  and  O_2
REMARK    2  A    between atoms: O_2  and  C_3
REMARK    3  A    between atoms: C_8  and  O_9
REMARK    4  A    between atoms: O_9  and  C_10
REMARK    5  A    between atoms: N_14  and  C_15
REMARK    6  A    between atoms: N_29  and  C_30
REMARK                            x       y       z     vdW  Elec       q    Type
REMARK                         _______ _______ _______ _____ _____    ______ ____
ROOT
ATOM      1  C   UNL     1      -1.512   3.342 -25.405  0.00  0.00    +0.163 A 
ATOM      2  C   UNL     1      -2.498   3.483 -26.181  0.00  0.00    +0.050 A 
ATOM      3  C   UNL     1      -3.653   3.600 -25.683  0.00  0.00    +0.008 A 
ATOM      4  C   UNL     1      -3.808   3.568 -24.229  0.00  0.00    -0.034 A 
ATOM      5  C   UNL     1      -2.932   3.446 -23.642  0.00  0.00    +0.013 A 
ATOM      6  C   UNL     1      -2.805   3.399 -22.706  0.00  0.00    +0.034 C 
ATOM      7  C   UNL     1      -1.766   3.254 -22.007  0.00  0.00    -0.014 C 
ATOM      8  C   UNL     1      -1.856   3.220 -20.715  0.00  0.00    -0.004 C 
ATOM      9  C   UNL     1      -3.021   3.335 -20.118  0.00  0.00    -0.004 C 
ATOM     10  C   UNL     1      -4.115   3.486 -20.799  0.00  0.00    -0.017 C 
ATOM     11  C   UNL     1      -2.824   3.459 -24.381  0.00  0.00    +0.067 C 
ATOM     12  C   UNL     1      -4.105   3.632 -25.081  0.00  0.00    +0.132 C 
ATOM     13  N   UNL     1      -5.091   3.725 -24.459  0.00  0.00    +0.236 N 
ATOM     14  H   UNL     1      -5.732   3.773 -23.666  0.00  0.00    +0.203 HD
ATOM     15  C   UNL     1      -5.803   3.846 -25.561  0.00  0.00    +0.190 C 
ATOM     16  C   UNL     1      -5.100   3.672 -22.875  0.00  0.00    +0.076 C 
ATOM     17  C   UNL     1      -4.067   3.523 -22.056  0.00  0.00    +0.075 C 
ATOM     18  C   UNL     1      -4.964   3.685 -23.729  0.00  0.00    +0.090 C 
ATOM     19  C   UNL     1      -1.716   3.321 -24.134  0.00  0.00    +0.178 A 
ENDROOT
BRANCH   1  21
ATOM     20  C   UNL     1       0.638   4.125 -25.902  0.00  0.00    +0.277 C 
ATOM     21  O   UNL     1      -0.202   3.200 -25.732  0.00  0.00    -0.491 OA
ENDBRANCH   1  21
BRANCH  19  22
ATOM     22  O   UNL     1      -0.713   3.163 -22.939  0.00  0.00    -0.418 OA
BRANCH  22  23
ATOM     23  C   UNL     1       0.254   2.217 -22.600  0.00  0.00    +0.347 A 
ATOM     24  N   UNL     1      -0.038   1.002 -22.311  0.00  0.00    -0.070 NA
ATOM     25  N   UNL     1       1.047   0.384 -22.047  0.00  0.00    -0.019 NA
ATOM     26  N   UNL     1       2.019   1.211 -22.171  0.00  0.00    -0.036 NA
ATOM     27  N   UNL     1       1.528   2.345 -22.513  0.00  0.00    -0.162 N 
BRANCH  27  28
ATOM     28  C   UNL     1       2.238   3.403 -22.721  0.00  0.00    +0.072 A 
ATOM     29  C   UNL     1       1.690   4.562 -22.792  0.00  0.00    +0.028 A 
ATOM     30  C   UNL     1       2.412   5.600 -22.999  0.00  0.00    +0.002 A 
ATOM     31  C   UNL     1       3.682   5.482 -23.136  0.00  0.00    +0.000 A 
ATOM     32  C   UNL     1       4.229   4.325 -23.065  0.00  0.00    +0.002 A 
ATOM     33  C   UNL     1       3.507   3.287 -22.858  0.00  0.00    +0.028 A 
ENDBRANCH  27  28
ENDBRANCH  22  23
ENDBRANCH  19  22
TORSDOF 4
ENDMDL
