MODEL 1
REMARK VINA RESULT:   -10.916      0.000      0.000
REMARK INTER + INTRA:         -11.670
REMARK INTER:                 -11.522
REMARK INTRA:                  -0.148
REMARK UNBOUND:                -0.116
REMARK  Name = ZINC000004972552
REMARK  3 active torsions:
REMARK  status: ('A' for Active; 'I' for Inactive)
REMARK    1  A    between atoms: C_1  and  O_2
REMARK    2  A    between atoms: O_2  and  C_3
REMARK    3  A    between atoms: N_18  and  C_19
REMARK                            x       y       z     vdW  Elec       q    Type
REMARK                         _______ _______ _______ _____ _____    ______ ____
ROOT
ATOM      1  C   UNL     1       0.910   2.257 -23.266  0.00  0.00    +0.162 A 
ATOM      2  C   UNL     1       0.873   1.886 -22.059  0.00  0.00    +0.050 A 
ATOM      3  C   UNL     1      -0.201   1.903 -21.422  0.00  0.00    +0.008 A 
ATOM      4  C   UNL     1      -1.250   2.290 -21.985  0.00  0.00    -0.034 A 
ATOM      5  C   UNL     1      -1.237   2.663 -23.186  0.00  0.00    +0.012 A 
ATOM      6  C   UNL     1      -2.285   3.048 -23.742  0.00  0.00    +0.054 C 
ATOM      7  C   UNL     1      -3.414   3.506 -24.482  0.00  0.00    +0.067 C 
ATOM      8  C   UNL     1      -4.641   3.537 -23.791  0.00  0.00    +0.132 C 
ATOM      9  N   UNL     1      -4.644   3.117 -22.446  0.00  0.00    +0.236 N 
ATOM     10  H   UNL     1      -5.505   3.119 -21.899  0.00  0.00    +0.203 HD
ATOM     11  C   UNL     1      -5.689   3.113 -21.763  0.00  0.00    +0.190 C 
ATOM     12  C   UNL     1      -3.397   2.696 -21.902  0.00  0.00    +0.076 C 
ATOM     13  C   UNL     1      -3.363   3.067 -23.109  0.00  0.00    +0.075 C 
ATOM     14  C   UNL     1      -4.424   3.457 -23.674  0.00  0.00    -0.020 C 
ATOM     15  C   UNL     1      -4.395   3.824 -24.868  0.00  0.00    -0.008 C 
ATOM     16  C   UNL     1      -3.313   3.810 -25.518  0.00  0.00    +0.144 C 
ATOM     17 CL   UNL     1      -3.289   4.178 -26.710  0.00  0.00    -0.113 Cl
ATOM     18  C   UNL     1      -2.265   3.423 -24.955  0.00  0.00    +0.207 C 
ATOM     19  O   UNL     1      -0.783   3.167 -25.088  0.00  0.00    -0.482 OA
ATOM     20  C   UNL     1      -2.349   2.310 -21.342  0.00  0.00    +0.090 C 
ATOM     21  C   UNL     1      -0.154   2.647 -23.831  0.00  0.00    +0.167 A 
ENDROOT
BRANCH   1  23
ATOM     22  C   UNL     1       2.711   3.257 -23.931  0.00  0.00    +0.277 C 
ATOM     23  O   UNL     1       1.987   2.238 -23.899  0.00  0.00    -0.491 OA
ENDBRANCH   1  23
TORSDOF 1
ENDMDL
