MODEL 1
REMARK VINA RESULT:    -9.864      0.000      0.000
REMARK INTER + INTRA:          -9.408
REMARK INTER:                 -11.538
REMARK INTRA:                   2.130
REMARK UNBOUND:                 1.898
REMARK  Name = ZINC000003641074
REMARK  7 active torsions:
REMARK  status: ('A' for Active; 'I' for Inactive)
REMARK    1  A    between atoms: C_2  and  C_3
REMARK    2  A    between atoms: C_3  and  C_4
REMARK    3  A    between atoms: C_3  and  C_5
REMARK    4  A    between atoms: C_3  and  C_6
REMARK    5  A    between atoms: C_9  and  O_10
REMARK    6  A    between atoms: C_21  and  C_22
REMARK    7  A    between atoms: C_21  and  C_23
REMARK                            x       y       z     vdW  Elec       q    Type
REMARK                         _______ _______ _______ _____ _____    ______ ____
ROOT
ATOM      1  C   UNL     1      -2.170   2.873 -22.132  0.00  0.00    +0.047 A 
ATOM      2  C   UNL     1      -2.703   3.227 -23.263  0.00  0.00    +0.143 A 
ATOM      3  C   UNL     1      -1.999   3.181 -24.356  0.00  0.00    +0.102 A 
ATOM      4  C   UNL     1      -2.532   3.535 -25.487  0.00  0.00    +0.174 C 
ATOM      5  C   UNL     1      -3.769   3.936 -25.527  0.00  0.00    +0.127 C 
ATOM      6  C   UNL     1      -4.472   3.982 -24.435  0.00  0.00    +0.112 C 
ATOM      7  C   UNL     1      -5.482   4.174 -23.640  0.00  0.00    +0.056 C 
ATOM      8  C   UNL     1      -5.355   4.402 -25.290  0.00  0.00    +0.056 C 
ATOM      9  O   UNL     1      -1.829   3.489 -26.579  0.00  0.00    -0.292 OA
ATOM     10  C   UNL     1      -0.763   2.781 -24.316  0.00  0.00    +0.141 A 
ATOM     11  C   UNL     1      -0.230   2.427 -23.184  0.00  0.00    +0.060 A 
ATOM     12  C   UNL     1       1.006   2.026 -23.144  0.00  0.00    +0.022 A 
ATOM     13  C   UNL     1       1.539   1.672 -22.013  0.00  0.00    +0.093 A 
ATOM     14  C   UNL     1       0.835   1.719 -20.921  0.00  0.00    +0.337 A 
ATOM     15  O   UNL     1      -0.401   2.119 -20.960  0.00  0.00    -0.422 OA
ATOM     16  O   UNL     1       1.367   1.365 -19.789  0.00  0.00    -0.245 OA
ATOM     17  O   UNL     1      -3.939   3.628 -23.303  0.00  0.00    -0.485 OA
ATOM     18  C   UNL     1      -0.934   2.473 -22.091  0.00  0.00    +0.150 A 
ENDROOT
BRANCH   1  19
ATOM     19  C   UNL     1      -2.873   2.919 -21.039  0.00  0.00    +0.015 C 
ATOM     20  C   UNL     1      -3.285   3.571 -19.992  0.00  0.00    +0.020 C 
ATOM     21  C   UNL     1      -2.479   4.141 -20.836  0.00  0.00    +0.020 C 
BRANCH  19  23
ATOM     22  C   UNL     1      -4.836   1.821 -20.942  0.00  0.00    +0.005 C 
ATOM     23  C   UNL     1      -3.567   1.885 -20.668  0.00  0.00    -0.023 C 
ENDBRANCH  19  23
ENDBRANCH   1  19
BRANCH  10  24
ATOM     24  O   UNL     1      -0.060   2.735 -25.408  0.00  0.00    -0.505 OA
ATOM     25  H   UNL     1       0.383   3.502 -25.714  0.00  0.00    +0.292 HD
ENDBRANCH  10  24
TORSDOF 3
ENDMDL
