MODEL 1
REMARK VINA RESULT:   -12.767      0.000      0.000
REMARK INTER + INTRA:         -13.140
REMARK INTER:                 -13.140
REMARK INTRA:                   0.000
REMARK UNBOUND:                 0.000
REMARK  Name = ZINC000004104648
REMARK  4 active torsions:
REMARK  status: ('A' for Active; 'I' for Inactive)
REMARK    1  A    between atoms: C_1  and  C_2
REMARK    2  A    between atoms: C_2  and  O_3
REMARK    3  A    between atoms: C_17  and  C_18
REMARK    4  A    between atoms: C_22  and  C_23
REMARK                            x       y       z     vdW  Elec       q    Type
REMARK                         _______ _______ _______ _____ _____    ______ ____
ROOT
ATOM      1  C   UNL     1      -5.192   4.085 -24.089  0.00  0.00    +0.042 C 
ATOM      2  C   UNL     1      -4.959   3.554 -22.929  0.00  0.00    +0.069 C 
ATOM      3  C   UNL     1      -5.048   3.078 -21.721  0.00  0.00    +0.035 C 
ATOM      4  C   UNL     1      -3.868   2.659 -21.361  0.00  0.00    +0.007 C 
ATOM      5  C   UNL     1      -3.048   2.876 -22.349  0.00  0.00    +0.002 C 
ATOM      6  C   UNL     1      -1.779   2.643 -22.492  0.00  0.00    +0.004 C 
ATOM      7  C   UNL     1      -1.104   2.089 -21.524  0.00  0.00    +0.083 C 
ATOM      8  C   UNL     1       0.167   1.857 -21.671  0.00  0.00    +0.160 C 
ATOM      9  C   UNL     1       0.767   2.176 -22.782  0.00  0.00    +0.004 C 
ATOM     10  C   UNL     1       2.037   1.943 -22.927  0.00  0.00    +0.053 C 
ATOM     11  C   UNL     1       2.638   2.262 -24.039  0.00  0.00    +0.157 C 
ATOM     12  C   UNL     1       1.960   2.815 -25.004  0.00  0.00    +0.080 C 
ATOM     13  C   UNL     1       0.689   3.048 -24.859  0.00  0.00    +0.019 C 
ATOM     14  O   UNL     1       3.909   2.029 -24.184  0.00  0.00    -0.293 OA
ATOM     15  C   UNL     1       0.090   2.729 -23.747  0.00  0.00    -0.000 C 
ATOM     16  C   UNL     1      -0.584   3.281 -24.713  0.00  0.00    +0.016 C 
ATOM     17  O   UNL     1       0.844   1.304 -20.704  0.00  0.00    -0.292 OA
ATOM     18  C   UNL     1      -1.182   2.962 -23.601  0.00  0.00    +0.003 C 
ATOM     19  C   UNL     1      -1.856   3.514 -24.567  0.00  0.00    +0.005 C 
ATOM     20  C   UNL     1      -3.123   3.748 -24.428  0.00  0.00    +0.010 C 
ATOM     21  C   UNL     1      -3.717   3.429 -23.319  0.00  0.00    -0.000 C 
ATOM     22  C   UNL     1      -4.433   3.965 -24.221  0.00  0.00    +0.014 C 
ENDROOT
BRANCH   2  23
ATOM     23  O   UNL     1      -6.229   3.776 -22.757  0.00  0.00    -0.388 OA
ATOM     24  H   UNL     1      -6.630   3.021 -22.297  0.00  0.00    +0.210 HD
ENDBRANCH   2  23
TORSDOF 1
ENDMDL
