MODEL 1
REMARK VINA RESULT:    -9.761      0.000      0.000
REMARK INTER + INTRA:         -13.912
REMARK INTER:                 -13.212
REMARK INTRA:                  -0.700
REMARK UNBOUND:                -1.297
REMARK  Name = ZINC000005808605
REMARK  8 active torsions:
REMARK  status: ('A' for Active; 'I' for Inactive)
REMARK    1  A    between atoms: C_1  and  O_2
REMARK    2  A    between atoms: O_2  and  C_3
REMARK    3  A    between atoms: C_5  and  C_6
REMARK    4  A    between atoms: C_15  and  C_16
REMARK    5  A    between atoms: C_19  and  O_20
REMARK    6  A    between atoms: C_21  and  O_22
REMARK    7  A    between atoms: O_22  and  C_23
REMARK    8  A    between atoms: C_27  and  O_28
REMARK                            x       y       z     vdW  Elec       q    Type
REMARK                         _______ _______ _______ _____ _____    ______ ____
ROOT
ATOM      1  C   UNL     1       1.905   3.378 -22.816  0.00  0.00    +0.221 C 
ATOM      2  O   UNL     1       1.420   4.563 -23.036  0.00  0.00    -0.455 OA
ATOM      3  C   UNL     1       0.124   4.484 -22.981  0.00  0.00    +0.316 C 
ATOM      4  C   UNL     1      -0.193   3.249 -22.727  0.00  0.00    +0.160 C 
ATOM      5  C   UNL     1      -1.190   2.437 -22.536  0.00  0.00    +0.221 C 
ATOM      6  O   UNL     1      -0.705   1.251 -22.316  0.00  0.00    -0.455 OA
ATOM      7  C   UNL     1       0.591   1.330 -22.371  0.00  0.00    +0.316 C 
ATOM      8  O   UNL     1       1.425   0.347 -22.201  0.00  0.00    -0.250 OA
ATOM      9  O   UNL     1      -0.710   5.467 -23.151  0.00  0.00    -0.250 OA
ATOM     10  C   UNL     1       0.908   2.565 -22.625  0.00  0.00    +0.160 C 
ENDROOT
BRANCH   5  11
ATOM     11  C   UNL     1      -2.450   2.755 -22.561  0.00  0.00    -0.003 A 
ATOM     12  C   UNL     1      -3.142   2.755 -21.460  0.00  0.00    +0.011 A 
ATOM     13  C   UNL     1      -4.402   3.073 -21.485  0.00  0.00    +0.049 A 
ATOM     14  C   UNL     1      -4.970   3.391 -22.611  0.00  0.00    +0.158 A 
ATOM     15  C   UNL     1      -4.278   3.391 -23.712  0.00  0.00    +0.162 A 
ATOM     16  C   UNL     1      -3.018   3.073 -23.686  0.00  0.00    +0.056 A 
BRANCH  15  17
ATOM     17  O   UNL     1      -4.846   3.709 -24.837  0.00  0.00    -0.491 OA
ATOM     18  C   UNL     1      -4.344   3.285 -25.960  0.00  0.00    +0.277 C 
ENDBRANCH  15  17
BRANCH  14  19
ATOM     19  O   UNL     1      -6.231   3.710 -22.636  0.00  0.00    -0.503 OA
ATOM     20  H   UNL     1      -6.488   4.609 -22.582  0.00  0.00    +0.292 HD
ENDBRANCH  14  19
ENDBRANCH   5  11
BRANCH   1  23
ATOM     21  C   UNL     1       4.904   2.059 -21.768  0.00  0.00    +0.162 A 
ATOM     22  C   UNL     1       3.644   2.378 -21.793  0.00  0.00    +0.056 A 
ATOM     23  C   UNL     1       3.165   3.059 -22.791  0.00  0.00    -0.003 A 
ATOM     24  C   UNL     1       3.946   3.423 -23.765  0.00  0.00    +0.011 A 
ATOM     25  C   UNL     1       5.207   3.105 -23.740  0.00  0.00    +0.049 A 
ATOM     26  C   UNL     1       5.685   2.423 -22.741  0.00  0.00    +0.158 A 
BRANCH  21  28
ATOM     27  C   UNL     1       4.982   0.157 -20.566  0.00  0.00    +0.277 C 
ATOM     28  O   UNL     1       5.382   1.377 -20.770  0.00  0.00    -0.491 OA
ENDBRANCH  21  28
BRANCH  26  29
ATOM     29  O   UNL     1       6.946   2.104 -22.716  0.00  0.00    -0.503 OA
ATOM     30  H   UNL     1       7.254   1.369 -23.209  0.00  0.00    +0.292 HD
ENDBRANCH  26  29
ENDBRANCH   1  23
TORSDOF 6
ENDMDL
