MODEL 1
REMARK VINA RESULT:    -9.009      0.000      0.000
REMARK INTER + INTRA:         -10.329
REMARK INTER:                 -10.123
REMARK INTRA:                  -0.206
REMARK UNBOUND:                -0.266
REMARK  Name = CC[N@+]1(C)CCc2cc3c(c4c2[C@@H]1Cc1ccc(OC)cc1-4)OCO3                  ZINC000249692476
REMARK  5 active torsions:
REMARK  status: ('A' for Active; 'I' for Inactive)
REMARK    1  A    between atoms: C_1  and  C_2
REMARK    2  A    between atoms: C_2  and  N_3
REMARK    3  A    between atoms: N_3  and  C_4
REMARK    4  A    between atoms: C_18  and  O_19
REMARK    5  A    between atoms: O_19  and  C_20
REMARK                            x       y       z     vdW  Elec       q    Type
REMARK                         _______ _______ _______ _____ _____    ______ ____
ROOT
ATOM      1  N   UNL     1       0.947   2.065 -22.270  0.00  0.00    +0.247 N 
ATOM      2  C   UNL     1       1.738   2.171 -23.295  0.00  0.00    +0.138 C 
ATOM      3  C   UNL     1       1.262   2.546 -24.446  0.00  0.00    +0.086 C 
ATOM      4  C   UNL     1      -0.004   2.815 -24.571  0.00  0.00    -0.030 A 
ATOM      5  C   UNL     1      -0.478   3.189 -25.722  0.00  0.00    +0.054 A 
ATOM      6  C   UNL     1      -1.744   3.458 -25.846  0.00  0.00    +0.167 A 
ATOM      7  C   UNL     1      -2.535   3.351 -24.820  0.00  0.00    +0.174 A 
ATOM      8  O   UNL     1      -3.735   3.671 -25.203  0.00  0.00    -0.452 OA
ATOM      9  C   UNL     1      -3.686   3.976 -26.466  0.00  0.00    +0.466 C 
ATOM     10  C   UNL     1      -2.060   2.976 -23.669  0.00  0.00    +0.037 A 
ATOM     11  C   UNL     1      -2.851   2.869 -22.643  0.00  0.00    -0.007 A 
ATOM     12  C   UNL     1      -4.117   3.138 -22.768  0.00  0.00    +0.054 A 
ATOM     13  C   UNL     1      -4.908   3.031 -21.741  0.00  0.00    +0.121 A 
ATOM     14  C   UNL     1      -4.434   2.656 -20.591  0.00  0.00    +0.046 A 
ATOM     15  C   UNL     1      -3.168   2.388 -20.467  0.00  0.00    +0.008 A 
ATOM     16  C   UNL     1      -2.376   2.494 -21.493  0.00  0.00    -0.034 A 
ATOM     17  C   UNL     1      -1.110   2.226 -21.368  0.00  0.00    +0.095 C 
ATOM     18  O   UNL     1      -2.455   3.844 -26.864  0.00  0.00    -0.453 OA
ATOM     19  C   UNL     1      -0.794   2.708 -23.545  0.00  0.00    +0.015 A 
ATOM     20  C   UNL     1       0.547   1.837 -21.053  0.00  0.00    +0.193 C 
ATOM     21  C   UNL     1      -0.320   2.333 -22.394  0.00  0.00    +0.102 C 
ENDROOT
BRANCH   1  23
ATOM     22  C   UNL     1       2.638   0.594 -22.053  0.00  0.00    +0.060 C 
ATOM     23  C   UNL     1       2.073   1.718 -21.723  0.00  0.00    +0.130 C 
ENDBRANCH   1  23
BRANCH  13  24
ATOM     24  O   UNL     1      -6.174   3.299 -21.866  0.00  0.00    -0.495 OA
ATOM     25  C   UNL     1      -7.057   2.361 -21.697  0.00  0.00    +0.277 C 
ENDBRANCH  13  24
TORSDOF 2
ENDMDL
