MODEL 1
REMARK VINA RESULT:   -10.115      0.000      0.000
REMARK INTER + INTRA:         -10.115
REMARK INTER:                 -10.115
REMARK INTRA:                   0.000
REMARK UNBOUND:                 0.000
REMARK  Name = ZINC000004492886
REMARK  2 active torsions:
REMARK  status: ('A' for Active; 'I' for Inactive)
REMARK    1  A    between atoms: C_10  and  C_11
REMARK    2  A    between atoms: C_15  and  C_16
REMARK                            x       y       z     vdW  Elec       q    Type
REMARK                         _______ _______ _______ _____ _____    ______ ____
ROOT
ATOM      1  C   UNL     1       0.724   2.477 -23.015  0.00  0.00    +0.020 C 
ATOM      2  C   UNL     1      -0.028   2.964 -23.972  0.00  0.00    +0.036 C 
ATOM      3  C   UNL     1       0.374   3.316 -25.167  0.00  0.00    +0.335 C 
ATOM      4  O   UNL     1      -0.667   3.754 -25.834  0.00  0.00    -0.455 OA
ATOM      5  C   UNL     1      -1.714   3.672 -25.050  0.00  0.00    +0.216 C 
ATOM      6  C   UNL     1      -3.060   4.011 -25.282  0.00  0.00    +0.192 C 
ATOM      7  O   UNL     1      -4.293   4.348 -25.567  0.00  0.00    -0.361 OA
ATOM      8  C   UNL     1      -4.003   3.866 -24.381  0.00  0.00    +0.097 C 
ATOM      9  C   UNL     1      -3.329   3.375 -23.370  0.00  0.00    +0.044 C 
ATOM     10  C   UNL     1      -5.276   3.918 -23.849  0.00  0.00    +0.041 C 
ATOM     11  C   UNL     1      -5.303   3.515 -22.713  0.00  0.00    +0.030 C 
ATOM     12  C   UNL     1      -4.166   3.223 -22.503  0.00  0.00    -0.028 C 
ATOM     13  C   UNL     1      -3.606   2.767 -21.531  0.00  0.00    -0.077 C 
ATOM     14  C   UNL     1      -4.197   2.478 -20.412  0.00  0.00    +0.039 C 
ATOM     15  C   UNL     1      -2.369   2.630 -21.804  0.00  0.00    +0.031 C 
ATOM     16  C   UNL     1      -2.284   3.060 -23.046  0.00  0.00    +0.016 C 
ATOM     17  O   UNL     1       1.605   3.244 -25.617  0.00  0.00    -0.245 OA
ATOM     18  C   UNL     1      -1.320   3.184 -23.902  0.00  0.00    +0.069 C 
ENDROOT
TORSDOF 0
ENDMDL
