MODEL 1
REMARK VINA RESULT:    -9.565      0.000      0.000
REMARK INTER + INTRA:          -9.565
REMARK INTER:                  -9.565
REMARK INTRA:                   0.000
REMARK UNBOUND:                 0.000
REMARK  Name = ZINC000004104710
REMARK  4 active torsions:
REMARK  status: ('A' for Active; 'I' for Inactive)
REMARK    1  A    between atoms: C_1  and  C_2
REMARK    2  A    between atoms: C_6  and  C_7
REMARK    3  A    between atoms: C_6  and  C_8
REMARK    4  A    between atoms: C_12  and  C_13
REMARK                            x       y       z     vdW  Elec       q    Type
REMARK                         _______ _______ _______ _____ _____    ______ ____
ROOT
ATOM      1  C   UNL     1       0.972   1.494 -21.606  0.00  0.00    +0.016 C 
ATOM      2  C   UNL     1      -0.129   1.911 -22.099  0.00  0.00    +0.056 C 
ATOM      3  C   UNL     1      -1.160   1.991 -21.434  0.00  0.00    +0.037 C 
ATOM      4  C   UNL     1      -2.187   2.427 -22.066  0.00  0.00    -0.030 C 
ATOM      5  C   UNL     1      -3.228   2.532 -21.482  0.00  0.00    -0.024 C 
ATOM      6  C   UNL     1      -4.300   2.954 -22.016  0.00  0.00    -0.010 C 
ATOM      7  C   UNL     1      -4.550   3.390 -23.366  0.00  0.00    +0.085 C 
ATOM      8  C   UNL     1      -3.903   3.595 -24.708  0.00  0.00    +0.137 C 
ATOM      9  C   UNL     1      -2.603   3.420 -25.278  0.00  0.00    +0.053 C 
ATOM     10  C   UNL     1      -1.521   3.001 -24.762  0.00  0.00    +0.018 C 
ATOM     11  C   UNL     1      -1.387   2.658 -23.641  0.00  0.00    +0.075 C 
ATOM     12  C   UNL     1      -2.502   3.744 -26.546  0.00  0.00    +0.015 C 
ATOM     13  O   UNL     1      -4.729   4.046 -25.577  0.00  0.00    -0.297 OA
ATOM     14  C   UNL     1      -4.860   2.770 -20.833  0.00  0.00    +0.015 C 
ATOM     15  C   UNL     1      -5.554   3.203 -21.761  0.00  0.00    +0.015 C 
ATOM     16  C   UNL     1      -0.232   2.259 -23.266  0.00  0.00    +0.136 C 
ATOM     17  O   UNL     1       0.778   2.226 -24.082  0.00  0.00    -0.297 OA
ENDROOT
TORSDOF 0
ENDMDL
