MODEL 1
REMARK VINA RESULT:   -11.340      0.000      0.000
REMARK INTER + INTRA:         -12.067
REMARK INTER:                 -11.954
REMARK INTRA:                  -0.112
REMARK UNBOUND:                 0.268
REMARK  Name = COc1ccc2c3c1O[C@]1(C)[C@H](O)[C@H](Cl)C=C4[C@@H](C2)N(C)CC[C@]431    ZINC000253505523
REMARK  5 active torsions:
REMARK  status: ('A' for Active; 'I' for Inactive)
REMARK    1  A    between atoms: C_1  and  O_2
REMARK    2  A    between atoms: O_2  and  C_3
REMARK    3  A    between atoms: C_10  and  C_11
REMARK    4  A    between atoms: C_12  and  O_13
REMARK    5  A    between atoms: N_20  and  C_21
REMARK                            x       y       z     vdW  Elec       q    Type
REMARK                         _______ _______ _______ _____ _____    ______ ____
ROOT
ATOM      1  C   UNL     1       1.627   2.269 -23.781  0.00  0.00    +0.162 A 
ATOM      2  C   UNL     1       1.919   1.797 -22.642  0.00  0.00    +0.050 A 
ATOM      3  C   UNL     1       1.038   1.675 -21.760  0.00  0.00    +0.008 A 
ATOM      4  C   UNL     1      -0.145   2.023 -22.003  0.00  0.00    -0.034 A 
ATOM      5  C   UNL     1      -0.455   2.495 -23.132  0.00  0.00    +0.016 A 
ATOM      6  C   UNL     1      -1.635   2.840 -23.372  0.00  0.00    +0.072 C 
ATOM      7  C   UNL     1      -2.940   3.267 -23.760  0.00  0.00    +0.071 C 
ATOM      8  C   UNL     1      -3.955   3.141 -22.784  0.00  0.00    +0.133 C 
ATOM      9  N   UNL     1      -3.591   2.611 -21.527  0.00  0.00    +0.239 N 
ATOM     10  H   UNL     1      -4.282   2.497 -20.785  0.00  0.00    +0.204 HD
ATOM     11  C   UNL     1      -4.429   2.466 -20.608  0.00  0.00    +0.191 C 
ATOM     12  C   UNL     1      -2.222   2.247 -21.353  0.00  0.00    +0.096 C 
ATOM     13  C   UNL     1      -2.517   2.719 -22.491  0.00  0.00    -0.010 C 
ATOM     14  C   UNL     1      -3.710   3.070 -22.736  0.00  0.00    +0.000 C 
ATOM     15  C   UNL     1      -4.009   3.537 -23.859  0.00  0.00    +0.136 C 
ATOM     16 CL   UNL     1      -5.188   3.882 -24.098  0.00  0.00    -0.115 Cl
ATOM     17  C   UNL     1      -3.122   3.663 -24.755  0.00  0.00    +0.180 C 
ATOM     18  C   UNL     1      -1.942   3.317 -24.514  0.00  0.00    +0.149 C 
ATOM     19  C   UNL     1      -1.955   3.742 -25.694  0.00  0.00    +0.060 C 
ATOM     20  O   UNL     1      -0.527   3.191 -25.033  0.00  0.00    -0.478 OA
ATOM     21  C   UNL     1      -1.044   1.900 -21.109  0.00  0.00    +0.094 C 
ATOM     22  C   UNL     1       0.432   2.619 -24.025  0.00  0.00    +0.167 A 
ENDROOT
BRANCH   1  24
ATOM     23  C   UNL     1       3.708   2.140 -24.386  0.00  0.00    +0.277 C 
ATOM     24  O   UNL     1       2.511   2.389 -24.661  0.00  0.00    -0.491 OA
ENDBRANCH   1  24
BRANCH  17  25
ATOM     25  O   UNL     1      -3.424   4.131 -25.878  0.00  0.00    -0.386 OA
ATOM     26  H   UNL     1      -4.011   4.894 -25.763  0.00  0.00    +0.210 HD
ENDBRANCH  17  25
TORSDOF 2
ENDMDL
