MODEL 1
REMARK VINA RESULT:    -8.801      0.000      0.000
REMARK INTER + INTRA:         -12.436
REMARK INTER:                 -11.584
REMARK INTRA:                  -0.852
REMARK UNBOUND:                -0.549
REMARK  Name = ZINC000000056555
REMARK  10 active torsions:
REMARK  status: ('A' for Active; 'I' for Inactive)
REMARK    1  A    between atoms: C_1  and  O_2
REMARK    2  A    between atoms: O_2  and  C_3
REMARK    3  A    between atoms: C_6  and  C_7
REMARK    4  A    between atoms: C_7  and  C_8
REMARK    5  A    between atoms: C_14  and  O_15
REMARK    6  A    between atoms: O_15  and  C_16
REMARK    7  A    between atoms: C_17  and  O_18
REMARK    8  A    between atoms: O_18  and  C_19
REMARK    9  A    between atoms: C_23  and  O_24
REMARK   10  A    between atoms: O_24  and  C_25
REMARK                            x       y       z     vdW  Elec       q    Type
REMARK                         _______ _______ _______ _____ _____    ______ ____
ROOT
ATOM      1  C   UNL     1       0.345   2.369 -23.209  0.00  0.00    +0.053 A 
ATOM      2  N   UNL     1       0.785   1.780 -22.138  0.00  0.00    -0.259 NA
ATOM      3  C   UNL     1      -0.028   1.529 -21.154  0.00  0.00    +0.111 A 
ATOM      4  C   UNL     1      -1.280   1.867 -21.243  0.00  0.00    +0.028 A 
ATOM      5  C   UNL     1      -1.719   2.456 -22.315  0.00  0.00    -0.011 A 
ATOM      6  C   UNL     1      -2.972   2.795 -22.404  0.00  0.00    +0.058 A 
ATOM      7  C   UNL     1      -3.411   3.385 -23.476  0.00  0.00    +0.162 A 
ATOM      8  C   UNL     1      -2.598   3.636 -24.459  0.00  0.00    +0.162 A 
ATOM      9  C   UNL     1      -1.346   3.297 -24.370  0.00  0.00    +0.059 A 
ATOM     10  C   UNL     1      -0.907   2.707 -23.298  0.00  0.00    +0.007 A 
ENDROOT
BRANCH   8  11
ATOM     11  O   UNL     1      -3.037   4.225 -25.531  0.00  0.00    -0.491 OA
ATOM     12  C   UNL     1      -3.191   3.546 -26.630  0.00  0.00    +0.277 C 
ENDBRANCH   8  11
BRANCH   7  13
ATOM     13  O   UNL     1      -4.662   3.723 -23.565  0.00  0.00    -0.491 OA
ATOM     14  C   UNL     1      -5.469   3.498 -22.570  0.00  0.00    +0.277 C 
ENDBRANCH   7  13
BRANCH   1  15
ATOM     15  C   UNL     1       1.158   2.620 -24.193  0.00  0.00    +0.091 C 
BRANCH  15  19
ATOM     16  C   UNL     1       4.873   3.554 -23.463  0.00  0.00    +0.161 A 
ATOM     17  C   UNL     1       4.580   2.382 -23.944  0.00  0.00    +0.049 A 
ATOM     18  C   UNL     1       3.342   2.071 -24.187  0.00  0.00    +0.008 A 
ATOM     19  C   UNL     1       2.396   2.931 -23.949  0.00  0.00    -0.038 A 
ATOM     20  C   UNL     1       2.690   4.103 -23.469  0.00  0.00    +0.053 A 
ATOM     21  C   UNL     1       3.928   4.414 -23.225  0.00  0.00    +0.162 A 
BRANCH  16  23
ATOM     22  C   UNL     1       6.936   2.961 -22.782  0.00  0.00    +0.277 C 
ATOM     23  O   UNL     1       6.111   3.865 -23.219  0.00  0.00    -0.491 OA
ENDBRANCH  16  23
BRANCH  21  24
ATOM     24  O   UNL     1       4.221   5.586 -22.744  0.00  0.00    -0.491 OA
ATOM     25  C   UNL     1       3.292   6.484 -22.608  0.00  0.00    +0.277 C 
ENDBRANCH  21  24
ENDBRANCH  15  19
ENDBRANCH   1  15
TORSDOF 6
ENDMDL
