MODEL 1
REMARK VINA RESULT:    -9.384      0.000      0.000
REMARK INTER + INTRA:         -12.403
REMARK INTER:                 -12.170
REMARK INTRA:                  -0.233
REMARK UNBOUND:                -0.276
REMARK  Name = ZINC000000338220
REMARK  8 active torsions:
REMARK  status: ('A' for Active; 'I' for Inactive)
REMARK    1  A    between atoms: C_1  and  O_2
REMARK    2  A    between atoms: O_2  and  C_3
REMARK    3  A    between atoms: C_4  and  C_5
REMARK    4  A    between atoms: C_9  and  O_10
REMARK    5  A    between atoms: O_10  and  C_11
REMARK    6  A    between atoms: C_11  and  C_12
REMARK    7  A    between atoms: C_19  and  O_20
REMARK    8  A    between atoms: O_20  and  C_21
REMARK                            x       y       z     vdW  Elec       q    Type
REMARK                         _______ _______ _______ _____ _____    ______ ____
ROOT
ATOM      1  C   UNL     1       4.441   1.756 -22.278  0.00  0.00    +0.205 A 
ATOM      2  C   UNL     1       4.040   0.950 -21.340  0.00  0.00    +0.148 A 
ATOM      3  O   UNL     1       2.769   0.808 -21.105  0.00  0.00    -0.456 OA
ATOM      4  C   UNL     1       1.900   1.471 -21.807  0.00  0.00    +0.146 A 
ATOM      5  C   UNL     1       0.630   1.328 -21.572  0.00  0.00    +0.092 A 
ATOM      6  C   UNL     1      -0.241   1.991 -22.274  0.00  0.00    +0.128 A 
ATOM      7  C   UNL     1       0.160   2.797 -23.213  0.00  0.00    +0.092 A 
ATOM      8  C   UNL     1       1.431   2.939 -23.449  0.00  0.00    +0.138 A 
ATOM      9  C   UNL     1       2.301   2.276 -22.746  0.00  0.00    +0.109 A 
ATOM     10  C   UNL     1       4.910   0.287 -20.637  0.00  0.00    +0.090 C 
ATOM     11  C   UNL     1       3.571   2.419 -22.981  0.00  0.00    +0.238 A 
ATOM     12  O   UNL     1       3.972   3.225 -23.919  0.00  0.00    -0.283 OA
ENDROOT
BRANCH   1  14
ATOM     13  C   UNL     1       6.332   2.964 -22.103  0.00  0.00    +0.277 C 
ATOM     14  O   UNL     1       5.711   1.898 -22.513  0.00  0.00    -0.489 OA
ENDBRANCH   1  14
BRANCH   8  15
ATOM     15  O   UNL     1       1.832   3.745 -24.387  0.00  0.00    -0.494 OA
ATOM     16  C   UNL     1       1.037   4.044 -25.370  0.00  0.00    +0.277 C 
ENDBRANCH   8  15
BRANCH   6  17
ATOM     17  O   UNL     1      -1.511   1.848 -22.039  0.00  0.00    -0.487 OA
BRANCH  17  18
ATOM     18  C   UNL     1      -2.211   2.858 -21.616  0.00  0.00    +0.264 C 
BRANCH  18  19
ATOM     19  C   UNL     1      -3.356   3.132 -22.168  0.00  0.00    -0.010 A 
ATOM     20  C   UNL     1      -4.456   2.972 -21.495  0.00  0.00    +0.007 A 
ATOM     21  C   UNL     1      -5.602   3.246 -22.047  0.00  0.00    +0.000 A 
ATOM     22  C   UNL     1      -5.646   3.680 -23.271  0.00  0.00    +0.000 A 
ATOM     23  C   UNL     1      -4.545   3.840 -23.945  0.00  0.00    +0.000 A 
ATOM     24  C   UNL     1      -3.400   3.566 -23.393  0.00  0.00    +0.007 A 
ENDBRANCH  18  19
ENDBRANCH  17  18
ENDBRANCH   6  17
TORSDOF 5
ENDMDL
