MODEL 1
REMARK VINA RESULT:   -10.027      0.000      0.000
REMARK INTER + INTRA:         -10.027
REMARK INTER:                 -10.027
REMARK INTRA:                   0.000
REMARK UNBOUND:                 0.000
REMARK  Name = ZINC000004104821
REMARK  3 active torsions:
REMARK  status: ('A' for Active; 'I' for Inactive)
REMARK    1  A    between atoms: C_1  and  C_2
REMARK    2  A    between atoms: C_10  and  C_11
REMARK    3  A    between atoms: C_16  and  C_17
REMARK                            x       y       z     vdW  Elec       q    Type
REMARK                         _______ _______ _______ _____ _____    ______ ____
ROOT
ATOM      1  C   UNL     1      -0.696   2.013 -21.260  0.00  0.00    +0.019 C 
ATOM      2  C   UNL     1      -0.498   2.311 -22.509  0.00  0.00    +0.101 C 
ATOM      3  C   UNL     1       0.632   2.223 -23.147  0.00  0.00    +0.311 C 
ATOM      4  O   UNL     1       0.433   2.607 -24.372  0.00  0.00    -0.458 OA
ATOM      5  C   UNL     1      -0.819   2.933 -24.493  0.00  0.00    +0.212 C 
ATOM      6  C   UNL     1      -1.511   3.372 -25.502  0.00  0.00    +0.191 C 
ATOM      7  O   UNL     1      -2.202   3.812 -26.512  0.00  0.00    -0.361 OA
ATOM      8  C   UNL     1      -2.777   3.629 -25.361  0.00  0.00    +0.097 C 
ATOM      9  C   UNL     1      -3.908   4.031 -25.861  0.00  0.00    +0.044 C 
ATOM     10  C   UNL     1      -3.352   3.446 -24.209  0.00  0.00    +0.040 C 
ATOM     11  C   UNL     1      -4.619   3.704 -24.068  0.00  0.00    +0.037 C 
ATOM     12  C   UNL     1      -5.194   3.521 -22.916  0.00  0.00    +0.151 C 
ATOM     13  O   UNL     1      -5.769   3.338 -21.765  0.00  0.00    -0.365 OA
ATOM     14  C   UNL     1      -4.503   3.081 -21.907  0.00  0.00    +0.093 C 
ATOM     15  C   UNL     1      -4.436   2.722 -20.659  0.00  0.00    +0.044 C 
ATOM     16  C   UNL     1      -3.237   2.824 -22.048  0.00  0.00    +0.038 C 
ATOM     17  C   UNL     1      -2.662   3.007 -23.200  0.00  0.00    +0.011 C 
ATOM     18  O   UNL     1       1.762   1.820 -22.646  0.00  0.00    -0.251 OA
ATOM     19  C   UNL     1      -1.395   2.750 -23.342  0.00  0.00    +0.046 C 
ENDROOT
TORSDOF 0
ENDMDL
