MODEL 1
REMARK VINA RESULT:   -10.971      0.000      0.000
REMARK INTER + INTRA:         -12.081
REMARK INTER:                 -11.964
REMARK INTRA:                  -0.117
REMARK UNBOUND:                -0.147
REMARK  Name = ZINC000096316347
REMARK  3 active torsions:
REMARK  status: ('A' for Active; 'I' for Inactive)
REMARK    1  A    between atoms: C_1  and  O_2
REMARK    2  A    between atoms: O_2  and  C_3
REMARK    3  A    between atoms: C_11  and  O_12
REMARK                            x       y       z     vdW  Elec       q    Type
REMARK                         _______ _______ _______ _____ _____    ______ ____
ROOT
ATOM      1  C   UNL     1       0.856   2.663 -23.934  0.00  0.00    +0.162 A 
ATOM      2  C   UNL     1       1.002   2.193 -22.768  0.00  0.00    +0.050 A 
ATOM      3  C   UNL     1       0.020   2.084 -22.002  0.00  0.00    +0.008 A 
ATOM      4  C   UNL     1      -1.115   2.442 -22.391  0.00  0.00    -0.038 A 
ATOM      5  C   UNL     1      -1.283   2.913 -23.546  0.00  0.00    +0.012 A 
ATOM      6  C   UNL     1      -2.418   3.269 -23.928  0.00  0.00    +0.049 C 
ATOM      7  C   UNL     1      -3.659   3.708 -24.475  0.00  0.00    +0.035 C 
ATOM      8  C   UNL     1      -4.786   3.597 -23.634  0.00  0.00    +0.109 C 
ATOM      9  N   UNL     1      -4.585   3.068 -22.341  0.00  0.00    -0.300 N 
ATOM     10  C   UNL     1      -5.533   2.931 -21.519  0.00  0.00    +0.328 C 
ATOM     11  O   UNL     1      -6.701   3.266 -21.829  0.00  0.00    -0.279 OA
ATOM     12  C   UNL     1      -3.255   2.691 -22.000  0.00  0.00    +0.088 C 
ATOM     13  C   UNL     1      -3.402   3.161 -23.164  0.00  0.00    +0.046 C 
ATOM     14  C   UNL     1      -4.551   3.523 -23.553  0.00  0.00    -0.022 C 
ATOM     15  C   UNL     1      -4.701   3.988 -24.704  0.00  0.00    +0.004 C 
ATOM     16  C   UNL     1      -3.713   4.102 -25.485  0.00  0.00    +0.178 C 
ATOM     17  C   UNL     1      -2.579   3.743 -25.096  0.00  0.00    +0.217 C 
ATOM     18  O   UNL     1      -1.113   3.602 -25.439  0.00  0.00    -0.481 OA
ATOM     19  C   UNL     1      -2.120   2.333 -21.613  0.00  0.00    +0.058 C 
ATOM     20  C   UNL     1      -0.294   3.025 -24.323  0.00  0.00    +0.167 A 
ENDROOT
BRANCH   1  22
ATOM     21  C   UNL     1       2.700   1.862 -24.745  0.00  0.00    +0.277 C 
ATOM     22  O   UNL     1       1.841   2.771 -24.697  0.00  0.00    -0.491 OA
ENDBRANCH   1  22
BRANCH  16  23
ATOM     23  O   UNL     1      -3.869   4.568 -26.634  0.00  0.00    -0.384 OA
ATOM     24  H   UNL     1      -4.384   3.943 -27.169  0.00  0.00    +0.210 HD
ENDBRANCH  16  23
TORSDOF 2
ENDMDL
