MODEL 1
REMARK VINA RESULT:    -8.238      0.000      0.000
REMARK INTER + INTRA:          -9.187
REMARK INTER:                  -9.656
REMARK INTRA:                   0.469
REMARK UNBOUND:                 0.496
REMARK  Name = ZINC000000035525
REMARK  6 active torsions:
REMARK  status: ('A' for Active; 'I' for Inactive)
REMARK    1  A    between atoms: C_1  and  O_2
REMARK    2  A    between atoms: O_2  and  C_3
REMARK    3  A    between atoms: C_7  and  O_8
REMARK    4  A    between atoms: O_8  and  C_9
REMARK    5  A    between atoms: C_17  and  O_18
REMARK    6  A    between atoms: O_18  and  C_19
REMARK                            x       y       z     vdW  Elec       q    Type
REMARK                         _______ _______ _______ _____ _____    ______ ____
ROOT
ATOM      1  C   UNL     1       1.009   1.906 -22.663  0.00  0.00    +0.164 A 
ATOM      2  C   UNL     1       0.447   1.691 -21.511  0.00  0.00    +0.050 A 
ATOM      3  C   UNL     1      -0.809   1.974 -21.338  0.00  0.00    +0.017 A 
ATOM      4  C   UNL     1      -1.504   2.472 -22.317  0.00  0.00    +0.047 A 
ATOM      5  C   UNL     1      -2.761   2.755 -22.144  0.00  0.00    +0.142 A 
ATOM      6  C   UNL     1      -3.456   3.254 -23.123  0.00  0.00    +0.082 A 
ATOM      7  C   UNL     1      -4.702   3.616 -23.210  0.00  0.00    +0.055 A 
ATOM      8  C   UNL     1      -4.909   4.056 -24.415  0.00  0.00    +0.198 A 
ATOM      9  O   UNL     1      -3.791   3.965 -25.074  0.00  0.00    -0.445 OA
ATOM     10  C   UNL     1      -2.894   3.469 -24.275  0.00  0.00    +0.231 A 
ATOM     11  N   UNL     1      -1.637   3.186 -24.448  0.00  0.00    -0.208 NA
ATOM     12  C   UNL     1      -0.942   2.688 -23.469  0.00  0.00    +0.123 A 
ATOM     13  C   UNL     1       0.315   2.405 -23.642  0.00  0.00    +0.188 A 
ENDROOT
BRANCH   1  15
ATOM     14  C   UNL     1       2.718   0.447 -22.519  0.00  0.00    +0.277 C 
ATOM     15  O   UNL     1       2.267   1.623 -22.836  0.00  0.00    -0.491 OA
ENDBRANCH   1  15
BRANCH   5  16
ATOM     16  O   UNL     1      -3.324   2.540 -20.992  0.00  0.00    -0.494 OA
ATOM     17  C   UNL     1      -3.342   3.478 -20.092  0.00  0.00    +0.277 C 
ENDBRANCH   5  16
BRANCH  13  18
ATOM     18  O   UNL     1       0.877   2.620 -24.794  0.00  0.00    -0.489 OA
ATOM     19  C   UNL     1       1.474   3.751 -25.025  0.00  0.00    +0.277 C 
ENDBRANCH  13  18
TORSDOF 3
ENDMDL
