MODEL 1
REMARK VINA RESULT:    -8.944      0.000      0.000
REMARK INTER + INTRA:         -11.671
REMARK INTER:                 -11.403
REMARK INTRA:                  -0.268
REMARK UNBOUND:                -0.113
REMARK  Name = ZINC000000899053
REMARK  8 active torsions:
REMARK  status: ('A' for Active; 'I' for Inactive)
REMARK    1  A    between atoms: C_1  and  O_2
REMARK    2  A    between atoms: O_2  and  C_3
REMARK    3  A    between atoms: C_5  and  C_6
REMARK    4  A    between atoms: C_7  and  C_8
REMARK    5  A    between atoms: C_18  and  O_19
REMARK    6  A    between atoms: O_19  and  C_20
REMARK    7  A    between atoms: C_21  and  O_22
REMARK    8  A    between atoms: O_22  and  C_23
REMARK                            x       y       z     vdW  Elec       q    Type
REMARK                         _______ _______ _______ _____ _____    ______ ____
ROOT
ATOM      1  C   UNL     1       2.554   3.275 -23.066  0.00  0.00    +0.166 A 
ATOM      2  C   UNL     1       1.275   3.208 -22.839  0.00  0.00    +0.057 A 
ATOM      3  C   UNL     1       0.772   2.153 -22.269  0.00  0.00    -0.018 A 
ATOM      4  C   UNL     1       1.545   1.165 -21.928  0.00  0.00    +0.057 A 
ATOM      5  C   UNL     1       2.824   1.233 -22.156  0.00  0.00    +0.166 A 
ATOM      6  C   UNL     1       3.327   2.288 -22.725  0.00  0.00    +0.204 A 
ENDROOT
BRANCH   1   8
ATOM      7  C   UNL     1       2.685   5.514 -23.251  0.00  0.00    +0.277 C 
ATOM      8  O   UNL     1       3.057   4.330 -23.636  0.00  0.00    -0.491 OA
ENDBRANCH   1   8
BRANCH   5   9
ATOM      9  O   UNL     1       3.598   0.246 -21.815  0.00  0.00    -0.491 OA
ATOM     10  C   UNL     1       4.066   0.176 -20.604  0.00  0.00    +0.277 C 
ENDBRANCH   5   9
BRANCH   3  11
ATOM     11  C   UNL     1      -0.507   2.085 -22.041  0.00  0.00    +0.013 C 
ATOM     12  C   UNL     1      -1.263   3.117 -22.270  0.00  0.00    +0.068 C 
BRANCH  12  13
ATOM     13  C   UNL     1      -2.542   3.050 -22.042  0.00  0.00    +0.246 C 
ATOM     14  N   UNL     1      -3.385   3.462 -22.940  0.00  0.00    -0.235 N 
ATOM     15  C   UNL     1      -2.950   3.942 -24.069  0.00  0.00    +0.121 C 
ATOM     16  C   UNL     1      -3.794   4.354 -24.968  0.00  0.00    +0.047 C 
ATOM     17  C   UNL     1      -5.072   4.286 -24.740  0.00  0.00    -0.020 C 
ATOM     18  C   UNL     1      -5.506   3.807 -23.612  0.00  0.00    +0.064 C 
ATOM     19  C   UNL     1      -4.663   3.394 -22.713  0.00  0.00    +0.246 C 
ATOM     20  O   UNL     1      -5.097   2.915 -21.586  0.00  0.00    -0.270 OA
ATOM     21  O   UNL     1      -2.975   2.570 -20.915  0.00  0.00    -0.270 OA
ENDBRANCH  12  13
ENDBRANCH   3  11
BRANCH   6  22
ATOM     22  O   UNL     1       4.605   2.355 -22.953  0.00  0.00    -0.488 OA
ATOM     23  C   UNL     1       5.373   3.039 -22.157  0.00  0.00    +0.277 C 
ENDBRANCH   6  22
TORSDOF 5
ENDMDL
