MODEL 1
REMARK VINA RESULT:   -11.360      0.000      0.000
REMARK INTER + INTRA:         -12.024
REMARK INTER:                 -12.024
REMARK INTRA:                   0.000
REMARK UNBOUND:                 0.000
REMARK  Name = ZINC000034094858
REMARK  3 active torsions:
REMARK  status: ('A' for Active; 'I' for Inactive)
REMARK    1  A    between atoms: C_1  and  C_2
REMARK    2  A    between atoms: C_9  and  O_10
REMARK    3  A    between atoms: C_20  and  O_21
REMARK                            x       y       z     vdW  Elec       q    Type
REMARK                         _______ _______ _______ _____ _____    ______ ____
ROOT
ATOM      1  C   UNL     1      -4.519   3.833 -23.864  0.00  0.00    +0.014 C 
ATOM      2  C   UNL     1      -3.672   3.266 -23.056  0.00  0.00    -0.003 C 
ATOM      3  C   UNL     1      -3.162   3.606 -24.203  0.00  0.00    +0.010 C 
ATOM      4  C   UNL     1      -1.909   3.369 -24.453  0.00  0.00    +0.009 C 
ATOM      5  C   UNL     1      -1.165   2.793 -23.557  0.00  0.00    +0.023 C 
ATOM      6  C   UNL     1       0.089   2.556 -23.807  0.00  0.00    -0.040 A 
ATOM      7  C   UNL     1       0.598   2.896 -24.953  0.00  0.00    +0.008 A 
ATOM      8  C   UNL     1       1.852   2.659 -25.204  0.00  0.00    +0.047 A 
ATOM      9  C   UNL     1       2.595   2.083 -24.307  0.00  0.00    +0.131 A 
ATOM     10  C   UNL     1       2.086   1.743 -23.161  0.00  0.00    +0.063 A 
ATOM     11 BR   UNL     1       2.830   1.166 -22.264  0.00  0.00    -0.046 Br
ATOM     12  C   UNL     1       0.833   1.979 -22.910  0.00  0.00    -0.026 A 
ATOM     13  C   UNL     1       0.323   1.639 -21.763  0.00  0.00    +0.037 C 
ATOM     14  C   UNL     1      -0.930   1.876 -21.513  0.00  0.00    +0.009 C 
ATOM     15  C   UNL     1      -1.675   2.453 -22.410  0.00  0.00    +0.000 C 
ATOM     16  C   UNL     1      -4.870   3.387 -22.566  0.00  0.00    +0.121 C 
ATOM     17  C   UNL     1      -4.866   2.886 -21.367  0.00  0.00    +0.032 C 
ATOM     18  C   UNL     1      -3.666   2.455 -21.116  0.00  0.00    +0.007 C 
ATOM     19  C   UNL     1      -2.928   2.689 -22.159  0.00  0.00    +0.001 C 
ENDROOT
BRANCH   9  20
ATOM     20  O   UNL     1       3.850   1.846 -24.557  0.00  0.00    -0.506 OA
ATOM     21  H   UNL     1       4.515   2.360 -24.144  0.00  0.00    +0.292 HD
ENDBRANCH   9  20
BRANCH  16  22
ATOM     22  O   UNL     1      -5.892   3.917 -23.169  0.00  0.00    -0.391 OA
ATOM     23  H   UNL     1      -6.684   3.811 -22.619  0.00  0.00    +0.210 HD
ENDBRANCH  16  22
TORSDOF 2
ENDMDL
