MODEL 1
REMARK VINA RESULT:   -10.825      0.000      0.000
REMARK INTER + INTRA:         -11.555
REMARK INTER:                 -11.455
REMARK INTRA:                  -0.099
REMARK UNBOUND:                -0.096
REMARK  Name = ZINC000034347840
REMARK  4 active torsions:
REMARK  status: ('A' for Active; 'I' for Inactive)
REMARK    1  A    between atoms: C_1  and  O_2
REMARK    2  A    between atoms: O_2  and  C_3
REMARK    3  A    between atoms: N_12  and  C_13
REMARK    4  A    between atoms: C_17  and  C_18
REMARK                            x       y       z     vdW  Elec       q    Type
REMARK                         _______ _______ _______ _____ _____    ______ ____
ROOT
ATOM      1  C   UNL     1       0.148   3.845 -23.909  0.00  0.00    +0.120 A 
ATOM      2  C   UNL     1      -0.066   3.794 -25.158  0.00  0.00    +0.046 A 
ATOM      3  C   UNL     1      -1.259   3.682 -25.567  0.00  0.00    +0.008 A 
ATOM      4  C   UNL     1      -2.352   3.614 -24.585  0.00  0.00    -0.038 A 
ATOM      5  C   UNL     1      -2.098   3.663 -23.557  0.00  0.00    -0.033 A 
ATOM      6  C   UNL     1      -2.638   3.637 -22.774  0.00  0.00    +0.016 C 
ATOM      7  C   UNL     1      -1.520   3.700 -24.033  0.00  0.00    +0.063 C 
ATOM      8  C   UNL     1      -1.998   3.623 -25.425  0.00  0.00    +0.132 C 
ATOM      9  N   UNL     1      -3.151   3.519 -25.633  0.00  0.00    +0.236 N 
ATOM     10  H   UNL     1      -4.155   3.438 -25.473  0.00  0.00    +0.203 HD
ATOM     11  C   UNL     1      -4.218   3.459 -24.463  0.00  0.00    +0.073 C 
ATOM     12  C   UNL     1      -2.942   3.501 -27.018  0.00  0.00    +0.190 C 
ATOM     13  C   UNL     1      -2.345   3.693 -21.552  0.00  0.00    +0.086 C 
ATOM     14  C   UNL     1      -3.284   3.636 -20.659  0.00  0.00    +0.134 C 
ATOM     15  O   UNL     1      -2.981   3.694 -19.412  0.00  0.00    -0.297 OA
ATOM     16  C   UNL     1      -4.548   3.520 -21.013  0.00  0.00    +0.078 C 
ATOM     17  C   UNL     1      -4.895   3.458 -22.260  0.00  0.00    +0.002 C 
ATOM     18  C   UNL     1      -6.134   3.344 -22.588  0.00  0.00    +0.008 C 
ATOM     19  C   UNL     1      -4.009   3.510 -23.156  0.00  0.00    +0.052 C 
ATOM     20  C   UNL     1      -3.545   3.502 -25.004  0.00  0.00    +0.090 C 
ATOM     21  C   UNL     1      -0.856   3.780 -23.098  0.00  0.00    +0.050 A 
ENDROOT
BRANCH   1  23
ATOM     22  C   UNL     1       2.293   4.762 -23.243  0.00  0.00    +0.277 C 
ATOM     23  O   UNL     1       1.320   3.964 -23.161  0.00  0.00    -0.495 OA
ENDBRANCH   1  23
TORSDOF 1
ENDMDL
