MODEL 1
REMARK VINA RESULT:    -9.067      0.000      0.000
REMARK INTER + INTRA:         -10.843
REMARK INTER:                 -10.631
REMARK INTRA:                  -0.212
REMARK UNBOUND:                -0.186
REMARK  Name = ZINC000018847037
REMARK  5 active torsions:
REMARK  status: ('A' for Active; 'I' for Inactive)
REMARK    1  A    between atoms: C_1  and  O_2
REMARK    2  A    between atoms: O_2  and  C_3
REMARK    3  A    between atoms: C_6  and  C_7
REMARK    4  A    between atoms: C_12  and  O_13
REMARK    5  A    between atoms: C_15  and  O_16
REMARK                            x       y       z     vdW  Elec       q    Type
REMARK                         _______ _______ _______ _____ _____    ______ ____
ROOT
ATOM      1  C   UNL     1      -0.146   3.731 -23.224  0.00  0.00    +0.064 A 
ATOM      2  C   UNL     1       0.444   4.877 -23.388  0.00  0.00    +0.208 A 
ATOM      3  O   UNL     1       1.738   4.932 -23.503  0.00  0.00    -0.462 OA
ATOM      4  C   UNL     1       2.441   3.839 -23.455  0.00  0.00    +0.145 A 
ATOM      5  C   UNL     1       3.735   3.893 -23.571  0.00  0.00    +0.092 A 
ATOM      6  C   UNL     1       4.438   2.801 -23.523  0.00  0.00    +0.124 A 
ATOM      7  C   UNL     1       3.847   1.655 -23.359  0.00  0.00    +0.091 A 
ATOM      8  C   UNL     1       2.554   1.600 -23.243  0.00  0.00    +0.135 A 
ATOM      9  C   UNL     1       1.851   2.692 -23.291  0.00  0.00    +0.106 A 
ATOM     10  C   UNL     1       0.557   2.639 -23.175  0.00  0.00    +0.204 A 
ATOM     11  O   UNL     1      -0.033   1.492 -23.011  0.00  0.00    -0.286 OA
ENDROOT
BRANCH   1  15
ATOM     12  C   UNL     1      -4.027   3.565 -22.878  0.00  0.00    +0.120 A 
ATOM     13  C   UNL     1      -3.280   3.553 -21.815  0.00  0.00    +0.046 A 
ATOM     14  C   UNL     1      -1.985   3.608 -21.930  0.00  0.00    +0.012 A 
ATOM     15  C   UNL     1      -1.440   3.676 -23.108  0.00  0.00    -0.011 A 
ATOM     16  C   UNL     1      -2.189   3.688 -24.171  0.00  0.00    +0.012 A 
ATOM     17  C   UNL     1      -3.482   3.633 -24.056  0.00  0.00    +0.046 A 
BRANCH  12  19
ATOM     18  C   UNL     1      -5.859   2.860 -21.773  0.00  0.00    +0.277 C 
ATOM     19  O   UNL     1      -5.321   3.510 -22.763  0.00  0.00    -0.495 OA
ENDBRANCH  12  19
ENDBRANCH   1  15
BRANCH   8  20
ATOM     20  O   UNL     1       1.964   0.454 -23.079  0.00  0.00    -0.506 OA
ATOM     21  H   UNL     1       1.389   0.124 -23.741  0.00  0.00    +0.292 HD
ENDBRANCH   8  20
BRANCH   6  22
ATOM     22  O   UNL     1       5.732   2.855 -23.639  0.00  0.00    -0.507 OA
ATOM     23  H   UNL     1       6.202   2.122 -23.984  0.00  0.00    +0.292 HD
ENDBRANCH   6  22
TORSDOF 4
ENDMDL
