MODEL 1
REMARK VINA RESULT:   -10.403      0.000      0.000
REMARK INTER + INTRA:         -11.735
REMARK INTER:                 -11.632
REMARK INTRA:                  -0.103
REMARK UNBOUND:                -0.115
REMARK  Name = ZINC000096316331
REMARK  4 active torsions:
REMARK  status: ('A' for Active; 'I' for Inactive)
REMARK    1  A    between atoms: C_1  and  O_2
REMARK    2  A    between atoms: O_2  and  C_3
REMARK    3  A    between atoms: C_8  and  O_9
REMARK    4  A    between atoms: N_18  and  C_19
REMARK                            x       y       z     vdW  Elec       q    Type
REMARK                         _______ _______ _______ _____ _____    ______ ____
ROOT
ATOM      1  C   UNL     1       0.945   2.179 -23.380  0.00  0.00    +0.162 A 
ATOM      2  C   UNL     1       0.900   1.791 -22.124  0.00  0.00    +0.050 A 
ATOM      3  C   UNL     1      -0.243   1.851 -21.424  0.00  0.00    +0.008 A 
ATOM      4  C   UNL     1      -1.467   2.347 -22.037  0.00  0.00    -0.034 A 
ATOM      5  C   UNL     1      -1.341   2.673 -23.159  0.00  0.00    +0.012 A 
ATOM      6  C   UNL     1      -2.118   3.072 -23.815  0.00  0.00    +0.034 C 
ATOM      7  C   UNL     1      -0.781   2.700 -23.681  0.00  0.00    +0.043 C 
ATOM      8  C   UNL     1      -0.266   2.180 -22.444  0.00  0.00    -0.026 C 
ATOM      9  C   UNL     1      -1.059   2.015 -21.305  0.00  0.00    -0.004 C 
ATOM     10  C   UNL     1      -2.042   2.283 -21.387  0.00  0.00    +0.005 C 
ATOM     11  C   UNL     1      -2.926   3.540 -24.662  0.00  0.00    +0.067 C 
ATOM     12  C   UNL     1      -4.171   3.701 -24.202  0.00  0.00    +0.133 C 
ATOM     13  N   UNL     1      -4.396   3.345 -22.906  0.00  0.00    +0.239 N 
ATOM     14  H   UNL     1      -4.796   3.153 -21.988  0.00  0.00    +0.204 HD
ATOM     15  C   UNL     1      -5.562   3.484 -22.436  0.00  0.00    +0.191 C 
ATOM     16  C   UNL     1      -3.361   2.885 -22.260  0.00  0.00    +0.096 C 
ATOM     17  C   UNL     1      -2.610   2.858 -22.758  0.00  0.00    -0.011 C 
ATOM     18  C   UNL     1      -2.906   2.535 -21.509  0.00  0.00    +0.094 C 
ATOM     19  C   UNL     1      -0.095   2.610 -23.931  0.00  0.00    +0.163 A 
ENDROOT
BRANCH   1  21
ATOM     20  C   UNL     1       2.987   1.533 -24.759  0.00  0.00    +0.277 C 
ATOM     21  O   UNL     1       1.975   2.254 -24.417  0.00  0.00    -0.491 OA
ENDBRANCH   1  21
BRANCH  19  22
ATOM     22  O   UNL     1       0.700   2.775 -25.068  0.00  0.00    -0.503 OA
ATOM     23  H   UNL     1       1.013   3.626 -25.301  0.00  0.00    +0.292 HD
ENDBRANCH  19  22
TORSDOF 2
ENDMDL
