MODEL 1
REMARK VINA RESULT:   -10.091      0.000      0.000
REMARK INTER + INTRA:         -13.341
REMARK INTER:                 -12.743
REMARK INTRA:                  -0.598
REMARK UNBOUND:                 0.289
REMARK  Name = ZINC000003998738
REMARK  6 active torsions:
REMARK  status: ('A' for Active; 'I' for Inactive)
REMARK    1  A    between atoms: C_2  and  C_3
REMARK    2  A    between atoms: C_10  and  C_11
REMARK    3  A    between atoms: C_11  and  O_12
REMARK    4  A    between atoms: C_11  and  C_21
REMARK    5  A    between atoms: O_12  and  C_13
REMARK    6  A    between atoms: C_13  and  C_15
REMARK                            x       y       z     vdW  Elec       q    Type
REMARK                         _______ _______ _______ _____ _____    ______ ____
ROOT
ATOM      1  C   UNL     1      -1.024   2.653 -23.781  0.00  0.00    +0.255 C 
ENDROOT
BRANCH   1   2
ATOM      2  C   UNL     1      -2.126   3.054 -24.392  0.00  0.00    +0.009 A 
ATOM      3  C   UNL     1      -2.111   3.295 -25.688  0.00  0.00    +0.028 A 
ATOM      4  C   UNL     1      -3.211   3.696 -26.301  0.00  0.00    +0.112 A 
ATOM      5  N   UNL     1      -4.326   3.853 -25.610  0.00  0.00    -0.255 NA
ATOM      6  C   UNL     1      -4.342   3.611 -24.315  0.00  0.00    +0.071 A 
ATOM      7  C   UNL     1      -5.456   3.768 -23.624  0.00  0.00    +0.028 A 
ATOM      8  C   UNL     1      -5.471   3.527 -22.329  0.00  0.00    +0.002 A 
ATOM      9  C   UNL     1      -4.371   3.127 -21.716  0.00  0.00    +0.001 A 
ATOM     10  C   UNL     1      -3.256   2.970 -22.407  0.00  0.00    +0.010 A 
ATOM     11  C   UNL     1      -3.241   3.211 -23.703  0.00  0.00    +0.007 A 
ENDBRANCH   1   2
BRANCH   1  18
ATOM     12  C   UNL     1       2.036   5.169 -23.345  0.00  0.00    +0.060 C 
ATOM     13  C   UNL     1       0.898   5.372 -22.664  0.00  0.00    +0.139 C 
ATOM     14  N   UNL     1      -0.115   4.518 -22.824  0.00  0.00    +0.241 N 
ATOM     15  H   UNL     1      -1.050   4.476 -22.419  0.00  0.00    +0.204 HD
ATOM     16  C   UNL     1       0.895   4.760 -23.116  0.00  0.00    +0.132 C 
ATOM     17  C   UNL     1       1.199   3.954 -23.854  0.00  0.00    +0.055 C 
ATOM     18  C   UNL     1      -0.010   3.487 -23.636  0.00  0.00    +0.111 C 
ATOM     19  C   UNL     1       1.124   3.288 -24.312  0.00  0.00    +0.063 C 
ATOM     20  C   UNL     1       2.135   4.120 -24.168  0.00  0.00    +0.011 C 
BRANCH  12  22
ATOM     21  C   UNL     1       4.236   5.545 -22.837  0.00  0.00    +0.004 C 
ATOM     22  C   UNL     1       3.054   6.002 -23.204  0.00  0.00    -0.026 C 
ENDBRANCH  12  22
ENDBRANCH   1  18
BRANCH   1  23
ATOM     23  O   UNL     1      -0.937   1.422 -23.315  0.00  0.00    -0.447 OA
BRANCH  23  24
ATOM     24  C   UNL     1      -0.471   1.208 -22.100  0.00  0.00    +0.340 C 
ATOM     25  O   UNL     1      -1.306   1.077 -21.087  0.00  0.00    -0.245 OA
BRANCH  24  26
ATOM     26  C   UNL     1       0.829   1.125 -21.899  0.00  0.00    +0.059 A 
ATOM     27  C   UNL     1       1.378   1.740 -20.864  0.00  0.00    +0.015 A 
ATOM     28  C   UNL     1       2.679   1.656 -20.664  0.00  0.00    +0.001 A 
ATOM     29  C   UNL     1       3.434   0.961 -21.491  0.00  0.00    +0.000 A 
ATOM     30  C   UNL     1       2.886   0.346 -22.526  0.00  0.00    +0.001 A 
ATOM     31  C   UNL     1       1.585   0.430 -22.726  0.00  0.00    +0.015 A 
ENDBRANCH  24  26
ENDBRANCH  23  24
ENDBRANCH   1  23
TORSDOF 6
ENDMDL
