MODEL 1
REMARK VINA RESULT:    -9.513      0.000      0.000
REMARK INTER + INTRA:         -10.347
REMARK INTER:                 -10.347
REMARK INTRA:                   0.000
REMARK UNBOUND:                 0.000
REMARK  Name = ZINC000004104719
REMARK  6 active torsions:
REMARK  status: ('A' for Active; 'I' for Inactive)
REMARK    1  A    between atoms: C_1  and  C_2
REMARK    2  A    between atoms: C_2  and  C_3
REMARK    3  A    between atoms: C_7  and  O_8
REMARK    4  A    between atoms: C_9  and  C_10
REMARK    5  A    between atoms: C_13  and  C_14
REMARK    6  A    between atoms: C_13  and  O_15
REMARK                            x       y       z     vdW  Elec       q    Type
REMARK                         _______ _______ _______ _____ _____    ______ ____
ROOT
ATOM      1  C   UNL     1      -0.303   1.875 -21.284  0.00  0.00    +0.011 C 
ATOM      2  C   UNL     1      -1.028   2.284 -22.283  0.00  0.00    -0.028 C 
ATOM      3  C   UNL     1      -2.161   2.479 -21.676  0.00  0.00    -0.001 C 
ATOM      4  C   UNL     1      -3.201   2.614 -20.908  0.00  0.00    +0.007 C 
ATOM      5  C   UNL     1      -4.395   3.015 -21.225  0.00  0.00    +0.032 C 
ATOM      6  C   UNL     1      -4.845   3.381 -22.389  0.00  0.00    +0.121 C 
ATOM      7  C   UNL     1      -4.212   3.435 -23.522  0.00  0.00    -0.000 C 
ATOM      8  C   UNL     1      -4.765   3.819 -24.635  0.00  0.00    +0.012 C 
ATOM      9  C   UNL     1      -3.866   3.758 -25.572  0.00  0.00    +0.035 C 
ATOM     10  C   UNL     1      -2.757   3.337 -25.039  0.00  0.00    +0.067 C 
ATOM     11  C   UNL     1      -2.292   3.454 -26.248  0.00  0.00    +0.041 C 
ATOM     12  C   UNL     1      -5.464   3.783 -23.499  0.00  0.00    +0.014 C 
ATOM     13  C   UNL     1      -2.971   3.137 -23.773  0.00  0.00    +0.033 C 
ATOM     14  C   UNL     1      -0.146   2.232 -23.237  0.00  0.00    +0.011 C 
ATOM     15  C   UNL     1      -2.058   2.711 -22.951  0.00  0.00    +0.005 C 
ENDROOT
BRANCH  10  16
ATOM     16  O   UNL     1      -1.551   2.940 -24.759  0.00  0.00    -0.389 OA
ATOM     17  H   UNL     1      -1.515   1.971 -24.790  0.00  0.00    +0.210 HD
ENDBRANCH  10  16
BRANCH   6  18
ATOM     18  O   UNL     1      -6.095   3.740 -22.423  0.00  0.00    -0.391 OA
ATOM     19  H   UNL     1      -6.266   4.382 -21.716  0.00  0.00    +0.210 HD
ENDBRANCH   6  18
TORSDOF 2
ENDMDL
