MODEL 1
REMARK VINA RESULT:    -9.677      0.000      0.000
REMARK INTER + INTRA:         -10.976
REMARK INTER:                 -11.214
REMARK INTRA:                   0.238
REMARK UNBOUND:                 1.530
REMARK  Name = ZINC000001575653
REMARK  9 active torsions:
REMARK  status: ('A' for Active; 'I' for Inactive)
REMARK    1  A    between atoms: C_1  and  O_2
REMARK    2  A    between atoms: O_2  and  C_3
REMARK    3  A    between atoms: C_6  and  C_7
REMARK    4  A    between atoms: C_7  and  C_8
REMARK    5  A    between atoms: C_11  and  O_12
REMARK    6  A    between atoms: O_12  and  C_13
REMARK    7  A    between atoms: C_14  and  O_15
REMARK    8  A    between atoms: O_15  and  C_16
REMARK    9  A    between atoms: N_21  and  C_22
REMARK                            x       y       z     vdW  Elec       q    Type
REMARK                         _______ _______ _______ _____ _____    ______ ____
ROOT
ATOM      1  C   UNL     1      -0.903   3.857 -24.092  0.00  0.00    +0.100 C 
ATOM      2  C   UNL     1      -2.113   3.826 -23.619  0.00  0.00    +0.008 A 
ATOM      3  C   UNL     1      -2.324   4.051 -22.357  0.00  0.00    +0.058 A 
ATOM      4  C   UNL     1      -3.534   4.020 -21.883  0.00  0.00    +0.162 A 
ATOM      5  C   UNL     1      -4.535   3.763 -22.673  0.00  0.00    +0.162 A 
ATOM      6  C   UNL     1      -4.324   3.538 -23.936  0.00  0.00    +0.053 A 
ATOM      7  C   UNL     1      -3.113   3.569 -24.409  0.00  0.00    -0.030 A 
ATOM      8  C   UNL     1      -2.903   3.344 -25.672  0.00  0.00    +0.086 C 
ATOM      9  C   UNL     1      -1.693   3.375 -26.145  0.00  0.00    +0.136 C 
ATOM     10  N   UNL     1      -0.693   3.632 -25.355  0.00  0.00    +0.239 N 
ATOM     11  H   UNL     1      -1.324   3.416 -26.126  0.00  0.00    +0.204 HD
ATOM     12  C   UNL     1       0.518   3.663 -25.828  0.00  0.00    +0.191 C 
ENDROOT
BRANCH   5  13
ATOM     13  O   UNL     1      -5.745   3.732 -22.201  0.00  0.00    -0.491 OA
ATOM     14  C   UNL     1      -6.238   2.617 -21.750  0.00  0.00    +0.277 C 
ENDBRANCH   5  13
BRANCH   4  15
ATOM     15  O   UNL     1      -3.745   4.245 -20.621  0.00  0.00    -0.491 OA
ATOM     16  C   UNL     1      -2.937   3.750 -19.729  0.00  0.00    +0.277 C 
ENDBRANCH   4  15
BRANCH   1  17
ATOM     17  C   UNL     1       0.097   4.114 -23.302  0.00  0.00    +0.094 C 
BRANCH  17  21
ATOM     18  C   UNL     1       2.290   1.199 -21.923  0.00  0.00    +0.120 A 
ATOM     19  C   UNL     1       2.855   2.245 -22.450  0.00  0.00    +0.046 A 
ATOM     20  C   UNL     1       2.124   3.216 -22.909  0.00  0.00    +0.007 A 
ATOM     21  C   UNL     1       0.828   3.143 -22.843  0.00  0.00    -0.041 A 
ATOM     22  C   UNL     1       0.263   2.096 -22.316  0.00  0.00    +0.007 A 
ATOM     23  C   UNL     1       0.994   1.125 -21.857  0.00  0.00    +0.046 A 
BRANCH  18  25
ATOM     24  C   UNL     1       4.211   0.472 -20.999  0.00  0.00    +0.277 C 
ATOM     25  O   UNL     1       3.022   0.228 -21.464  0.00  0.00    -0.495 OA
ENDBRANCH  18  25
ENDBRANCH  17  21
ENDBRANCH   1  17
TORSDOF 5
ENDMDL
