MODEL 1
REMARK VINA RESULT:    -9.639      0.000      0.000
REMARK INTER + INTRA:          -9.639
REMARK INTER:                  -9.639
REMARK INTRA:                   0.000
REMARK UNBOUND:                 0.000
REMARK  Name = C=C1C(=O)O[C@H]2[C@@H]3O[C@]3(C)CCC=C(C)CC[C@H]12                    ZINC000253986904
REMARK  2 active torsions:
REMARK  status: ('A' for Active; 'I' for Inactive)
REMARK    1  A    between atoms: C_9  and  C_10
REMARK    2  A    between atoms: C_14  and  C_15
REMARK                            x       y       z     vdW  Elec       q    Type
REMARK                         _______ _______ _______ _____ _____    ______ ____
ROOT
ATOM      1  C   UNL     1      -4.814   3.729 -25.017  0.00  0.00    +0.020 C 
ATOM      2  C   UNL     1      -3.528   3.441 -24.976  0.00  0.00    +0.036 C 
ATOM      3  C   UNL     1      -2.682   3.528 -25.980  0.00  0.00    +0.335 C 
ATOM      4  O   UNL     1      -1.494   3.158 -25.552  0.00  0.00    -0.455 OA
ATOM      5  C   UNL     1      -1.607   2.843 -24.276  0.00  0.00    +0.216 C 
ATOM      6  C   UNL     1      -0.472   2.416 -23.592  0.00  0.00    +0.192 C 
ATOM      7  O   UNL     1       0.717   2.044 -23.153  0.00  0.00    -0.361 OA
ATOM      8  C   UNL     1      -0.319   2.048 -22.334  0.00  0.00    +0.097 C 
ATOM      9  C   UNL     1      -1.522   2.124 -21.650  0.00  0.00    +0.041 C 
ATOM     10  C   UNL     1      -2.674   2.491 -22.096  0.00  0.00    +0.030 C 
ATOM     11  C   UNL     1      -3.814   2.509 -21.245  0.00  0.00    -0.028 C 
ATOM     12  C   UNL     1      -4.834   2.891 -21.855  0.00  0.00    -0.077 C 
ATOM     13  C   UNL     1      -4.543   3.101 -22.881  0.00  0.00    +0.031 C 
ATOM     14  C   UNL     1      -3.274   2.849 -22.958  0.00  0.00    +0.016 C 
ATOM     15  C   UNL     1      -6.049   3.025 -21.380  0.00  0.00    +0.039 C 
ATOM     16  C   UNL     1       0.377   1.621 -21.294  0.00  0.00    +0.044 C 
ATOM     17  O   UNL     1      -2.974   3.918 -27.208  0.00  0.00    -0.245 OA
ATOM     18  C   UNL     1      -2.860   3.017 -23.921  0.00  0.00    +0.069 C 
ENDROOT
TORSDOF 0
ENDMDL
