MODEL 1
REMARK VINA RESULT:   -11.320      0.000      0.000
REMARK INTER + INTRA:         -12.122
REMARK INTER:                 -12.003
REMARK INTRA:                  -0.120
REMARK UNBOUND:                -0.140
REMARK  Name = ZINC000096316377
REMARK  4 active torsions:
REMARK  status: ('A' for Active; 'I' for Inactive)
REMARK    1  A    between atoms: C_1  and  O_2
REMARK    2  A    between atoms: O_2  and  C_3
REMARK    3  A    between atoms: C_10  and  C_11
REMARK    4  A    between atoms: N_19  and  C_20
REMARK                            x       y       z     vdW  Elec       q    Type
REMARK                         _______ _______ _______ _____ _____    ______ ____
ROOT
ATOM      1  C   UNL     1       1.308   1.950 -22.741  0.00  0.00    +0.162 A 
ATOM      2  C   UNL     1       1.182   1.519 -21.557  0.00  0.00    +0.050 A 
ATOM      3  C   UNL     1       0.068   1.550 -20.986  0.00  0.00    +0.008 A 
ATOM      4  C   UNL     1      -0.931   2.011 -21.588  0.00  0.00    -0.034 A 
ATOM      5  C   UNL     1      -0.825   2.445 -22.767  0.00  0.00    +0.016 A 
ATOM      6  C   UNL     1      -1.822   2.904 -23.366  0.00  0.00    +0.074 C 
ATOM      7  C   UNL     1      -2.884   3.447 -24.143  0.00  0.00    +0.071 C 
ATOM      8  C   UNL     1      -4.152   3.495 -23.525  0.00  0.00    +0.133 C 
ATOM      9  N   UNL     1      -4.254   3.005 -22.205  0.00  0.00    +0.239 N 
ATOM     10  H   UNL     1      -5.149   3.019 -21.717  0.00  0.00    +0.204 HD
ATOM     11  C   UNL     1      -5.340   3.011 -21.586  0.00  0.00    +0.191 C 
ATOM     12  C   UNL     1      -3.059   2.504 -21.612  0.00  0.00    +0.096 C 
ATOM     13  C   UNL     1      -2.937   2.935 -22.796  0.00  0.00    -0.006 C 
ATOM     14  C   UNL     1      -3.944   3.400 -23.402  0.00  0.00    +0.025 C 
ATOM     15  C   UNL     1      -3.830   3.829 -24.573  0.00  0.00    +0.041 C 
ATOM     16 CL   UNL     1      -4.828   4.287 -25.169  0.00  0.00    -0.084 Cl
ATOM     17  C   UNL     1      -2.707   3.799 -25.154  0.00  0.00    +0.041 C 
ATOM     18  C   UNL     1      -1.708   3.340 -24.556  0.00  0.00    +0.141 C 
ATOM     19  C   UNL     1      -1.313   3.692 -25.691  0.00  0.00    +0.061 C 
ATOM     20  O   UNL     1      -0.233   3.027 -24.612  0.00  0.00    -0.477 OA
ATOM     21  C   UNL     1      -2.065   2.044 -21.010  0.00  0.00    +0.094 C 
ATOM     22  C   UNL     1       0.297   2.415 -23.347  0.00  0.00    +0.168 A 
ENDROOT
BRANCH   1  24
ATOM     23  C   UNL     1       3.086   0.856 -23.329  0.00  0.00    +0.277 C 
ATOM     24  O   UNL     1       2.423   1.917 -23.308  0.00  0.00    -0.491 OA
ENDBRANCH   1  24
TORSDOF 1
ENDMDL
