MODEL 1
REMARK VINA RESULT:    -9.658      0.000      0.000
REMARK INTER + INTRA:         -10.866
REMARK INTER:                 -10.786
REMARK INTRA:                  -0.080
REMARK UNBOUND:                -0.079
REMARK  Name = ZINC000003978794
REMARK  5 active torsions:
REMARK  status: ('A' for Active; 'I' for Inactive)
REMARK    1  A    between atoms: C_1  and  O_2
REMARK    2  A    between atoms: O_2  and  C_3
REMARK    3  A    between atoms: C_5  and  O_6
REMARK    4  A    between atoms: C_14  and  C_15
REMARK    5  A    between atoms: C_17  and  O_18
REMARK                            x       y       z     vdW  Elec       q    Type
REMARK                         _______ _______ _______ _____ _____    ______ ____
ROOT
ATOM      1  C   UNL     1       2.165   2.230 -22.996  0.00  0.00    +0.124 A 
ATOM      2  C   UNL     1       2.164   2.608 -24.240  0.00  0.00    +0.091 A 
ATOM      3  C   UNL     1       1.052   2.971 -24.807  0.00  0.00    +0.132 A 
ATOM      4  C   UNL     1      -0.059   2.956 -24.131  0.00  0.00    +0.075 A 
ATOM      5  C   UNL     1      -0.057   2.577 -22.888  0.00  0.00    +0.040 A 
ATOM      6  C   UNL     1      -1.167   2.561 -22.212  0.00  0.00    +0.195 C 
ATOM      7  C   UNL     1      -2.278   2.924 -22.779  0.00  0.00    +0.037 A 
ATOM      8  C   UNL     1      -3.389   2.908 -22.103  0.00  0.00    +0.016 A 
ATOM      9  C   UNL     1      -4.501   3.271 -22.671  0.00  0.00    -0.046 A 
ATOM     10  C   UNL     1      -4.502   3.650 -23.915  0.00  0.00    +0.049 A 
ATOM     11  C   UNL     1      -3.393   3.666 -24.591  0.00  0.00    +0.129 A 
ATOM     12  C   UNL     1      -5.611   3.255 -21.995  0.00  0.00    +0.044 C 
ATOM     13  C   UNL     1      -2.280   3.303 -24.023  0.00  0.00    +0.075 A 
ATOM     14  O   UNL     1      -1.165   2.182 -20.968  0.00  0.00    -0.287 OA
ATOM     15  C   UNL     1      -1.170   3.318 -24.699  0.00  0.00    +0.202 C 
ATOM     16  O   UNL     1      -1.172   3.697 -25.943  0.00  0.00    -0.286 OA
ATOM     17  C   UNL     1       1.055   2.214 -22.320  0.00  0.00    +0.058 A 
ENDROOT
BRANCH   1  19
ATOM     18  C   UNL     1       3.344   0.732 -21.798  0.00  0.00    +0.277 C 
ATOM     19  O   UNL     1       3.277   1.867 -22.428  0.00  0.00    -0.495 OA
ENDBRANCH   1  19
BRANCH  11  20
ATOM     20  O   UNL     1      -3.394   4.044 -25.834  0.00  0.00    -0.506 OA
ATOM     21  H   UNL     1      -3.185   4.930 -26.054  0.00  0.00    +0.292 HD
ENDBRANCH  11  20
BRANCH   3  22
ATOM     22  O   UNL     1       1.051   3.350 -26.051  0.00  0.00    -0.506 OA
ATOM     23  H   UNL     1       1.708   3.034 -26.638  0.00  0.00    +0.292 HD
ENDBRANCH   3  22
TORSDOF 3
ENDMDL
