MODEL 1
REMARK VINA RESULT:   -11.593      0.000      0.000
REMARK INTER + INTRA:         -13.310
REMARK INTER:                 -12.873
REMARK INTRA:                  -0.437
REMARK UNBOUND:                -0.362
REMARK  Name = ZINC000036020289
REMARK  4 active torsions:
REMARK  status: ('A' for Active; 'I' for Inactive)
REMARK    1  A    between atoms: C_1  and  C_2
REMARK    2  A    between atoms: C_7  and  C_8
REMARK    3  A    between atoms: C_12  and  C_13
REMARK    4  A    between atoms: C_13  and  N_14
REMARK                            x       y       z     vdW  Elec       q    Type
REMARK                         _______ _______ _______ _____ _____    ______ ____
ROOT
ATOM      1  C   UNL     1      -4.056   2.474 -20.508  0.00  0.00    +0.039 C 
ATOM      2  C   UNL     1      -4.333   2.908 -21.702  0.00  0.00    -0.067 C 
ATOM      3  C   UNL     1      -5.496   3.318 -22.115  0.00  0.00    -0.024 C 
ATOM      4  C   UNL     1      -5.379   3.672 -23.360  0.00  0.00    +0.065 C 
ATOM      5  C   UNL     1      -4.143   3.481 -23.716  0.00  0.00    +0.112 C 
ATOM      6  O   UNL     1      -4.944   3.955 -24.624  0.00  0.00    -0.360 OA
ATOM      7  C   UNL     1      -3.694   3.739 -24.909  0.00  0.00    +0.097 C 
ATOM      8  C   UNL     1      -2.488   3.587 -25.371  0.00  0.00    +0.038 C 
ATOM      9  C   UNL     1      -1.435   3.142 -24.756  0.00  0.00    +0.011 C 
ATOM     10  C   UNL     1      -1.324   2.737 -23.525  0.00  0.00    +0.049 C 
ATOM     11  C   UNL     1      -0.212   2.308 -23.009  0.00  0.00    +0.149 C 
ATOM     12  C   UNL     1      -0.442   1.983 -21.771  0.00  0.00    +0.316 C 
ATOM     13  O   UNL     1      -1.697   2.212 -21.523  0.00  0.00    -0.460 OA
ATOM     14  O   UNL     1       0.431   1.512 -20.930  0.00  0.00    -0.250 OA
ATOM     15  C   UNL     1      -2.243   2.678 -22.607  0.00  0.00    +0.190 C 
ATOM     16  C   UNL     1      -3.991   4.176 -26.097  0.00  0.00    +0.044 C 
ATOM     17  C   UNL     1      -3.497   3.009 -22.691  0.00  0.00    +0.090 C 
ENDROOT
BRANCH  11  18
ATOM     18  C   UNL     1       0.931   2.218 -23.623  0.00  0.00    +0.146 C 
BRANCH  18  19
ATOM     19  N   UNL     1       1.861   3.099 -23.398  0.00  0.00    +0.236 N 
ATOM     20  H   UNL     1       2.825   3.323 -23.154  0.00  0.00    +0.203 HD
ATOM     21  C   UNL     1       3.061   2.711 -23.083  0.00  0.00    +0.131 C 
ATOM     22  C   UNL     1       3.990   3.591 -22.859  0.00  0.00    +0.051 C 
ATOM     23  C   UNL     1       3.720   4.860 -22.949  0.00  0.00    +0.010 C 
ATOM     24  C   UNL     1       2.519   5.248 -23.263  0.00  0.00    +0.051 C 
ATOM     25  C   UNL     1       1.590   4.367 -23.488  0.00  0.00    +0.131 C 
ENDBRANCH  18  19
ENDBRANCH  11  18
TORSDOF 2
ENDMDL
