MODEL 1
REMARK VINA RESULT:    -6.473      0.000      0.000
REMARK INTER + INTRA:          -6.473
REMARK INTER:                  -6.473
REMARK INTRA:                   0.000
REMARK UNBOUND:                 0.000
REMARK  Name = ZINC000005037440
REMARK  1 active torsions:
REMARK  status: ('A' for Active; 'I' for Inactive)
REMARK    1  A    between atoms: C_1  and  C_2
REMARK                            x       y       z     vdW  Elec       q    Type
REMARK                         _______ _______ _______ _____ _____    ______ ____
ROOT
ATOM      1  C   UNL     1       0.130   2.998 -24.062  0.00  0.00    +0.086 C 
ATOM      2  C   UNL     1      -1.142   3.175 -23.859  0.00  0.00    +0.107 A 
ATOM      3  N   UNL     1      -1.818   2.751 -22.833  0.00  0.00    -0.215 NA
ATOM      4  C   UNL     1      -3.055   3.121 -22.987  0.00  0.00    +0.166 A 
ATOM      5  N   UNL     1      -4.112   2.948 -22.251  0.00  0.00    -0.291 N 
ATOM      6  H   UNL     1      -4.046   2.454 -21.403  0.00  0.00    +0.172 HD
ATOM      7  C   UNL     1      -5.258   3.429 -22.637  0.00  0.00    +0.328 A 
ATOM      8  N   UNL     1      -5.345   4.081 -23.757  0.00  0.00    -0.273 N 
ATOM      9  H   UNL     1      -6.212   4.445 -24.049  0.00  0.00    +0.173 HD
ATOM     10  C   UNL     1      -4.287   4.254 -24.493  0.00  0.00    +0.280 A 
ATOM     11  O   UNL     1      -4.375   4.907 -25.613  0.00  0.00    -0.265 OA
ATOM     12  O   UNL     1      -6.315   3.256 -21.901  0.00  0.00    -0.247 OA
ATOM     13  C   UNL     1      -3.143   3.774 -24.108  0.00  0.00    +0.149 A 
ATOM     14  N   UNL     1      -1.960   3.807 -24.647  0.00  0.00    -0.337 N 
ATOM     15  H   UNL     1      -1.725   4.236 -25.502  0.00  0.00    +0.167 HD
ENDROOT
TORSDOF 0
ENDMDL
