MODEL 1
REMARK VINA RESULT:    -9.499      0.000      0.000
REMARK INTER + INTRA:         -12.332
REMARK INTER:                 -11.769
REMARK INTRA:                  -0.563
REMARK UNBOUND:                -0.611
REMARK  Name = ZINC000013425023
REMARK  4 active torsions:
REMARK  status: ('A' for Active; 'I' for Inactive)
REMARK    1  A    between atoms: C_2  and  O_3
REMARK    2  A    between atoms: C_2  and  C_15
REMARK    3  A    between atoms: O_3  and  C_4
REMARK    4  A    between atoms: C_4  and  C_5
REMARK                            x       y       z     vdW  Elec       q    Type
REMARK                         _______ _______ _______ _____ _____    ______ ____
ROOT
ATOM      1  C   UNL     1      -1.136   2.378 -23.343  0.00  0.00    +0.241 C 
ENDROOT
BRANCH   1   2
ATOM      2  C   UNL     1      -2.162   2.906 -23.943  0.00  0.00    +0.075 C 
ATOM      3  C   UNL     1      -2.060   3.302 -25.177  0.00  0.00    +0.017 C 
ATOM      4  C   UNL     1      -3.086   3.830 -25.776  0.00  0.00    +0.051 C 
ATOM      5  C   UNL     1      -4.213   3.961 -25.141  0.00  0.00    +0.131 C 
ATOM      6  N   UNL     1      -4.315   3.565 -23.907  0.00  0.00    +0.238 N 
ATOM      7  H   UNL     1      -5.289   3.863 -23.889  0.00  0.00    +0.204 HD
ATOM      8  C   UNL     1      -5.441   3.697 -23.273  0.00  0.00    +0.131 C 
ATOM      9  C   UNL     1      -5.543   3.300 -22.038  0.00  0.00    +0.051 C 
ATOM     10  C   UNL     1      -4.516   2.772 -21.440  0.00  0.00    +0.011 C 
ATOM     11  C   UNL     1      -3.390   2.641 -22.074  0.00  0.00    +0.055 C 
ATOM     12  C   UNL     1      -3.289   3.037 -23.308  0.00  0.00    +0.071 C 
ENDBRANCH   1   2
BRANCH   1  13
ATOM     13  O   UNL     1       0.019   2.346 -23.939  0.00  0.00    -0.461 OA
BRANCH  13  15
ATOM     14  O   UNL     1       1.271   1.062 -22.577  0.00  0.00    -0.245 OA
ATOM     15  C   UNL     1       1.104   2.164 -23.244  0.00  0.00    +0.339 C 
BRANCH  15  16
ATOM     16  C   UNL     1       2.019   3.086 -23.218  0.00  0.00    +0.060 A 
ATOM     17  C   UNL     1       1.679   4.340 -23.209  0.00  0.00    +0.015 A 
ATOM     18  C   UNL     1       2.596   5.263 -23.183  0.00  0.00    +0.002 A 
ATOM     19  C   UNL     1       3.853   4.929 -23.165  0.00  0.00    +0.015 A 
ATOM     20  C   UNL     1       4.192   3.674 -23.173  0.00  0.00    +0.019 A 
ATOM     21 BR   UNL     1       5.449   3.341 -23.155  0.00  0.00    -0.050 Br
ATOM     22  C   UNL     1       3.277   2.753 -23.200  0.00  0.00    +0.030 A 
ENDBRANCH  15  16
ENDBRANCH  13  15
ENDBRANCH   1  13
TORSDOF 4
ENDMDL
