MODEL 1
REMARK VINA RESULT:    -7.167      0.000      0.000
REMARK INTER + INTRA:          -7.755
REMARK INTER:                  -9.491
REMARK INTRA:                   1.735
REMARK UNBOUND:                 1.507
REMARK  Name = ZINC000003201463
REMARK  9 active torsions:
REMARK  status: ('A' for Active; 'I' for Inactive)
REMARK    1  A    between atoms: C_1  and  C_2
REMARK    2  A    between atoms: C_2  and  C_3
REMARK    3  A    between atoms: C_2  and  C_4
REMARK    4  A    between atoms: C_4  and  C_5
REMARK    5  A    between atoms: C_5  and  C_6
REMARK    6  A    between atoms: C_5  and  N_9
REMARK    7  A    between atoms: N_9  and  C_10
REMARK    8  A    between atoms: N_9  and  C_11
REMARK    9  A    between atoms: C_11  and  C_12
REMARK                            x       y       z     vdW  Elec       q    Type
REMARK                         _______ _______ _______ _____ _____    ______ ____
ROOT
ATOM      1  N   UNL     1      -1.472   3.168 -23.469  0.00  0.00    +0.243 N 
ATOM      2  H   UNL     1      -0.634   2.641 -23.715  0.00  0.00    +0.204 HD
ATOM      3  C   UNL     1      -1.816   2.346 -24.416  0.00  0.00    +0.191 C 
ENDROOT
BRANCH   1   4
ATOM      4  C   UNL     1      -0.247   3.184 -23.035  0.00  0.00    +0.111 C 
BRANCH   4   5
ATOM      5  C   UNL     1       0.256   2.127 -22.470  0.00  0.00    +0.089 C 
ATOM      6  O   UNL     1      -0.023   1.858 -21.229  0.00  0.00    -0.544 OA
ATOM      7  O   UNL     1       1.038   1.338 -23.146  0.00  0.00    -0.544 OA
ENDBRANCH   4   5
BRANCH   4   8
ATOM      8  C   UNL     1       0.476   4.257 -23.165  0.00  0.00    +0.063 C 
BRANCH   8  10
ATOM      9  C   UNL     1       2.676   4.411 -23.617  0.00  0.00    +0.007 C 
ATOM     10  C   UNL     1       1.449   4.285 -24.026  0.00  0.00    -0.012 C 
ATOM     11  C   UNL     1       1.194   4.187 -25.297  0.00  0.00    +0.007 C 
ENDBRANCH   8  10
ENDBRANCH   4   8
ENDBRANCH   1   4
BRANCH   1  12
ATOM     12  C   UNL     1      -2.354   3.974 -22.956  0.00  0.00    +0.168 C 
BRANCH  12  13
ATOM     13  C   UNL     1      -3.450   3.498 -22.446  0.00  0.00    -0.003 A 
ATOM     14  C   UNL     1      -4.597   3.779 -22.990  0.00  0.00    +0.009 A 
ATOM     15  C   UNL     1      -5.693   3.303 -22.479  0.00  0.00    +0.000 A 
ATOM     16  C   UNL     1      -5.643   2.546 -21.423  0.00  0.00    +0.000 A 
ATOM     17  C   UNL     1      -4.497   2.265 -20.878  0.00  0.00    +0.000 A 
ATOM     18  C   UNL     1      -3.400   2.742 -21.390  0.00  0.00    +0.009 A 
ENDBRANCH  12  13
ENDBRANCH   1  12
TORSDOF 6
ENDMDL
