MODEL 1
REMARK VINA RESULT:    -9.762      0.000      0.000
REMARK INTER + INTRA:          -9.762
REMARK INTER:                  -9.762
REMARK INTRA:                   0.000
REMARK UNBOUND:                 0.000
REMARK  Name = ZINC000001531790
REMARK  2 active torsions:
REMARK  status: ('A' for Active; 'I' for Inactive)
REMARK    1  A    between atoms: C_1  and  C_2
REMARK    2  A    between atoms: C_2  and  C_3
REMARK                            x       y       z     vdW  Elec       q    Type
REMARK                         _______ _______ _______ _____ _____    ______ ____
ROOT
ATOM      1  C   UNL     1       0.126   1.509 -20.973  0.00  0.00    +0.055 C 
ATOM      2  C   UNL     1       0.203   1.927 -22.202  0.00  0.00    +0.105 C 
ATOM      3  C   UNL     1       0.709   2.217 -23.364  0.00  0.00    +0.052 C 
ATOM      4  C   UNL     1      -0.045   2.729 -24.290  0.00  0.00    +0.042 C 
ATOM      5  C   UNL     1      -1.304   2.951 -24.056  0.00  0.00    -0.014 C 
ATOM      6  C   UNL     1      -1.810   2.660 -22.894  0.00  0.00    +0.131 C 
ATOM      7  C   UNL     1      -3.069   2.882 -22.659  0.00  0.00    +0.028 A 
ATOM      8  C   UNL     1      -3.574   2.592 -21.497  0.00  0.00    +0.012 A 
ATOM      9  C   UNL     1      -4.834   2.813 -21.262  0.00  0.00    +0.001 A 
ATOM     10  C   UNL     1      -5.587   3.325 -22.189  0.00  0.00    +0.001 A 
ATOM     11  C   UNL     1      -5.082   3.616 -23.352  0.00  0.00    +0.012 A 
ATOM     12  C   UNL     1      -3.823   3.394 -23.587  0.00  0.00    +0.031 A 
ATOM     13  C   UNL     1      -3.317   3.684 -24.748  0.00  0.00    +0.174 C 
ATOM     14  O   UNL     1      -4.072   4.197 -25.675  0.00  0.00    -0.288 OA
ATOM     15  C   UNL     1      -2.058   3.463 -24.983  0.00  0.00    -0.085 C 
ATOM     16  O   UNL     1      -1.552   3.753 -26.145  0.00  0.00    -0.826 OA
ATOM     17  C   UNL     1       1.436   1.560 -22.010  0.00  0.00    +0.055 C 
ATOM     18  O   UNL     1      -1.056   2.148 -21.967  0.00  0.00    -0.485 OA
ENDROOT
TORSDOF 0
ENDMDL
