MODEL 1
REMARK VINA RESULT:   -10.993      0.000      0.000
REMARK INTER + INTRA:         -10.993
REMARK INTER:                 -10.993
REMARK INTRA:                   0.000
REMARK UNBOUND:                 0.000
REMARK  Name = ZINC000071325824
REMARK  3 active torsions:
REMARK  status: ('A' for Active; 'I' for Inactive)
REMARK    1  A    between atoms: C_1  and  C_2
REMARK    2  A    between atoms: C_16  and  C_17
REMARK    3  A    between atoms: C_16  and  C_18
REMARK                            x       y       z     vdW  Elec       q    Type
REMARK                         _______ _______ _______ _____ _____    ______ ____
ROOT
ATOM      1  C   UNL     1       0.667   3.753 -25.495  0.00  0.00    +0.047 C 
ATOM      2  C   UNL     1      -0.056   3.357 -24.490  0.00  0.00    -0.008 A 
ATOM      3  C   UNL     1      -1.335   3.591 -24.477  0.00  0.00    +0.017 A 
ATOM      4  C   UNL     1      -2.058   3.195 -23.473  0.00  0.00    +0.008 A 
ATOM      5  C   UNL     1      -1.503   2.564 -22.481  0.00  0.00    +0.054 A 
ATOM      6  C   UNL     1      -0.224   2.330 -22.494  0.00  0.00    +0.019 A 
ATOM      7  C   UNL     1       0.331   1.699 -21.501  0.00  0.00    +0.045 C 
ATOM      8  C   UNL     1       1.610   1.465 -21.515  0.00  0.00    +0.052 C 
ATOM      9  C   UNL     1       2.333   1.862 -22.520  0.00  0.00    +0.105 C 
ATOM     10  C   UNL     1       3.375   2.063 -23.270  0.00  0.00    +0.055 C 
ATOM     11  C   UNL     1       3.250   1.301 -21.789  0.00  0.00    +0.055 C 
ATOM     12  O   UNL     1       1.778   2.492 -23.511  0.00  0.00    -0.486 OA
ATOM     13  N   UNL     1      -2.430   2.280 -21.615  0.00  0.00    -0.354 N 
ATOM     14  H   UNL     1      -2.301   1.804 -20.763  0.00  0.00    +0.166 HD
ATOM     15  C   UNL     1      -3.560   2.735 -22.072  0.00  0.00    +0.047 A 
ATOM     16  C   UNL     1      -4.767   2.708 -21.592  0.00  0.00    +0.026 A 
ATOM     17  C   UNL     1      -5.744   3.246 -22.259  0.00  0.00    +0.002 A 
ATOM     18  C   UNL     1      -5.514   3.811 -23.406  0.00  0.00    +0.001 A 
ATOM     19  C   UNL     1      -4.307   3.838 -23.887  0.00  0.00    +0.010 A 
ATOM     20  C   UNL     1      -3.330   3.300 -23.220  0.00  0.00    +0.007 A 
ATOM     21  C   UNL     1       0.499   2.727 -23.499  0.00  0.00    +0.129 A 
ENDROOT
TORSDOF 0
ENDMDL
