MODEL 1
REMARK VINA RESULT:   -10.998      0.000      0.000
REMARK INTER + INTRA:          -9.269
REMARK INTER:                 -12.940
REMARK INTRA:                   3.670
REMARK UNBOUND:                 3.658
REMARK  Name = COc1ccc2c3c1OC1=C[C@H](C(C)(C)O)C=C4[C@H](C2)N(C)CC[C@]143           ZINC000100393818
REMARK  7 active torsions:
REMARK  status: ('A' for Active; 'I' for Inactive)
REMARK    1  A    between atoms: C_1  and  O_2
REMARK    2  A    between atoms: O_2  and  C_3
REMARK    3  A    between atoms: C_12  and  C_13
REMARK    4  A    between atoms: C_13  and  C_14
REMARK    5  A    between atoms: C_13  and  C_15
REMARK    6  A    between atoms: C_13  and  O_16
REMARK    7  A    between atoms: N_21  and  C_22
REMARK                            x       y       z     vdW  Elec       q    Type
REMARK                         _______ _______ _______ _____ _____    ______ ____
ROOT
ATOM      1  C   UNL     1      -4.525   3.396 -22.424  0.00  0.00    +0.162 A 
ATOM      2  C   UNL     1      -4.790   3.908 -23.554  0.00  0.00    +0.050 A 
ATOM      3  C   UNL     1      -3.903   3.998 -24.436  0.00  0.00    +0.008 A 
ATOM      4  C   UNL     1      -2.743   3.577 -24.197  0.00  0.00    -0.034 A 
ATOM      5  C   UNL     1      -2.457   3.064 -23.080  0.00  0.00    +0.020 A 
ATOM      6  C   UNL     1      -1.299   2.647 -22.849  0.00  0.00    +0.088 C 
ATOM      7  C   UNL     1      -0.018   2.137 -22.468  0.00  0.00    +0.075 C 
ATOM      8  C   UNL     1       1.005   2.225 -23.442  0.00  0.00    +0.133 C 
ATOM      9  N   UNL     1       0.672   2.802 -24.690  0.00  0.00    +0.239 N 
ATOM     10  H   UNL     1       1.371   2.889 -25.428  0.00  0.00    +0.204 HD
ATOM     11  C   UNL     1       1.519   2.917 -25.608  0.00  0.00    +0.191 C 
ATOM     12  C   UNL     1      -0.676   3.248 -24.857  0.00  0.00    +0.096 C 
ATOM     13  C   UNL     1      -0.407   2.735 -23.729  0.00  0.00    -0.007 C 
ATOM     14  C   UNL     1       0.763   2.312 -23.490  0.00  0.00    -0.011 C 
ATOM     15  C   UNL     1       1.034   1.804 -22.374  0.00  0.00    +0.069 C 
ATOM     16  C   UNL     1       0.139   1.711 -21.481  0.00  0.00    +0.026 C 
ATOM     17  C   UNL     1      -1.020   2.129 -21.713  0.00  0.00    +0.117 C 
ATOM     18  O   UNL     1      -2.426   2.326 -21.194  0.00  0.00    -0.455 OA
ATOM     19  C   UNL     1      -1.834   3.667 -25.093  0.00  0.00    +0.094 C 
ATOM     20  C   UNL     1      -3.351   2.973 -22.188  0.00  0.00    +0.174 A 
ENDROOT
BRANCH  15  21
ATOM     21  C   UNL     1       2.196   1.385 -22.142  0.00  0.00    +0.070 C 
ATOM     22  C   UNL     1       3.002   2.095 -21.494  0.00  0.00    +0.042 C 
ATOM     23  C   UNL     1       3.071   0.491 -22.249  0.00  0.00    +0.042 C 
BRANCH  21  24
ATOM     24  O   UNL     1       1.937   0.322 -22.757  0.00  0.00    -0.388 OA
ATOM     25  H   UNL     1       1.464   0.530 -23.577  0.00  0.00    +0.210 HD
ENDBRANCH  21  24
ENDBRANCH  15  21
BRANCH   1  27
ATOM     26  C   UNL     1      -6.453   2.638 -21.766  0.00  0.00    +0.277 C 
ATOM     27  O   UNL     1      -5.416   3.308 -21.545  0.00  0.00    -0.491 OA
ENDBRANCH   1  27
TORSDOF 3
ENDMDL
