MODEL 1
REMARK VINA RESULT:   -11.049      0.000      0.000
REMARK INTER + INTRA:         -11.824
REMARK INTER:                 -11.695
REMARK INTRA:                  -0.129
REMARK UNBOUND:                -0.128
REMARK  Name = ZINC000096316327
REMARK  2 active torsions:
REMARK  status: ('A' for Active; 'I' for Inactive)
REMARK    1  A    between atoms: C_1  and  O_2
REMARK    2  A    between atoms: O_2  and  C_3
REMARK                            x       y       z     vdW  Elec       q    Type
REMARK                         _______ _______ _______ _____ _____    ______ ____
ROOT
ATOM      1  C   UNL     1      -0.004   2.873 -23.869  0.00  0.00    +0.162 A 
ATOM      2  C   UNL     1      -0.108   3.361 -25.025  0.00  0.00    +0.050 A 
ATOM      3  C   UNL     1      -1.212   3.759 -25.443  0.00  0.00    +0.008 A 
ATOM      4  C   UNL     1      -2.220   3.675 -24.716  0.00  0.00    -0.034 A 
ATOM      5  C   UNL     1      -2.137   3.193 -23.563  0.00  0.00    +0.016 A 
ATOM      6  C   UNL     1      -3.145   3.110 -22.836  0.00  0.00    +0.071 C 
ATOM      7  C   UNL     1      -4.221   2.966 -21.925  0.00  0.00    +0.071 C 
ATOM      8  C   UNL     1      -5.478   3.406 -22.369  0.00  0.00    +0.131 C 
ATOM      9  N   UNL     1      -5.555   3.944 -23.663  0.00  0.00    +0.233 N 
ATOM     10  H   UNL     1      -5.826   4.918 -23.530  0.00  0.00    +0.202 HD
ATOM     11  H   UNL     1      -6.222   3.381 -24.192  0.00  0.00    +0.202 HD
ATOM     12  C   UNL     1      -4.352   3.995 -24.410  0.00  0.00    +0.095 C 
ATOM     13  C   UNL     1      -4.249   3.508 -23.255  0.00  0.00    -0.007 C 
ATOM     14  C   UNL     1      -5.269   3.423 -22.519  0.00  0.00    +0.006 C 
ATOM     15  C   UNL     1      -5.175   2.942 -21.375  0.00  0.00    -0.000 C 
ATOM     16  C   UNL     1      -4.062   2.538 -20.945  0.00  0.00    +0.018 C 
ATOM     17  C   UNL     1      -3.054   2.621 -21.672  0.00  0.00    +0.212 C 
ATOM     18  O   UNL     1      -1.577   2.372 -21.813  0.00  0.00    -0.480 OA
ATOM     19  C   UNL     1      -3.345   4.079 -25.137  0.00  0.00    +0.094 C 
ATOM     20  C   UNL     1      -1.025   2.789 -23.134  0.00  0.00    +0.167 A 
ENDROOT
BRANCH   1  22
ATOM     21  C   UNL     1       2.026   3.291 -23.232  0.00  0.00    +0.277 C 
ATOM     22  O   UNL     1       1.111   2.473 -23.449  0.00  0.00    -0.491 OA
ENDBRANCH   1  22
TORSDOF 1
ENDMDL
