MODEL 1
REMARK VINA RESULT:   -10.467      0.000      0.000
REMARK INTER + INTRA:          -7.135
REMARK INTER:                 -10.403
REMARK INTRA:                   3.268
REMARK UNBOUND:                 3.944
REMARK  Name = ZINC000071404289
REMARK  5 active torsions:
REMARK  status: ('A' for Active; 'I' for Inactive)
REMARK    1  A    between atoms: C_1  and  C_2
REMARK    2  A    between atoms: C_2  and  O_4
REMARK    3  A    between atoms: O_4  and  C_5
REMARK    4  A    between atoms: C_9  and  C_10
REMARK    5  A    between atoms: C_19  and  C_20
REMARK                            x       y       z     vdW  Elec       q    Type
REMARK                         _______ _______ _______ _____ _____    ______ ____
ROOT
ATOM      1  C   UNL     1      -3.442   3.208 -23.093  0.00  0.00    +0.276 C 
ATOM      2  C   UNL     1      -2.130   2.954 -22.830  0.00  0.00    +0.155 A 
ATOM      3  O   UNL     1      -1.401   2.724 -21.801  0.00  0.00    -0.463 OA
ATOM      4  C   UNL     1      -0.197   2.557 -22.205  0.00  0.00    +0.199 A 
ATOM      5  C   UNL     1      -0.181   2.683 -23.479  0.00  0.00    -0.005 A 
ATOM      6  C   UNL     1       0.843   2.583 -24.242  0.00  0.00    +0.047 C 
ATOM      7  C   UNL     1      -1.378   2.928 -23.862  0.00  0.00    +0.044 A 
ATOM      8  C   UNL     1      -1.930   3.135 -24.962  0.00  0.00    +0.234 C 
ATOM      9  C   UNL     1      -3.170   3.325 -24.721  0.00  0.00    +0.032 C 
ATOM     10  C   UNL     1      -3.761   3.540 -25.831  0.00  0.00    +0.037 C 
ATOM     11  C   UNL     1      -2.885   3.483 -26.771  0.00  0.00    +0.336 C 
ATOM     12  O   UNL     1      -3.106   3.648 -28.021  0.00  0.00    -0.245 OA
ATOM     13  C   UNL     1      -4.982   3.739 -25.714  0.00  0.00    +0.045 C 
ATOM     14  C   UNL     1      -5.746   3.746 -24.473  0.00  0.00    +0.039 C 
ATOM     15  C   UNL     1      -5.555   3.561 -22.968  0.00  0.00    +0.155 C 
ATOM     16  O   UNL     1      -5.636   3.446 -21.695  0.00  0.00    -0.361 OA
ATOM     17  O   UNL     1      -1.751   3.232 -26.230  0.00  0.00    -0.449 OA
ATOM     18  C   UNL     1      -4.502   3.309 -22.278  0.00  0.00    +0.137 C 
ATOM     19  C   UNL     1      -4.147   3.161 -21.421  0.00  0.00    +0.048 C 
ENDROOT
BRANCH   1  20
ATOM     20  O   UNL     1      -2.931   2.973 -21.641  0.00  0.00    -0.451 OA
BRANCH  20  22
ATOM     21  C   UNL     1      -3.105   3.675 -19.498  0.00  0.00    +0.136 C 
ATOM     22  C   UNL     1      -2.750   3.919 -20.721  0.00  0.00    +0.305 C 
ATOM     23  O   UNL     1      -2.235   5.059 -21.008  0.00  0.00    -0.251 OA
ENDBRANCH  20  22
ENDBRANCH   1  20
TORSDOF 2
ENDMDL
