MODEL 1
REMARK VINA RESULT:    -7.924      0.000      0.000
REMARK INTER + INTRA:          -9.407
REMARK INTER:                  -9.768
REMARK INTRA:                   0.361
REMARK UNBOUND:                -0.093
REMARK  Name = ZINC000000338392
REMARK  5 active torsions:
REMARK  status: ('A' for Active; 'I' for Inactive)
REMARK    1  A    between atoms: C_1  and  O_2
REMARK    2  A    between atoms: O_2  and  C_3
REMARK    3  A    between atoms: C_8  and  O_9
REMARK    4  A    between atoms: O_9  and  C_10
REMARK    5  A    between atoms: C_11  and  C_12
REMARK                            x       y       z     vdW  Elec       q    Type
REMARK                         _______ _______ _______ _____ _____    ______ ____
ROOT
ATOM      1  C   UNL     1       1.059   2.893 -24.554  0.00  0.00    +0.162 A 
ATOM      2  C   UNL     1       0.173   3.187 -25.458  0.00  0.00    +0.054 A 
ATOM      3  C   UNL     1      -1.067   3.380 -25.116  0.00  0.00    -0.024 A 
ATOM      4  C   UNL     1      -1.419   3.279 -23.868  0.00  0.00    +0.055 A 
ATOM      5  C   UNL     1      -2.658   3.472 -23.526  0.00  0.00    +0.228 C 
ATOM      6  N   UNL     1      -3.544   3.765 -24.430  0.00  0.00    -0.202 N 
ATOM      7  C   UNL     1      -3.191   3.866 -25.677  0.00  0.00    +0.369 C 
ATOM      8  O   UNL     1      -4.784   3.958 -24.088  0.00  0.00    -0.624 OA
ATOM      9  C   UNL     1      -0.532   2.986 -22.964  0.00  0.00    +0.064 A 
ATOM     10  C   UNL     1      -1.953   3.673 -26.020  0.00  0.00    +0.109 C 
ATOM     11  C   UNL     1       0.707   2.793 -23.306  0.00  0.00    +0.162 A 
ENDROOT
BRANCH   5  12
ATOM     12  C   UNL     1      -3.011   3.371 -22.278  0.00  0.00    +0.048 A 
ATOM     13  C   UNL     1      -2.611   4.258 -21.417  0.00  0.00    +0.014 A 
ATOM     14  C   UNL     1      -2.964   4.157 -20.168  0.00  0.00    +0.001 A 
ATOM     15  C   UNL     1      -3.716   3.170 -19.784  0.00  0.00    +0.000 A 
ATOM     16  C   UNL     1      -4.115   2.283 -20.646  0.00  0.00    +0.001 A 
ATOM     17  C   UNL     1      -3.763   2.384 -21.893  0.00  0.00    +0.014 A 
ENDBRANCH   5  12
BRANCH   1  19
ATOM     18  C   UNL     1       2.733   1.495 -25.110  0.00  0.00    +0.277 C 
ATOM     19  O   UNL     1       2.298   2.701 -24.896  0.00  0.00    -0.491 OA
ENDBRANCH   1  19
BRANCH  11  20
ATOM     20  O   UNL     1       1.593   2.499 -22.402  0.00  0.00    -0.491 OA
ATOM     21  C   UNL     1       1.383   1.511 -21.583  0.00  0.00    +0.277 C 
ENDBRANCH  11  20
TORSDOF 3
ENDMDL
