MODEL 1
REMARK VINA RESULT:    -8.485      0.000      0.000
REMARK INTER + INTRA:          -9.149
REMARK INTER:                 -11.187
REMARK INTRA:                   2.038
REMARK UNBOUND:                 1.815
REMARK  Name = ZINC000000345846
REMARK  10 active torsions:
REMARK  status: ('A' for Active; 'I' for Inactive)
REMARK    1  A    between atoms: C_1  and  O_2
REMARK    2  A    between atoms: O_2  and  C_3
REMARK    3  A    between atoms: C_6  and  C_7
REMARK    4  A    between atoms: C_7  and  C_8
REMARK    5  A    between atoms: C_11  and  O_12
REMARK    6  A    between atoms: C_13  and  O_14
REMARK    7  A    between atoms: O_14  and  C_15
REMARK    8  A    between atoms: N_20  and  C_21
REMARK    9  A    between atoms: N_20  and  C_22
REMARK   10  A    between atoms: C_24  and  O_25
REMARK                            x       y       z     vdW  Elec       q    Type
REMARK                         _______ _______ _______ _____ _____    ______ ____
ROOT
ATOM      1  C   UNL     1       0.841   3.447 -23.506  0.00  0.00    +0.102 C 
ATOM      2  C   UNL     1       1.517   2.552 -22.849  0.00  0.00    +0.008 A 
ATOM      3  C   UNL     1       1.388   2.459 -21.558  0.00  0.00    +0.058 A 
ATOM      4  C   UNL     1       2.063   1.564 -20.901  0.00  0.00    +0.159 A 
ATOM      5  C   UNL     1       2.867   0.761 -21.533  0.00  0.00    +0.162 A 
ATOM      6  C   UNL     1       2.996   0.854 -22.824  0.00  0.00    +0.053 A 
ATOM      7  C   UNL     1       2.320   1.749 -23.481  0.00  0.00    -0.030 A 
ATOM      8  C   UNL     1       2.449   1.842 -24.771  0.00  0.00    +0.086 C 
ATOM      9  C   UNL     1       1.773   2.737 -25.430  0.00  0.00    +0.138 C 
ATOM     10  N   UNL     1       0.969   3.540 -24.797  0.00  0.00    +0.245 N 
ATOM     11  C   UNL     1       0.107   4.488 -24.586  0.00  0.00    +0.193 C 
ATOM     12  C   UNL     1       0.798   3.962 -26.014  0.00  0.00    +0.193 C 
ENDROOT
BRANCH   5  13
ATOM     13  O   UNL     1       3.543  -0.134 -20.876  0.00  0.00    -0.491 OA
ATOM     14  C   UNL     1       4.814   0.036 -20.663  0.00  0.00    +0.277 C 
ENDBRANCH   5  13
BRANCH   4  15
ATOM     15  O   UNL     1       1.935   1.471 -19.610  0.00  0.00    -0.503 OA
ATOM     16  H   UNL     1       1.090   1.560 -19.216  0.00  0.00    +0.292 HD
ENDBRANCH   4  15
BRANCH   1  17
ATOM     17  C   UNL     1       0.037   4.249 -22.874  0.00  0.00    +0.094 C 
BRANCH  17  21
ATOM     18  C   UNL     1      -3.502   3.017 -21.795  0.00  0.00    +0.161 A 
ATOM     19  C   UNL     1      -3.011   2.660 -22.945  0.00  0.00    +0.049 A 
ATOM     20  C   UNL     1      -1.831   3.070 -23.304  0.00  0.00    +0.007 A 
ATOM     21  C   UNL     1      -1.142   3.839 -22.514  0.00  0.00    -0.038 A 
ATOM     22  C   UNL     1      -1.633   4.197 -21.365  0.00  0.00    +0.053 A 
ATOM     23  C   UNL     1      -2.812   3.787 -21.004  0.00  0.00    +0.159 A 
BRANCH  18  25
ATOM     24  C   UNL     1      -5.742   3.075 -22.025  0.00  0.00    +0.277 C 
ATOM     25  O   UNL     1      -4.682   2.607 -21.435  0.00  0.00    -0.491 OA
ENDBRANCH  18  25
BRANCH  23  26
ATOM     26  O   UNL     1      -3.303   4.145 -19.855  0.00  0.00    -0.503 OA
ATOM     27  H   UNL     1      -4.080   4.666 -19.820  0.00  0.00    +0.292 HD
ENDBRANCH  23  26
ENDBRANCH  17  21
ENDBRANCH   1  17
TORSDOF 6
ENDMDL
