MODEL 1
REMARK VINA RESULT:   -10.361      0.000      0.000
REMARK INTER + INTRA:         -10.361
REMARK INTER:                 -10.361
REMARK INTRA:                   0.000
REMARK UNBOUND:                 0.000
REMARK  Name = C=C1C(=O)O[C@@H]2[C@@H]1CCC(C)=CCC[C@]1(C)O[C@H]21                   ZINC000253986898
REMARK  2 active torsions:
REMARK  status: ('A' for Active; 'I' for Inactive)
REMARK    1  A    between atoms: C_10  and  C_11
REMARK    2  A    between atoms: C_15  and  C_16
REMARK                            x       y       z     vdW  Elec       q    Type
REMARK                         _______ _______ _______ _____ _____    ______ ____
ROOT
ATOM      1  C   UNL     1       0.241   1.529 -21.014  0.00  0.00    +0.020 C 
ATOM      2  C   UNL     1      -0.339   1.975 -22.073  0.00  0.00    +0.036 C 
ATOM      3  C   UNL     1       0.202   2.112 -23.237  0.00  0.00    +0.335 C 
ATOM      4  O   UNL     1      -0.686   2.584 -24.038  0.00  0.00    -0.455 OA
ATOM      5  C   UNL     1      -1.780   2.743 -23.374  0.00  0.00    +0.216 C 
ATOM      6  C   UNL     1      -2.943   3.166 -23.660  0.00  0.00    +0.192 C 
ATOM      7  O   UNL     1      -4.154   3.572 -23.825  0.00  0.00    -0.361 OA
ATOM      8  C   UNL     1      -3.336   3.580 -24.816  0.00  0.00    +0.097 C 
ATOM      9  C   UNL     1      -2.333   3.486 -25.622  0.00  0.00    +0.044 C 
ATOM     10  C   UNL     1      -4.241   4.013 -25.440  0.00  0.00    +0.041 C 
ATOM     11  C   UNL     1      -5.315   4.121 -24.604  0.00  0.00    +0.030 C 
ATOM     12  C   UNL     1      -5.166   3.724 -23.230  0.00  0.00    -0.028 C 
ATOM     13  C   UNL     1      -3.967   3.256 -22.814  0.00  0.00    -0.077 C 
ATOM     14  C   UNL     1      -4.920   3.322 -21.956  0.00  0.00    +0.039 C 
ATOM     15  C   UNL     1      -3.740   2.877 -21.601  0.00  0.00    +0.031 C 
ATOM     16  C   UNL     1      -2.538   2.430 -21.270  0.00  0.00    +0.016 C 
ATOM     17  O   UNL     1       1.422   1.823 -23.541  0.00  0.00    -0.245 OA
ATOM     18  C   UNL     1      -1.564   2.366 -22.160  0.00  0.00    +0.069 C 
ENDROOT
TORSDOF 0
ENDMDL
