MODEL 1
REMARK VINA RESULT:    -9.671      0.000      0.000
REMARK INTER + INTRA:         -10.637
REMARK INTER:                 -10.545
REMARK INTRA:                  -0.092
REMARK UNBOUND:                -0.118
REMARK  Name = ZINC000000338132
REMARK  4 active torsions:
REMARK  status: ('A' for Active; 'I' for Inactive)
REMARK    1  A    between atoms: C_1  and  O_2
REMARK    2  A    between atoms: O_2  and  C_3
REMARK    3  A    between atoms: C_8  and  O_9
REMARK    4  A    between atoms: N_18  and  C_19
REMARK                            x       y       z     vdW  Elec       q    Type
REMARK                         _______ _______ _______ _____ _____    ______ ____
ROOT
ATOM      1  C   UNL     1      -3.053   3.818 -25.751  0.00  0.00    +0.162 A 
ATOM      2  C   UNL     1      -4.160   3.879 -25.070  0.00  0.00    +0.053 A 
ATOM      3  C   UNL     1      -4.174   3.520 -23.821  0.00  0.00    -0.030 A 
ATOM      4  C   UNL     1      -3.083   3.101 -23.252  0.00  0.00    +0.015 A 
ATOM      5  C   UNL     1      -1.976   3.041 -23.934  0.00  0.00    +0.036 A 
ATOM      6  C   UNL     1      -0.885   2.622 -23.365  0.00  0.00    -0.010 A 
ATOM      7  C   UNL     1       0.220   2.561 -24.046  0.00  0.00    +0.009 A 
ATOM      8  C   UNL     1       1.312   2.142 -23.477  0.00  0.00    +0.001 A 
ATOM      9  C   UNL     1       1.297   1.783 -22.227  0.00  0.00    +0.000 A 
ATOM     10  C   UNL     1       0.192   1.844 -21.546  0.00  0.00    +0.004 A 
ATOM     11  C   UNL     1      -0.900   2.263 -22.116  0.00  0.00    -0.034 A 
ATOM     12  C   UNL     1      -2.006   2.324 -21.434  0.00  0.00    +0.095 C 
ATOM     13  C   UNL     1      -3.097   2.743 -22.003  0.00  0.00    +0.101 C 
ATOM     14  N   UNL     1      -4.202   2.803 -21.322  0.00  0.00    +0.239 N 
ATOM     15  H   UNL     1      -4.079   2.495 -20.357  0.00  0.00    +0.204 HD
ATOM     16  C   UNL     1      -5.294   3.222 -21.891  0.00  0.00    +0.136 C 
ATOM     17  C   UNL     1      -4.217   2.445 -20.072  0.00  0.00    +0.191 C 
ATOM     18  C   UNL     1      -5.279   3.581 -23.141  0.00  0.00    +0.086 C 
ATOM     19  C   UNL     1      -1.962   3.399 -25.183  0.00  0.00    +0.167 A 
ENDROOT
BRANCH   1  21
ATOM     20  C   UNL     1      -3.584   3.413 -27.902  0.00  0.00    +0.277 C 
ATOM     21  O   UNL     1      -3.039   4.177 -27.001  0.00  0.00    -0.491 OA
ENDBRANCH   1  21
BRANCH  19  22
ATOM     22  O   UNL     1      -0.857   3.339 -25.864  0.00  0.00    -0.503 OA
ATOM     23  H   UNL     1      -0.363   2.542 -25.887  0.00  0.00    +0.292 HD
ENDBRANCH  19  22
TORSDOF 2
ENDMDL
