MODEL 1
REMARK VINA RESULT:    -9.676      0.000      0.000
REMARK INTER + INTRA:         -12.304
REMARK INTER:                 -11.697
REMARK INTRA:                  -0.607
REMARK UNBOUND:                -0.365
REMARK  Name = ZINC000004984609
REMARK  4 active torsions:
REMARK  status: ('A' for Active; 'I' for Inactive)
REMARK    1  A    between atoms: C_2  and  O_3
REMARK    2  A    between atoms: C_2  and  C_15
REMARK    3  A    between atoms: O_3  and  C_4
REMARK    4  A    between atoms: C_4  and  C_5
REMARK                            x       y       z     vdW  Elec       q    Type
REMARK                         _______ _______ _______ _____ _____    ______ ____
ROOT
ATOM      1  C   UNL     1      -1.133   2.270 -23.436  0.00  0.00    +0.241 C 
ENDROOT
BRANCH   1   2
ATOM      2  C   UNL     1      -2.144   2.835 -24.030  0.00  0.00    +0.075 C 
ATOM      3  C   UNL     1      -2.038   3.215 -25.269  0.00  0.00    +0.017 C 
ATOM      4  C   UNL     1      -3.048   3.779 -25.863  0.00  0.00    +0.051 C 
ATOM      5  C   UNL     1      -4.162   3.963 -25.217  0.00  0.00    +0.131 C 
ATOM      6  N   UNL     1      -4.266   3.583 -23.979  0.00  0.00    +0.238 N 
ATOM      7  H   UNL     1      -5.228   3.921 -23.953  0.00  0.00    +0.204 HD
ATOM      8  C   UNL     1      -5.380   3.767 -23.334  0.00  0.00    +0.131 C 
ATOM      9  C   UNL     1      -5.484   3.387 -22.095  0.00  0.00    +0.051 C 
ATOM     10  C   UNL     1      -4.474   2.823 -21.502  0.00  0.00    +0.011 C 
ATOM     11  C   UNL     1      -3.361   2.639 -22.147  0.00  0.00    +0.055 C 
ATOM     12  C   UNL     1      -3.257   3.019 -23.385  0.00  0.00    +0.071 C 
ENDBRANCH   1   2
BRANCH   1  13
ATOM     13  O   UNL     1       0.050   2.329 -23.970  0.00  0.00    -0.461 OA
BRANCH  13  15
ATOM     14  O   UNL     1       1.223   1.075 -22.513  0.00  0.00    -0.245 OA
ATOM     15  C   UNL     1       1.106   2.152 -23.231  0.00  0.00    +0.339 C 
BRANCH  15  16
ATOM     16  C   UNL     1       2.043   3.051 -23.212  0.00  0.00    +0.060 A 
ATOM     17  C   UNL     1       1.733   4.313 -23.205  0.00  0.00    +0.015 A 
ATOM     18  C   UNL     1       2.671   5.214 -23.186  0.00  0.00    +0.002 A 
ATOM     19  C   UNL     1       3.920   4.851 -23.173  0.00  0.00    +0.015 A 
ATOM     20  C   UNL     1       4.229   3.588 -23.180  0.00  0.00    +0.019 A 
ATOM     21 BR   UNL     1       5.478   3.225 -23.168  0.00  0.00    -0.050 Br
ATOM     22  C   UNL     1       3.292   2.688 -23.200  0.00  0.00    +0.030 A 
ENDBRANCH  15  16
ENDBRANCH  13  15
ENDBRANCH   1  13
TORSDOF 4
ENDMDL
