MODEL 1
REMARK VINA RESULT:   -13.225      0.000      0.000
REMARK INTER + INTRA:         -13.225
REMARK INTER:                 -13.225
REMARK INTRA:                   0.000
REMARK UNBOUND:                 0.000
REMARK  Name = C[C@]12CC[C@@H]3[C@H](CC=C4CC5(CC[C@@]43C)OCCO5)[C@H]1CCC2=O         ZINC000238937255
REMARK  2 active torsions:
REMARK  status: ('A' for Active; 'I' for Inactive)
REMARK    1  A    between atoms: C_1  and  C_2
REMARK    2  A    between atoms: C_14  and  C_15
REMARK                            x       y       z     vdW  Elec       q    Type
REMARK                         _______ _______ _______ _____ _____    ______ ____
ROOT
ATOM      1  C   UNL     1      -4.876   2.895 -21.650  0.00  0.00    +0.019 C 
ATOM      2  C   UNL     1      -3.989   3.135 -22.568  0.00  0.00    +0.029 C 
ATOM      3  C   UNL     1      -3.513   2.537 -21.517  0.00  0.00    +0.015 C 
ATOM      4  C   UNL     1      -2.250   2.235 -21.458  0.00  0.00    +0.005 C 
ATOM      5  C   UNL     1      -1.463   2.531 -22.450  0.00  0.00    +0.003 C 
ATOM      6  C   UNL     1      -1.940   3.130 -23.501  0.00  0.00    +0.001 C 
ATOM      7  C   UNL     1      -1.152   3.426 -24.492  0.00  0.00    +0.031 C 
ATOM      8  C   UNL     1       0.111   3.124 -24.432  0.00  0.00    -0.027 C 
ATOM      9  C   UNL     1       0.586   2.526 -23.381  0.00  0.00    -0.062 C 
ATOM     10  C   UNL     1       1.849   2.224 -23.321  0.00  0.00    +0.096 C 
ATOM     11  C   UNL     1       2.326   1.625 -22.270  0.00  0.00    +0.174 C 
ATOM     12  O   UNL     1       2.924   1.030 -21.281  0.00  0.00    -0.346 OA
ATOM     13  C   UNL     1       4.180   0.902 -21.589  0.00  0.00    +0.191 C 
ATOM     14  C   UNL     1       4.359   1.419 -22.768  0.00  0.00    +0.191 C 
ATOM     15  C   UNL     1       1.540   1.329 -21.279  0.00  0.00    +0.066 C 
ATOM     16  C   UNL     1       0.276   1.631 -21.338  0.00  0.00    +0.016 C 
ATOM     17  O   UNL     1       3.214   1.866 -23.190  0.00  0.00    -0.346 OA
ATOM     18  C   UNL     1      -0.200   2.229 -22.390  0.00  0.00    -0.008 C 
ATOM     19  C   UNL     1      -0.987   1.933 -21.398  0.00  0.00    +0.016 C 
ATOM     20  C   UNL     1      -5.188   3.538 -22.872  0.00  0.00    +0.139 C 
ATOM     21  O   UNL     1      -6.246   3.417 -22.128  0.00  0.00    -0.297 OA
ATOM     22  C   UNL     1      -5.141   4.084 -24.051  0.00  0.00    +0.075 C 
ATOM     23  C   UNL     1      -3.915   4.018 -24.477  0.00  0.00    +0.012 C 
ATOM     24  C   UNL     1      -3.203   3.432 -23.561  0.00  0.00    +0.006 C 
ENDROOT
TORSDOF 0
ENDMDL
