MODEL 1
REMARK VINA RESULT:    -5.738      0.000      0.000
REMARK INTER + INTRA:          -6.241
REMARK INTER:                  -6.241
REMARK INTRA:                   0.000
REMARK UNBOUND:                 0.000
REMARK  Name = ZINC000003860368
REMARK  4 active torsions:
REMARK  status: ('A' for Active; 'I' for Inactive)
REMARK    1  A    between atoms: C_1  and  C_2
REMARK    2  A    between atoms: C_4  and  O_5
REMARK    3  A    between atoms: C_7  and  O_8
REMARK    4  A    between atoms: C_9  and  O_10
REMARK                            x       y       z     vdW  Elec       q    Type
REMARK                         _______ _______ _______ _____ _____    ______ ____
ROOT
ATOM      1  C   UNL     1      -4.444   3.025 -21.652  0.00  0.00    +0.041 C 
ATOM      2  C   UNL     1      -3.871   3.101 -22.817  0.00  0.00    +0.149 C 
ATOM      3  O   UNL     1      -2.685   2.599 -22.993  0.00  0.00    -0.346 OA
ATOM      4  C   UNL     1      -2.114   2.676 -24.159  0.00  0.00    +0.250 C 
ATOM      5  C   UNL     1      -2.729   3.254 -25.148  0.00  0.00    +0.095 C 
ATOM      6  C   UNL     1      -3.915   3.756 -24.971  0.00  0.00    +0.150 C 
ATOM      7  C   UNL     1      -4.486   3.679 -23.806  0.00  0.00    +0.172 C 
ENDROOT
BRANCH   6   8
ATOM      8  O   UNL     1      -4.529   4.334 -25.960  0.00  0.00    -0.389 OA
ATOM      9  H   UNL     1      -4.108   4.079 -26.796  0.00  0.00    +0.210 HD
ENDBRANCH   6   8
BRANCH   4  10
ATOM     10  O   UNL     1      -0.928   2.174 -24.334  0.00  0.00    -0.367 OA
ATOM     11  H   UNL     1      -0.295   2.629 -23.757  0.00  0.00    +0.212 HD
ENDBRANCH   4  10
BRANCH   7  12
ATOM     12  O   UNL     1      -5.673   4.181 -23.630  0.00  0.00    -0.387 OA
ATOM     13  H   UNL     1      -6.309   3.464 -23.487  0.00  0.00    +0.210 HD
ENDBRANCH   7  12
TORSDOF 3
ENDMDL
