MODEL 1
REMARK VINA RESULT:    -9.676      0.000      0.000
REMARK INTER + INTRA:          -9.676
REMARK INTER:                  -9.676
REMARK INTRA:                   0.000
REMARK UNBOUND:                 0.000
REMARK  Name = C=C1C(=O)O[C@H]2[C@@H]3O[C@@]3(C)CCC=C(C)CC[C@H]12                   ZINC000253986902
REMARK  2 active torsions:
REMARK  status: ('A' for Active; 'I' for Inactive)
REMARK    1  A    between atoms: C_9  and  C_10
REMARK    2  A    between atoms: C_14  and  C_15
REMARK                            x       y       z     vdW  Elec       q    Type
REMARK                         _______ _______ _______ _____ _____    ______ ____
ROOT
ATOM      1  C   UNL     1      -4.829   3.739 -25.124  0.00  0.00    +0.020 C 
ATOM      2  C   UNL     1      -3.545   3.448 -25.061  0.00  0.00    +0.036 C 
ATOM      3  C   UNL     1      -2.685   3.517 -26.055  0.00  0.00    +0.335 C 
ATOM      4  O   UNL     1      -1.505   3.149 -25.604  0.00  0.00    -0.455 OA
ATOM      5  C   UNL     1      -1.637   2.851 -24.327  0.00  0.00    +0.216 C 
ATOM      6  C   UNL     1      -0.513   2.430 -23.621  0.00  0.00    +0.192 C 
ATOM      7  O   UNL     1       0.668   2.059 -23.160  0.00  0.00    -0.361 OA
ATOM      8  C   UNL     1      -0.379   2.078 -22.356  0.00  0.00    +0.097 C 
ATOM      9  C   UNL     1      -1.592   2.168 -21.690  0.00  0.00    +0.041 C 
ATOM     10  C   UNL     1      -2.735   2.532 -22.157  0.00  0.00    +0.030 C 
ATOM     11  C   UNL     1      -3.888   2.566 -21.323  0.00  0.00    -0.028 C 
ATOM     12  C   UNL     1      -4.897   2.943 -21.952  0.00  0.00    -0.077 C 
ATOM     13  C   UNL     1      -4.591   3.139 -22.976  0.00  0.00    +0.031 C 
ATOM     14  C   UNL     1      -3.322   2.881 -23.032  0.00  0.00    +0.016 C 
ATOM     15  C   UNL     1      -6.118   3.088 -21.496  0.00  0.00    +0.039 C 
ATOM     16  C   UNL     1       0.301   1.663 -21.300  0.00  0.00    +0.044 C 
ATOM     17  O   UNL     1      -2.958   3.892 -27.291  0.00  0.00    -0.245 OA
ATOM     18  C   UNL     1      -2.894   3.035 -23.992  0.00  0.00    +0.069 C 
ENDROOT
TORSDOF 0
ENDMDL
