MODEL 1
REMARK VINA RESULT:    -7.369      0.000      0.000
REMARK INTER + INTRA:          -8.432
REMARK INTER:                  -8.243
REMARK INTRA:                  -0.190
REMARK UNBOUND:                -0.202
REMARK  Name = ZINC000004324103
REMARK  4 active torsions:
REMARK  status: ('A' for Active; 'I' for Inactive)
REMARK    1  A    between atoms: C_1  and  O_2
REMARK    2  A    between atoms: O_2  and  C_3
REMARK    3  A    between atoms: C_8  and  O_9
REMARK    4  A    between atoms: O_9  and  C_10
REMARK                            x       y       z     vdW  Elec       q    Type
REMARK                         _______ _______ _______ _____ _____    ______ ____
ROOT
ATOM      1  C   UNL     1      -1.132   2.609 -22.737  0.00  0.00    +0.162 A 
ATOM      2  C   UNL     1      -2.235   2.617 -22.046  0.00  0.00    +0.053 A 
ATOM      3  C   UNL     1      -3.331   3.069 -22.578  0.00  0.00    -0.030 A 
ATOM      4  C   UNL     1      -3.327   3.513 -23.800  0.00  0.00    +0.044 A 
ATOM      5  C   UNL     1      -4.424   3.965 -24.332  0.00  0.00    +0.244 C 
ATOM      6  N   UNL     1      -5.526   3.973 -23.641  0.00  0.00    -0.311 N 
ATOM      7  H   UNL     1      -6.357   4.315 -24.043  0.00  0.00    +0.149 HD
ATOM      8  C   UNL     1      -5.530   3.528 -22.419  0.00  0.00    +0.109 C 
ATOM      9  O   UNL     1      -4.420   4.409 -25.553  0.00  0.00    -0.270 OA
ATOM     10  C   UNL     1      -2.226   3.505 -24.490  0.00  0.00    +0.062 A 
ATOM     11  C   UNL     1      -4.432   3.077 -21.888  0.00  0.00    +0.054 C 
ATOM     12  C   UNL     1      -1.128   3.054 -23.959  0.00  0.00    +0.162 A 
ENDROOT
BRANCH   1  14
ATOM     13  C   UNL     1      -0.086   1.434 -21.127  0.00  0.00    +0.277 C 
ATOM     14  O   UNL     1      -0.036   2.158 -22.206  0.00  0.00    -0.491 OA
ENDBRANCH   1  14
BRANCH  12  15
ATOM     15  O   UNL     1      -0.027   3.046 -24.649  0.00  0.00    -0.491 OA
ATOM     16  C   UNL     1       0.485   4.165 -25.070  0.00  0.00    +0.277 C 
ENDBRANCH  12  15
TORSDOF 2
ENDMDL
