MODEL 1
REMARK VINA RESULT:    -8.839      0.000      0.000
REMARK INTER + INTRA:          -8.106
REMARK INTER:                 -10.447
REMARK INTRA:                   2.341
REMARK UNBOUND:                 2.283
REMARK  Name = ZINC000000323340
REMARK  4 active torsions:
REMARK  status: ('A' for Active; 'I' for Inactive)
REMARK    1  A    between atoms: C_2  and  C_3
REMARK    2  A    between atoms: C_4  and  N_5
REMARK    3  A    between atoms: C_18  and  C_19
REMARK    4  A    between atoms: C_22  and  O_23
REMARK                            x       y       z     vdW  Elec       q    Type
REMARK                         _______ _______ _______ _____ _____    ______ ____
ROOT
ATOM      1  C   UNL     1       3.020   4.564 -22.887  0.00  0.00    +0.098 C 
ATOM      2  C   UNL     1       2.237   5.507 -23.317  0.00  0.00    +0.199 C 
ATOM      3  O   UNL     1       0.997   5.242 -23.607  0.00  0.00    -0.440 OA
ATOM      4  C   UNL     1       0.542   4.032 -23.466  0.00  0.00    +0.152 A 
ATOM      5  C   UNL     1       1.325   3.089 -23.036  0.00  0.00    +0.092 A 
ATOM      6  C   UNL     1       0.870   1.879 -22.895  0.00  0.00    +0.345 A 
ATOM      7  O   UNL     1      -0.368   1.613 -23.184  0.00  0.00    -0.422 OA
ATOM      8  C   UNL     1      -1.152   2.557 -23.615  0.00  0.00    +0.143 A 
ATOM      9  C   UNL     1      -2.392   2.291 -23.904  0.00  0.00    +0.047 A 
ATOM     10  C   UNL     1      -3.175   3.234 -24.335  0.00  0.00    +0.004 A 
ATOM     11  C   UNL     1      -2.720   4.444 -24.476  0.00  0.00    +0.001 A 
ATOM     12  C   UNL     1      -1.481   4.710 -24.186  0.00  0.00    +0.015 A 
ATOM     13  O   UNL     1       1.655   0.935 -22.464  0.00  0.00    -0.245 OA
ATOM     14  C   UNL     1      -0.697   3.766 -23.756  0.00  0.00    +0.060 A 
ATOM     15  C   UNL     1       2.565   3.355 -22.746  0.00  0.00    +0.105 C 
ENDROOT
BRANCH  15  16
ATOM     16  C   UNL     1       3.349   2.411 -22.315  0.00  0.00    -0.034 A 
ATOM     17  C   UNL     1       4.113   1.770 -23.149  0.00  0.00    +0.008 A 
ATOM     18  C   UNL     1       4.896   0.827 -22.718  0.00  0.00    +0.046 A 
ATOM     19  C   UNL     1       4.916   0.524 -21.453  0.00  0.00    +0.117 A 
ATOM     20  C   UNL     1       4.151   1.165 -20.620  0.00  0.00    +0.046 A 
ATOM     21  C   UNL     1       3.367   2.109 -21.051  0.00  0.00    +0.008 A 
BRANCH  19  22
ATOM     22  O   UNL     1       5.699  -0.419 -21.023  0.00  0.00    -0.507 OA
ATOM     23  H   UNL     1       5.883  -0.494 -20.107  0.00  0.00    +0.292 HD
ENDBRANCH  19  22
ENDBRANCH  15  16
BRANCH   2  24
ATOM     24  N   UNL     1       2.692   6.717 -23.458  0.00  0.00    -0.328 N 
ATOM     25  H   UNL     1       3.544   6.871 -23.928  0.00  0.00    +0.145 HD
ATOM     26  H   UNL     1       2.186   7.479 -23.096  0.00  0.00    +0.145 HD
ENDBRANCH   2  24
BRANCH   1  28
ATOM     27  N   UNL     1       5.498   5.097 -22.308  0.00  0.00    -0.191 NA
ATOM     28  C   UNL     1       4.259   4.830 -22.597  0.00  0.00    +0.101 C 
ENDBRANCH   1  28
TORSDOF 4
ENDMDL
