MODEL 1
REMARK VINA RESULT:    -9.483      0.000      0.000
REMARK INTER + INTRA:         -14.646
REMARK INTER:                 -11.925
REMARK INTRA:                  -2.721
REMARK UNBOUND:                -1.282
REMARK  Name = ZINC000004104789
REMARK  8 active torsions:
REMARK  status: ('A' for Active; 'I' for Inactive)
REMARK    1  A    between atoms: C_2  and  C_3
REMARK    2  A    between atoms: C_2  and  C_19
REMARK    3  A    between atoms: C_4  and  C_5
REMARK    4  A    between atoms: C_10  and  O_11
REMARK    5  A    between atoms: O_11  and  C_12
REMARK    6  A    between atoms: C_12  and  C_13
REMARK    7  A    between atoms: C_22  and  O_23
REMARK    8  A    between atoms: C_25  and  O_26
REMARK                            x       y       z     vdW  Elec       q    Type
REMARK                         _______ _______ _______ _____ _____    ______ ____
ROOT
ATOM      1  C   UNL     1       0.524   1.906 -21.927  0.00  0.00    +0.052 C 
ATOM      2  C   UNL     1      -0.683   1.498 -22.183  0.00  0.00    +0.015 C 
ENDROOT
BRANCH   2   3
ATOM      3  C   UNL     1      -1.702   2.246 -21.876  0.00  0.00    +0.017 A 
ATOM      4  C   UNL     1      -1.943   2.535 -20.633  0.00  0.00    +0.011 A 
ATOM      5  C   UNL     1      -2.963   3.282 -20.326  0.00  0.00    +0.001 A 
ATOM      6  C   UNL     1      -3.739   3.740 -21.263  0.00  0.00    +0.004 A 
ATOM      7  C   UNL     1      -3.496   3.451 -22.507  0.00  0.00    +0.046 A 
ATOM      8  C   UNL     1      -2.478   2.703 -22.814  0.00  0.00    +0.128 A 
BRANCH   8   9
ATOM      9  O   UNL     1      -2.235   2.414 -24.058  0.00  0.00    -0.487 OA
BRANCH   9  10
ATOM     10  C   UNL     1      -1.827   3.340 -24.872  0.00  0.00    +0.264 C 
BRANCH  10  11
ATOM     11  C   UNL     1      -0.632   3.839 -24.744  0.00  0.00    -0.010 A 
ATOM     12  C   UNL     1      -0.396   4.732 -23.829  0.00  0.00    +0.007 A 
ATOM     13  C   UNL     1       0.797   5.231 -23.700  0.00  0.00    +0.000 A 
ATOM     14  C   UNL     1       1.754   4.837 -24.486  0.00  0.00    +0.000 A 
ATOM     15  C   UNL     1       1.518   3.944 -25.401  0.00  0.00    +0.000 A 
ATOM     16  C   UNL     1       0.325   3.445 -25.530  0.00  0.00    +0.007 A 
ENDBRANCH  10  11
ENDBRANCH   9  10
ENDBRANCH   8   9
ENDBRANCH   2   3
BRANCH   1  18
ATOM     17  O   UNL     1       1.467  -0.131 -22.096  0.00  0.00    -0.287 OA
ATOM     18  C   UNL     1       1.543   1.159 -22.234  0.00  0.00    +0.190 C 
BRANCH  18  19
ATOM     19  C   UNL     1       2.637   1.702 -22.679  0.00  0.00    +0.063 A 
ATOM     20  C   UNL     1       3.199   2.669 -22.016  0.00  0.00    +0.019 A 
ATOM     21  C   UNL     1       4.293   3.212 -22.460  0.00  0.00    +0.046 A 
ATOM     22  C   UNL     1       4.825   2.788 -23.568  0.00  0.00    +0.120 A 
ATOM     23  C   UNL     1       4.263   1.822 -24.232  0.00  0.00    +0.091 A 
ATOM     24  C   UNL     1       3.169   1.279 -23.787  0.00  0.00    +0.131 A 
BRANCH  24  25
ATOM     25  O   UNL     1       2.607   0.312 -24.450  0.00  0.00    -0.506 OA
ATOM     26  H   UNL     1       3.044  -0.065 -25.188  0.00  0.00    +0.292 HD
ENDBRANCH  24  25
BRANCH  22  27
ATOM     27  O   UNL     1       5.919   3.331 -24.013  0.00  0.00    -0.507 OA
ATOM     28  H   UNL     1       5.876   4.036 -24.629  0.00  0.00    +0.292 HD
ENDBRANCH  22  27
ENDBRANCH  18  19
ENDBRANCH   1  18
TORSDOF 8
ENDMDL
