MODEL 1
REMARK VINA RESULT:    -9.370      0.000      0.000
REMARK INTER + INTRA:         -11.205
REMARK INTER:                 -10.744
REMARK INTRA:                  -0.461
REMARK UNBOUND:                -0.466
REMARK  Name = ZINC000003871633
REMARK  4 active torsions:
REMARK  status: ('A' for Active; 'I' for Inactive)
REMARK    1  A    between atoms: C_4  and  C_5
REMARK    2  A    between atoms: C_14  and  O_15
REMARK    3  A    between atoms: C_16  and  O_17
REMARK    4  A    between atoms: C_18  and  O_19
REMARK                            x       y       z     vdW  Elec       q    Type
REMARK                         _______ _______ _______ _____ _____    ______ ____
ROOT
ATOM      1  O   UNL     1       0.876   5.268 -23.999  0.00  0.00    -0.287 OA
ATOM      2  C   UNL     1       0.247   4.266 -23.460  0.00  0.00    +0.197 A 
ATOM      3  C   UNL     1      -1.049   4.295 -23.353  0.00  0.00    +0.098 A 
ATOM      4  C   UNL     1      -1.678   3.293 -22.813  0.00  0.00    +0.139 A 
ATOM      5  O   UNL     1      -1.012   2.264 -22.380  0.00  0.00    -0.454 OA
ATOM      6  C   UNL     1       0.283   2.236 -22.487  0.00  0.00    +0.146 A 
ATOM      7  C   UNL     1       0.949   1.207 -22.054  0.00  0.00    +0.096 A 
ATOM      8  C   UNL     1       2.244   1.179 -22.162  0.00  0.00    +0.166 A 
ATOM      9  C   UNL     1       2.873   2.180 -22.701  0.00  0.00    +0.202 A 
ATOM     10  C   UNL     1       2.208   3.210 -23.134  0.00  0.00    +0.177 A 
ATOM     11  C   UNL     1       0.913   3.237 -23.027  0.00  0.00    +0.109 A 
ENDROOT
BRANCH   4  12
ATOM     12  C   UNL     1      -2.973   3.320 -22.705  0.00  0.00    +0.017 A 
ATOM     13  C   UNL     1      -3.540   2.946 -21.597  0.00  0.00    +0.011 A 
ATOM     14  C   UNL     1      -4.836   2.972 -21.488  0.00  0.00    +0.001 A 
ATOM     15  C   UNL     1      -5.564   3.374 -22.488  0.00  0.00    +0.000 A 
ATOM     16  C   UNL     1      -4.997   3.748 -23.596  0.00  0.00    +0.001 A 
ATOM     17  C   UNL     1      -3.701   3.721 -23.705  0.00  0.00    +0.011 A 
ENDBRANCH   4  12
BRANCH  10  18
ATOM     18  O   UNL     1       2.837   4.211 -23.674  0.00  0.00    -0.503 OA
ATOM     19  H   UNL     1       2.513   4.597 -24.464  0.00  0.00    +0.292 HD
ENDBRANCH  10  18
BRANCH   9  20
ATOM     20  O   UNL     1       4.169   2.152 -22.808  0.00  0.00    -0.501 OA
ATOM     21  H   UNL     1       4.699   2.016 -22.048  0.00  0.00    +0.292 HD
ENDBRANCH   9  20
BRANCH   8  22
ATOM     22  O   UNL     1       2.911   0.150 -21.729  0.00  0.00    -0.503 OA
ATOM     23  H   UNL     1       2.943  -0.635 -22.239  0.00  0.00    +0.292 HD
ENDBRANCH   8  22
TORSDOF 4
ENDMDL
