MODEL 1
REMARK VINA RESULT:   -10.142      0.000      0.000
REMARK INTER + INTRA:         -11.407
REMARK INTER:                 -11.175
REMARK INTRA:                  -0.232
REMARK UNBOUND:                 0.811
REMARK  Name = ZINC000000119985
REMARK  6 active torsions:
REMARK  status: ('A' for Active; 'I' for Inactive)
REMARK    1  A    between atoms: O_1  and  C_2
REMARK    2  A    between atoms: C_4  and  O_5
REMARK    3  A    between atoms: C_10  and  C_11
REMARK    4  A    between atoms: C_14  and  O_15
REMARK    5  A    between atoms: C_16  and  O_17
REMARK    6  A    between atoms: C_19  and  O_20
REMARK                            x       y       z     vdW  Elec       q    Type
REMARK                         _______ _______ _______ _____ _____    ______ ____
ROOT
ATOM      1  C   UNL     1      -3.967   4.226 -24.658  0.00  0.00    +0.124 A 
ATOM      2  C   UNL     1      -4.489   3.709 -23.586  0.00  0.00    +0.091 A 
ATOM      3  C   UNL     1      -3.728   3.116 -22.713  0.00  0.00    +0.127 A 
ATOM      4  C   UNL     1      -2.446   3.041 -22.913  0.00  0.00    +0.038 A 
ATOM      5  C   UNL     1      -1.924   3.559 -23.986  0.00  0.00    +0.132 A 
ATOM      6  O   UNL     1      -0.642   3.484 -24.187  0.00  0.00    -0.481 OA
ATOM      7  C   UNL     1       0.119   2.891 -23.314  0.00  0.00    +0.232 C 
ATOM      8  C   UNL     1      -0.403   2.373 -22.241  0.00  0.00    +0.164 C 
ATOM      9  C   UNL     1      -1.686   2.448 -22.041  0.00  0.00    +0.078 C 
ATOM     10  C   UNL     1      -2.684   4.151 -24.858  0.00  0.00    +0.091 A 
ENDROOT
BRANCH   7  11
ATOM     11  C   UNL     1       1.401   2.816 -23.514  0.00  0.00    -0.001 A 
ATOM     12  C   UNL     1       2.176   3.790 -23.139  0.00  0.00    +0.011 A 
ATOM     13  C   UNL     1       3.458   3.716 -23.339  0.00  0.00    +0.049 A 
ATOM     14  C   UNL     1       3.966   2.666 -23.915  0.00  0.00    +0.158 A 
ATOM     15  C   UNL     1       3.191   1.692 -24.290  0.00  0.00    +0.159 A 
ATOM     16  C   UNL     1       1.909   1.767 -24.090  0.00  0.00    +0.056 A 
BRANCH  15  17
ATOM     17  O   UNL     1       3.699   0.643 -24.866  0.00  0.00    -0.503 OA
ATOM     18  H   UNL     1       4.209   0.035 -24.367  0.00  0.00    +0.292 HD
ENDBRANCH  15  17
BRANCH  14  19
ATOM     19  O   UNL     1       5.248   2.591 -24.115  0.00  0.00    -0.503 OA
ATOM     20  H   UNL     1       5.781   2.070 -23.548  0.00  0.00    +0.292 HD
ENDBRANCH  14  19
ENDBRANCH   7  11
BRANCH   8  21
ATOM     21  O   UNL     1       0.357   1.781 -21.370  0.00  0.00    -0.387 OA
ATOM     22  H   UNL     1       1.143   1.425 -21.813  0.00  0.00    +0.210 HD
ENDBRANCH   8  21
BRANCH   1  23
ATOM     23  O   UNL     1      -4.727   4.819 -25.530  0.00  0.00    -0.507 OA
ATOM     24  H   UNL     1      -4.349   5.392 -26.168  0.00  0.00    +0.292 HD
ENDBRANCH   1  23
BRANCH   3  25
ATOM     25  O   UNL     1      -4.250   2.598 -21.641  0.00  0.00    -0.506 OA
ATOM     26  H   UNL     1      -4.319   1.667 -21.556  0.00  0.00    +0.292 HD
ENDBRANCH   3  25
TORSDOF 6
ENDMDL
