MODEL 1
REMARK VINA RESULT:   -10.240      0.000      0.000
REMARK INTER + INTRA:          -9.664
REMARK INTER:                 -11.628
REMARK INTRA:                   1.964
REMARK UNBOUND:                 2.072
REMARK  Name = ZINC000005037439
REMARK  3 active torsions:
REMARK  status: ('A' for Active; 'I' for Inactive)
REMARK    1  A    between atoms: O_1  and  C_2
REMARK    2  A    between atoms: C_5  and  C_6
REMARK    3  A    between atoms: C_18  and  C_19
REMARK                            x       y       z     vdW  Elec       q    Type
REMARK                         _______ _______ _______ _____ _____    ______ ____
ROOT
ATOM      1  C   UNL     1       0.377   3.097 -23.206  0.00  0.00    +0.127 C 
ATOM      2  C   UNL     1       0.468   1.808 -23.066  0.00  0.00    +0.198 C 
ATOM      3  O   UNL     1       1.720   1.510 -22.886  0.00  0.00    -0.369 OA
ATOM      4  C   UNL     1       2.404   2.615 -22.914  0.00  0.00    +0.157 C 
ATOM      5  C   UNL     1      -0.453   4.078 -23.404  0.00  0.00    +0.183 C 
ATOM      6  O   UNL     1       0.231   5.183 -23.433  0.00  0.00    -0.369 OA
ATOM      7  C   UNL     1       1.483   4.885 -23.252  0.00  0.00    +0.170 C 
ATOM      8  C   UNL     1       1.574   3.596 -23.112  0.00  0.00    +0.085 C 
ENDROOT
BRANCH   4   9
ATOM      9  C   UNL     1       3.691   2.721 -22.770  0.00  0.00    -0.015 A 
ATOM     10  C   UNL     1       4.246   2.419 -21.634  0.00  0.00    +0.010 A 
ATOM     11  C   UNL     1       5.533   2.525 -21.489  0.00  0.00    +0.050 A 
ATOM     12  C   UNL     1       6.266   2.933 -22.482  0.00  0.00    +0.166 A 
ATOM     13  C   UNL     1       5.713   3.235 -23.619  0.00  0.00    +0.167 A 
ATOM     14  O   UNL     1       6.652   3.611 -24.436  0.00  0.00    -0.453 OA
ATOM     15  C   UNL     1       7.786   3.541 -23.804  0.00  0.00    +0.466 C 
ATOM     16  O   UNL     1       7.548   3.122 -22.595  0.00  0.00    -0.453 OA
ATOM     17  C   UNL     1       4.426   3.129 -23.763  0.00  0.00    +0.055 A 
ENDBRANCH   4   9
BRANCH   5  18
ATOM     18  C   UNL     1      -1.740   3.972 -23.548  0.00  0.00    -0.012 A 
ATOM     19  C   UNL     1      -2.275   4.096 -24.726  0.00  0.00    +0.010 A 
ATOM     20  C   UNL     1      -3.562   3.990 -24.871  0.00  0.00    +0.050 A 
ATOM     21  C   UNL     1      -4.315   3.760 -23.837  0.00  0.00    +0.166 A 
ATOM     22  C   UNL     1      -3.781   3.636 -22.659  0.00  0.00    +0.167 A 
ATOM     23  O   UNL     1      -4.737   3.413 -21.805  0.00  0.00    -0.453 OA
ATOM     24  C   UNL     1      -5.861   3.399 -22.457  0.00  0.00    +0.466 C 
ATOM     25  O   UNL     1      -5.601   3.614 -23.713  0.00  0.00    -0.453 OA
ATOM     26  C   UNL     1      -2.494   3.742 -22.513  0.00  0.00    +0.055 A 
ENDBRANCH   5  18
BRANCH   1  27
ATOM     27  O   UNL     1      -0.820   2.598 -23.300  0.00  0.00    -0.383 OA
ATOM     28  H   UNL     1      -0.830   1.709 -22.916  0.00  0.00    +0.210 HD
ENDBRANCH   1  27
TORSDOF 3
ENDMDL
