MODEL 1
REMARK VINA RESULT:   -10.365      0.000      0.000
REMARK INTER + INTRA:         -12.733
REMARK INTER:                 -12.365
REMARK INTRA:                  -0.368
REMARK UNBOUND:                -0.247
REMARK  Name = ZINC000000689683
REMARK  5 active torsions:
REMARK  status: ('A' for Active; 'I' for Inactive)
REMARK    1  A    between atoms: C_1  and  O_2
REMARK    2  A    between atoms: O_2  and  C_3
REMARK    3  A    between atoms: C_7  and  O_8
REMARK    4  A    between atoms: O_8  and  C_9
REMARK    5  A    between atoms: C_25  and  O_26
REMARK                            x       y       z     vdW  Elec       q    Type
REMARK                         _______ _______ _______ _____ _____    ______ ____
ROOT
ATOM      1  C   UNL     1       4.839   5.577 -22.553  0.00  0.00    +0.162 A 
ATOM      2  C   UNL     1       3.622   5.247 -22.869  0.00  0.00    +0.061 A 
ATOM      3  C   UNL     1       3.378   4.072 -23.369  0.00  0.00    +0.025 A 
ATOM      4  C   UNL     1       2.161   3.740 -23.685  0.00  0.00    +0.065 A 
ATOM      5  C   UNL     1       1.916   2.565 -24.184  0.00  0.00    +0.213 A 
ATOM      6  C   UNL     1       2.888   1.721 -24.368  0.00  0.00    +0.380 A 
ATOM      7  O   UNL     1       4.104   2.053 -24.052  0.00  0.00    -0.420 OA
ATOM      8  O   UNL     1       2.644   0.546 -24.867  0.00  0.00    -0.241 OA
ATOM      9  C   UNL     1       4.350   3.228 -23.552  0.00  0.00    +0.143 A 
ATOM     10  C   UNL     1       5.566   3.560 -23.236  0.00  0.00    +0.096 A 
ATOM     11  C   UNL     1       5.810   4.734 -22.737  0.00  0.00    +0.162 A 
ENDROOT
BRANCH   1  13
ATOM     12  C   UNL     1       4.148   7.656 -22.033  0.00  0.00    +0.277 C 
ATOM     13  O   UNL     1       5.083   6.754 -22.053  0.00  0.00    -0.491 OA
ENDBRANCH   1  13
BRANCH  11  14
ATOM     14  O   UNL     1       7.028   5.066 -22.421  0.00  0.00    -0.503 OA
ATOM     15  H   UNL     1       7.735   4.854 -22.998  0.00  0.00    +0.292 HD
ENDBRANCH  11  14
BRANCH   5  16
ATOM     16  O   UNL     1       0.700   2.234 -24.500  0.00  0.00    -0.449 OA
BRANCH  16  17
ATOM     17  C   UNL     1      -0.249   2.328 -23.617  0.00  0.00    +0.132 A 
ATOM     18  C   UNL     1      -0.014   2.027 -22.374  0.00  0.00    +0.047 A 
ATOM     19  C   UNL     1      -0.964   2.122 -21.491  0.00  0.00    +0.015 A 
ATOM     20  C   UNL     1      -2.149   2.518 -21.851  0.00  0.00    +0.018 A 
ATOM     21  C   UNL     1      -3.098   2.613 -20.968  0.00  0.00    +0.018 A 
ATOM     22  C   UNL     1      -4.284   3.009 -21.329  0.00  0.00    +0.092 A 
ATOM     23  C   UNL     1      -4.519   3.310 -22.571  0.00  0.00    +0.337 A 
ATOM     24  O   UNL     1      -3.569   3.215 -23.454  0.00  0.00    -0.422 OA
ATOM     25  O   UNL     1      -5.703   3.705 -22.931  0.00  0.00    -0.245 OA
ATOM     26  C   UNL     1      -2.384   2.819 -23.094  0.00  0.00    +0.143 A 
ATOM     27  C   UNL     1      -1.435   2.724 -23.977  0.00  0.00    +0.093 A 
ENDBRANCH  16  17
ENDBRANCH   5  16
TORSDOF 4
ENDMDL
