MODEL 1
REMARK VINA RESULT:    -9.949      0.000      0.000
REMARK INTER + INTRA:         -11.243
REMARK INTER:                 -11.114
REMARK INTRA:                  -0.128
REMARK UNBOUND:                -0.131
REMARK  Name = COc1ccc2c(c1O)[C@@]13CCN(C)[C@H](C2)[C@H]1C(Br)=CC=C3C               ZINC000100393694
REMARK  5 active torsions:
REMARK  status: ('A' for Active; 'I' for Inactive)
REMARK    1  A    between atoms: C_1  and  O_2
REMARK    2  A    between atoms: O_2  and  C_3
REMARK    3  A    between atoms: C_8  and  O_9
REMARK    4  A    between atoms: N_13  and  C_14
REMARK    5  A    between atoms: C_22  and  C_23
REMARK                            x       y       z     vdW  Elec       q    Type
REMARK                         _______ _______ _______ _____ _____    ______ ____
ROOT
ATOM      1  C   UNL     1      -4.916   3.406 -22.900  0.00  0.00    +0.162 A 
ATOM      2  C   UNL     1      -5.207   3.750 -24.088  0.00  0.00    +0.049 A 
ATOM      3  C   UNL     1      -4.274   3.790 -24.952  0.00  0.00    +0.008 A 
ATOM      4  C   UNL     1      -2.897   3.439 -24.546  0.00  0.00    -0.034 A 
ATOM      5  C   UNL     1      -2.735   3.159 -23.525  0.00  0.00    +0.012 A 
ATOM      6  C   UNL     1      -1.937   2.898 -23.057  0.00  0.00    +0.038 C 
ATOM      7  C   UNL     1      -3.445   3.332 -23.699  0.00  0.00    +0.067 C 
ATOM      8  C   UNL     1      -3.545   3.700 -25.129  0.00  0.00    +0.132 C 
ATOM      9  N   UNL     1      -2.575   3.686 -25.799  0.00  0.00    +0.236 N 
ATOM     10  H   UNL     1      -1.608   3.584 -26.106  0.00  0.00    +0.203 HD
ATOM     11  C   UNL     1      -1.144   3.283 -25.221  0.00  0.00    +0.078 C 
ATOM     12  C   UNL     1      -3.313   4.075 -26.835  0.00  0.00    +0.190 C 
ATOM     13  C   UNL     1      -1.732   2.566 -21.852  0.00  0.00    -0.061 C 
ATOM     14  C   UNL     1      -2.650   2.526 -21.002  0.00  0.00    +0.040 C 
ATOM     15  C   UNL     1      -0.527   2.250 -21.463  0.00  0.00    +0.001 C 
ATOM     16  C   UNL     1       0.487   2.272 -22.311  0.00  0.00    +0.011 C 
ATOM     17  C   UNL     1       0.321   2.607 -23.558  0.00  0.00    +0.005 C 
ATOM     18 BR   UNL     1       1.318   2.625 -24.377  0.00  0.00    -0.054 Br
ATOM     19  C   UNL     1      -0.832   2.920 -23.973  0.00  0.00    +0.090 C 
ATOM     20  C   UNL     1      -1.970   3.481 -25.413  0.00  0.00    +0.090 C 
ATOM     21  C   UNL     1      -3.689   3.109 -22.605  0.00  0.00    +0.163 A 
ENDROOT
BRANCH   1  23
ATOM     22  C   UNL     1      -6.841   2.625 -21.750  0.00  0.00    +0.277 C 
ATOM     23  O   UNL     1      -5.762   3.295 -21.813  0.00  0.00    -0.491 OA
ENDBRANCH   1  23
BRANCH  21  24
ATOM     24  O   UNL     1      -3.425   2.767 -21.405  0.00  0.00    -0.503 OA
ATOM     25  H   UNL     1      -2.748   3.208 -20.929  0.00  0.00    +0.292 HD
ENDBRANCH  21  24
TORSDOF 2
ENDMDL
