MODEL 1
REMARK VINA RESULT:   -10.350      0.000      0.000
REMARK INTER + INTRA:         -11.834
REMARK INTER:                 -11.479
REMARK INTRA:                  -0.354
REMARK UNBOUND:                 0.332
REMARK  Name = COc1ccc2c(c1Oc1ccccc1)[C@@]13CCN(C)[C@@H](C2)[C@H]1[C@H](C)CC(=O)C3  ZINC000253504571
REMARK  6 active torsions:
REMARK  status: ('A' for Active; 'I' for Inactive)
REMARK    1  A    between atoms: C_1  and  O_2
REMARK    2  A    between atoms: O_2  and  C_3
REMARK    3  A    between atoms: C_8  and  O_9
REMARK    4  A    between atoms: O_9  and  C_10
REMARK    5  A    between atoms: N_19  and  C_20
REMARK    6  A    between atoms: C_24  and  C_25
REMARK                            x       y       z     vdW  Elec       q    Type
REMARK                         _______ _______ _______ _____ _____    ______ ____
ROOT
ATOM      1  C   UNL     1      -1.790   2.710 -21.228  0.00  0.00    +0.162 A 
ATOM      2  C   UNL     1      -2.947   2.736 -20.727  0.00  0.00    +0.050 A 
ATOM      3  C   UNL     1      -3.928   2.970 -21.483  0.00  0.00    +0.008 A 
ATOM      4  C   UNL     1      -3.690   3.202 -22.908  0.00  0.00    -0.035 A 
ATOM      5  C   UNL     1      -2.694   3.164 -23.253  0.00  0.00    +0.009 A 
ATOM      6  C   UNL     1      -2.324   3.283 -24.120  0.00  0.00    +0.019 C 
ATOM      7  C   UNL     1      -2.785   3.043 -22.525  0.00  0.00    +0.063 C 
ATOM      8  C   UNL     1      -4.203   3.121 -22.167  0.00  0.00    +0.132 C 
ATOM      9  N   UNL     1      -4.990   3.349 -22.998  0.00  0.00    +0.236 N 
ATOM     10  H   UNL     1      -5.408   3.554 -23.905  0.00  0.00    +0.203 HD
ATOM     11  C   UNL     1      -4.579   3.578 -24.504  0.00  0.00    +0.073 C 
ATOM     12  C   UNL     1      -5.963   3.285 -22.101  0.00  0.00    +0.190 C 
ATOM     13  C   UNL     1      -1.141   3.239 -24.535  0.00  0.00    +0.086 C 
ATOM     14  C   UNL     1      -0.899   3.440 -25.789  0.00  0.00    +0.134 C 
ATOM     15  O   UNL     1       0.302   3.398 -26.222  0.00  0.00    -0.297 OA
ATOM     16  C   UNL     1      -1.866   3.690 -26.637  0.00  0.00    +0.078 C 
ATOM     17  C   UNL     1      -3.094   3.742 -26.244  0.00  0.00    +0.002 C 
ATOM     18  C   UNL     1      -4.040   3.986 -27.074  0.00  0.00    +0.008 C 
ATOM     19  C   UNL     1      -3.376   3.553 -25.037  0.00  0.00    +0.052 C 
ATOM     20  C   UNL     1      -4.678   3.436 -23.659  0.00  0.00    +0.090 C 
ATOM     21  C   UNL     1      -1.651   2.923 -22.489  0.00  0.00    +0.174 A 
ENDROOT
BRANCH   1  23
ATOM     22  C   UNL     1       0.095   1.434 -20.645  0.00  0.00    +0.277 C 
ATOM     23  O   UNL     1      -0.596   2.481 -20.618  0.00  0.00    -0.491 OA
ENDBRANCH   1  23
BRANCH  21  24
ATOM     24  O   UNL     1      -0.365   2.961 -23.422  0.00  0.00    -0.452 OA
BRANCH  24  25
ATOM     25  C   UNL     1       0.866   3.622 -23.357  0.00  0.00    +0.129 A 
ATOM     26  C   UNL     1       1.886   2.852 -23.350  0.00  0.00    +0.046 A 
ATOM     27  C   UNL     1       3.060   3.353 -23.293  0.00  0.00    +0.004 A 
ATOM     28  C   UNL     1       3.213   4.618 -23.243  0.00  0.00    +0.000 A 
ATOM     29  C   UNL     1       2.193   5.390 -23.250  0.00  0.00    +0.004 A 
ATOM     30  C   UNL     1       1.018   4.890 -23.307  0.00  0.00    +0.046 A 
ENDBRANCH  24  25
ENDBRANCH  21  24
TORSDOF 3
ENDMDL
