MODEL 1
REMARK VINA RESULT:    -9.396      0.000      0.000
REMARK INTER + INTRA:         -11.562
REMARK INTER:                 -11.666
REMARK INTRA:                   0.104
REMARK UNBOUND:                 0.306
REMARK  Name = ZINC000003831405
REMARK  6 active torsions:
REMARK  status: ('A' for Active; 'I' for Inactive)
REMARK    1  A    between atoms: C_2  and  C_3
REMARK    2  A    between atoms: C_10  and  C_11
REMARK    3  A    between atoms: C_11  and  O_12
REMARK    4  A    between atoms: C_11  and  C_13
REMARK    5  A    between atoms: C_20  and  O_21
REMARK    6  A    between atoms: O_21  and  C_22
REMARK                            x       y       z     vdW  Elec       q    Type
REMARK                         _______ _______ _______ _____ _____    ______ ____
ROOT
ATOM      1  C   UNL     1       0.910   3.546 -24.929  0.00  0.00    +0.193 C 
ENDROOT
BRANCH   1   2
ATOM      2  C   UNL     1       2.042   2.939 -24.602  0.00  0.00    -0.003 A 
ATOM      3  C   UNL     1       2.252   1.685 -24.971  0.00  0.00    +0.026 A 
ATOM      4  C   UNL     1       3.384   1.079 -24.644  0.00  0.00    +0.112 A 
ATOM      5  N   UNL     1       4.305   1.727 -23.948  0.00  0.00    -0.255 NA
ATOM      6  C   UNL     1       4.095   2.982 -23.578  0.00  0.00    +0.072 A 
ATOM      7  C   UNL     1       5.016   3.631 -22.881  0.00  0.00    +0.032 A 
ATOM      8  C   UNL     1       4.806   4.885 -22.512  0.00  0.00    +0.048 A 
ATOM      9  C   UNL     1       3.674   5.491 -22.839  0.00  0.00    +0.121 A 
ATOM     10  C   UNL     1       2.753   4.842 -23.535  0.00  0.00    +0.056 A 
ATOM     11  C   UNL     1       2.963   3.588 -23.905  0.00  0.00    +0.010 A 
BRANCH   9  12
ATOM     12  O   UNL     1       3.464   6.746 -22.469  0.00  0.00    -0.495 OA
ATOM     13  C   UNL     1       4.465   7.472 -21.996  0.00  0.00    +0.277 C 
ENDBRANCH   9  12
ENDBRANCH   1   2
BRANCH   1  20
ATOM     14  C   UNL     1      -2.177   3.519 -22.392  0.00  0.00    +0.060 C 
ATOM     15  C   UNL     1      -1.831   2.398 -23.041  0.00  0.00    +0.139 C 
ATOM     16  N   UNL     1      -0.795   2.417 -23.889  0.00  0.00    +0.240 N 
ATOM     17  H   UNL     1      -0.363   1.703 -24.476  0.00  0.00    +0.204 HD
ATOM     18  C   UNL     1      -1.405   2.989 -23.200  0.00  0.00    +0.132 C 
ATOM     19  C   UNL     1      -0.966   4.045 -23.221  0.00  0.00    +0.055 C 
ATOM     20  C   UNL     1      -0.113   3.535 -24.089  0.00  0.00    +0.098 C 
ATOM     21  C   UNL     1      -0.461   4.656 -23.439  0.00  0.00    +0.062 C 
ATOM     22  C   UNL     1      -1.484   4.645 -22.599  0.00  0.00    +0.011 C 
BRANCH  14  24
ATOM     23  C   UNL     1      -3.032   3.869 -20.279  0.00  0.00    +0.004 C 
ATOM     24  C   UNL     1      -3.211   3.512 -21.542  0.00  0.00    -0.026 C 
ENDBRANCH  14  24
ENDBRANCH   1  20
BRANCH   1  25
ATOM     25  O   UNL     1       0.802   4.163 -26.096  0.00  0.00    -0.382 OA
ATOM     26  H   UNL     1       1.566   4.745 -26.225  0.00  0.00    +0.211 HD
ENDBRANCH   1  25
TORSDOF 5
ENDMDL
