MODEL 1
REMARK VINA RESULT:    -9.708      0.000      0.000
REMARK INTER + INTRA:         -10.686
REMARK INTER:                 -11.729
REMARK INTRA:                   1.043
REMARK UNBOUND:                 1.008
REMARK  Name = ZINC000005408229
REMARK  8 active torsions:
REMARK  status: ('A' for Active; 'I' for Inactive)
REMARK    1  A    between atoms: C_1  and  O_2
REMARK    2  A    between atoms: O_2  and  C_3
REMARK    3  A    between atoms: C_6  and  C_7
REMARK    4  A    between atoms: C_8  and  O_9
REMARK    5  A    between atoms: C_11  and  O_12
REMARK    6  A    between atoms: O_12  and  C_13
REMARK    7  A    between atoms: C_22  and  C_23
REMARK    8  A    between atoms: C_22  and  C_24
REMARK                            x       y       z     vdW  Elec       q    Type
REMARK                         _______ _______ _______ _____ _____    ______ ____
ROOT
ATOM      1  C   UNL     1       1.573   2.549 -22.496  0.00  0.00    +0.109 A 
ATOM      2  C   UNL     1       0.585   3.074 -23.161  0.00  0.00    +0.146 A 
ATOM      3  C   UNL     1      -0.635   2.918 -22.740  0.00  0.00    +0.102 A 
ATOM      4  C   UNL     1      -1.623   3.442 -23.404  0.00  0.00    +0.141 A 
ATOM      5  C   UNL     1      -2.844   3.286 -22.983  0.00  0.00    +0.037 A 
ATOM      6  C   UNL     1      -3.076   2.606 -21.899  0.00  0.00    +0.131 A 
ATOM      7  O   UNL     1      -4.297   2.451 -21.479  0.00  0.00    -0.486 OA
ATOM      8  C   UNL     1      -5.284   2.975 -22.143  0.00  0.00    +0.105 C 
ATOM      9  C   UNL     1      -5.052   3.655 -23.226  0.00  0.00    +0.052 C 
ATOM     10  C   UNL     1      -6.499   3.303 -22.470  0.00  0.00    +0.055 C 
ATOM     11  C   UNL     1      -5.939   2.409 -21.173  0.00  0.00    +0.055 C 
ATOM     12  C   UNL     1      -2.088   2.083 -21.237  0.00  0.00    +0.093 A 
ATOM     13  C   UNL     1      -3.831   3.811 -23.647  0.00  0.00    +0.046 C 
ATOM     14  C   UNL     1      -0.868   2.238 -21.656  0.00  0.00    +0.150 A 
ATOM     15  O   UNL     1       0.120   1.714 -20.994  0.00  0.00    -0.421 OA
ATOM     16  C   UNL     1       1.340   1.869 -21.413  0.00  0.00    +0.349 A 
ATOM     17  O   UNL     1       2.327   1.346 -20.751  0.00  0.00    -0.244 OA
ENDROOT
BRANCH   1  21
ATOM     18  C   UNL     1       5.233   3.020 -23.758  0.00  0.00    +0.120 A 
ATOM     19  C   UNL     1       4.658   3.959 -23.066  0.00  0.00    +0.046 A 
ATOM     20  C   UNL     1       3.438   3.801 -22.646  0.00  0.00    +0.012 A 
ATOM     21  C   UNL     1       2.793   2.705 -22.917  0.00  0.00    -0.007 A 
ATOM     22  C   UNL     1       3.368   1.767 -23.609  0.00  0.00    +0.012 A 
ATOM     23  C   UNL     1       4.588   1.924 -24.030  0.00  0.00    +0.046 A 
BRANCH  18  25
ATOM     24  C   UNL     1       7.410   3.405 -23.328  0.00  0.00    +0.277 C 
ATOM     25  O   UNL     1       6.453   3.178 -24.179  0.00  0.00    -0.495 OA
ENDBRANCH  18  25
ENDBRANCH   1  21
BRANCH   4  26
ATOM     26  O   UNL     1      -1.390   4.122 -24.487  0.00  0.00    -0.494 OA
ATOM     27  C   UNL     1      -1.758   3.652 -25.642  0.00  0.00    +0.277 C 
ENDBRANCH   4  26
BRANCH   2  28
ATOM     28  O   UNL     1       0.818   3.754 -24.244  0.00  0.00    -0.505 OA
ATOM     29  H   UNL     1       0.128   4.242 -24.648  0.00  0.00    +0.292 HD
ENDBRANCH   2  28
TORSDOF 4
ENDMDL
