MODEL 1
REMARK VINA RESULT:   -10.906      0.000      0.000
REMARK INTER + INTRA:         -11.673
REMARK INTER:                 -11.525
REMARK INTRA:                  -0.149
REMARK UNBOUND:                -0.130
REMARK  Name = ZINC000090548555
REMARK  3 active torsions:
REMARK  status: ('A' for Active; 'I' for Inactive)
REMARK    1  A    between atoms: C_1  and  O_2
REMARK    2  A    between atoms: O_2  and  C_3
REMARK    3  A    between atoms: N_18  and  C_19
REMARK                            x       y       z     vdW  Elec       q    Type
REMARK                         _______ _______ _______ _____ _____    ______ ____
ROOT
ATOM      1  C   UNL     1       0.912   2.253 -23.267  0.00  0.00    +0.162 A 
ATOM      2  C   UNL     1       0.876   1.883 -22.059  0.00  0.00    +0.050 A 
ATOM      3  C   UNL     1      -0.199   1.901 -21.422  0.00  0.00    +0.008 A 
ATOM      4  C   UNL     1      -1.247   2.289 -21.985  0.00  0.00    -0.034 A 
ATOM      5  C   UNL     1      -1.234   2.663 -23.186  0.00  0.00    +0.012 A 
ATOM      6  C   UNL     1      -2.282   3.049 -23.742  0.00  0.00    +0.054 C 
ATOM      7  C   UNL     1      -3.410   3.509 -24.481  0.00  0.00    +0.067 C 
ATOM      8  C   UNL     1      -4.637   3.542 -23.790  0.00  0.00    +0.132 C 
ATOM      9  N   UNL     1      -4.640   3.121 -22.445  0.00  0.00    +0.236 N 
ATOM     10  H   UNL     1      -5.500   3.124 -21.898  0.00  0.00    +0.203 HD
ATOM     11  C   UNL     1      -5.685   3.119 -21.762  0.00  0.00    +0.190 C 
ATOM     12  C   UNL     1      -3.394   2.699 -21.902  0.00  0.00    +0.076 C 
ATOM     13  C   UNL     1      -3.359   3.069 -23.109  0.00  0.00    +0.075 C 
ATOM     14  C   UNL     1      -4.420   3.461 -23.673  0.00  0.00    -0.020 C 
ATOM     15  C   UNL     1      -4.391   3.829 -24.867  0.00  0.00    -0.008 C 
ATOM     16  C   UNL     1      -3.309   3.813 -25.517  0.00  0.00    +0.144 C 
ATOM     17 CL   UNL     1      -3.284   4.181 -26.709  0.00  0.00    -0.113 Cl
ATOM     18  C   UNL     1      -2.261   3.424 -24.954  0.00  0.00    +0.207 C 
ATOM     19  O   UNL     1      -0.779   3.166 -25.087  0.00  0.00    -0.482 OA
ATOM     20  C   UNL     1      -2.346   2.311 -21.341  0.00  0.00    +0.090 C 
ATOM     21  C   UNL     1      -0.151   2.645 -23.831  0.00  0.00    +0.167 A 
ENDROOT
BRANCH   1  23
ATOM     22  C   UNL     1       2.698   3.261 -23.961  0.00  0.00    +0.277 C 
ATOM     23  O   UNL     1       1.989   2.233 -23.899  0.00  0.00    -0.491 OA
ENDBRANCH   1  23
TORSDOF 1
ENDMDL
