MODEL 1
REMARK VINA RESULT:    -9.873      0.000      0.000
REMARK INTER + INTRA:         -10.871
REMARK INTER:                 -11.556
REMARK INTRA:                   0.685
REMARK UNBOUND:                 0.733
REMARK  Name = ZINC000005037432
REMARK  5 active torsions:
REMARK  status: ('A' for Active; 'I' for Inactive)
REMARK    1  A    between atoms: C_1  and  O_2
REMARK    2  A    between atoms: O_2  and  C_3
REMARK    3  A    between atoms: C_4  and  C_5
REMARK    4  A    between atoms: C_5  and  O_6
REMARK    5  A    between atoms: C_7  and  O_8
REMARK                            x       y       z     vdW  Elec       q    Type
REMARK                         _______ _______ _______ _____ _____    ______ ____
ROOT
ATOM      1  C   UNL     1       0.194   2.245 -23.370  0.00  0.00    +0.140 A 
ATOM      2  C   UNL     1       0.951   2.660 -24.342  0.00  0.00    +0.061 A 
ATOM      3  C   UNL     1       0.469   3.461 -25.245  0.00  0.00    +0.126 A 
ATOM      4  C   UNL     1      -0.771   3.847 -25.178  0.00  0.00    +0.058 A 
ATOM      5  C   UNL     1      -1.528   3.432 -24.205  0.00  0.00    +0.040 A 
ATOM      6  C   UNL     1      -2.768   3.818 -24.137  0.00  0.00    +0.195 C 
ATOM      7  O   UNL     1      -3.250   4.619 -25.041  0.00  0.00    -0.287 OA
ATOM      8  C   UNL     1      -3.525   3.403 -23.166  0.00  0.00    +0.033 A 
ATOM      9  C   UNL     1      -4.764   3.789 -23.097  0.00  0.00    +0.012 A 
ATOM     10  C   UNL     1      -5.522   3.374 -22.125  0.00  0.00    +0.001 A 
ATOM     11  C   UNL     1      -5.040   2.574 -21.222  0.00  0.00    +0.001 A 
ATOM     12  C   UNL     1      -3.800   2.188 -21.290  0.00  0.00    +0.012 A 
ATOM     13  C   UNL     1      -3.043   2.603 -22.262  0.00  0.00    +0.033 A 
ATOM     14  C   UNL     1      -1.803   2.217 -22.330  0.00  0.00    +0.198 C 
ATOM     15  O   UNL     1      -1.321   1.416 -21.427  0.00  0.00    -0.286 OA
ATOM     16  C   UNL     1      -1.045   2.631 -23.302  0.00  0.00    +0.075 A 
ENDROOT
BRANCH   1  18
ATOM     17  C   UNL     1       1.699   1.810 -21.753  0.00  0.00    +0.277 C 
ATOM     18  O   UNL     1       0.676   1.445 -22.467  0.00  0.00    -0.494 OA
ENDBRANCH   1  18
BRANCH   3  19
ATOM     19  O   UNL     1       1.226   3.876 -26.217  0.00  0.00    -0.506 OA
ATOM     20  H   UNL     1       1.334   4.794 -26.368  0.00  0.00    +0.292 HD
ENDBRANCH   3  19
BRANCH   2  21
ATOM     21  C   UNL     1       2.190   2.274 -24.410  0.00  0.00    +0.198 C 
BRANCH  21  22
ATOM     22  O   UNL     1       2.516   1.264 -25.162  0.00  0.00    -0.390 OA
ATOM     23  H   UNL     1       3.367   1.444 -25.593  0.00  0.00    +0.210 HD
ENDBRANCH  21  22
ENDBRANCH   2  21
TORSDOF 4
ENDMDL
