MODEL 1
REMARK VINA RESULT:    -7.453      0.000      0.000
REMARK INTER + INTRA:          -7.671
REMARK INTER:                  -7.671
REMARK INTRA:                   0.000
REMARK UNBOUND:                 0.000
REMARK  Name = ZINC000000338212
REMARK  2 active torsions:
REMARK  status: ('A' for Active; 'I' for Inactive)
REMARK    1  A    between atoms: C_1  and  C_2
REMARK    2  A    between atoms: C_7  and  O_8
REMARK                            x       y       z     vdW  Elec       q    Type
REMARK                         _______ _______ _______ _____ _____    ______ ____
ROOT
ATOM      1  C   UNL     1      -0.072   1.509 -21.380  0.00  0.00    +0.086 C 
ATOM      2  C   UNL     1      -1.072   2.034 -22.022  0.00  0.00    +0.106 A 
ATOM      3  C   UNL     1      -0.921   2.428 -23.252  0.00  0.00    +0.093 A 
ATOM      4  C   UNL     1      -1.922   2.954 -23.894  0.00  0.00    +0.196 A 
ATOM      5  C   UNL     1      -3.074   3.086 -23.306  0.00  0.00    +0.105 A 
ATOM      6  C   UNL     1      -4.075   3.612 -23.948  0.00  0.00    +0.131 A 
ATOM      7  C   UNL     1      -5.226   3.744 -23.360  0.00  0.00    +0.046 A 
ATOM      8  C   UNL     1      -5.377   3.351 -22.130  0.00  0.00    +0.007 A 
ATOM      9  C   UNL     1      -4.377   2.825 -21.488  0.00  0.00    +0.047 A 
ATOM     10  C   UNL     1      -3.225   2.693 -22.076  0.00  0.00    +0.142 A 
ATOM     11  O   UNL     1      -1.771   3.348 -25.123  0.00  0.00    -0.287 OA
ATOM     12  O   UNL     1      -2.224   2.167 -21.434  0.00  0.00    -0.460 OA
ENDROOT
BRANCH   6  13
ATOM     13  O   UNL     1      -3.924   4.006 -25.178  0.00  0.00    -0.506 OA
ATOM     14  H   UNL     1      -3.120   4.407 -25.446  0.00  0.00    +0.292 HD
ENDBRANCH   6  13
TORSDOF 1
ENDMDL
