MODEL 1
REMARK VINA RESULT:   -10.950      0.000      0.000
REMARK INTER + INTRA:         -14.220
REMARK INTER:                 -13.938
REMARK INTRA:                  -0.282
REMARK UNBOUND:                 0.571
REMARK  Name = ZINC000004104674
REMARK  9 active torsions:
REMARK  status: ('A' for Active; 'I' for Inactive)
REMARK    1  A    between atoms: C_1  and  C_2
REMARK    2  A    between atoms: C_2  and  C_3
REMARK    3  A    between atoms: C_3  and  C_4
REMARK    4  A    between atoms: C_4  and  C_5
REMARK    5  A    between atoms: C_5  and  C_6
REMARK    6  A    between atoms: C_6  and  O_8
REMARK    7  A    between atoms: O_8  and  C_9
REMARK    8  A    between atoms: C_22  and  C_23
REMARK    9  A    between atoms: C_27  and  C_28
REMARK                            x       y       z     vdW  Elec       q    Type
REMARK                         _______ _______ _______ _____ _____    ______ ____
ROOT
ATOM      1  C   UNL     1      -1.473   3.496 -23.604  0.00  0.00    +0.183 C 
ATOM      2  C   UNL     1      -1.634   2.242 -23.303  0.00  0.00    +0.045 C 
ATOM      3  C   UNL     1      -0.473   1.753 -22.979  0.00  0.00    +0.008 C 
ATOM      4  C   UNL     1       0.405   2.707 -23.080  0.00  0.00    +0.002 C 
ATOM      5  C   UNL     1       1.687   2.733 -22.869  0.00  0.00    -0.003 C 
ATOM      6  C   UNL     1       2.305   1.657 -22.483  0.00  0.00    +0.008 C 
ATOM      7  C   UNL     1       3.587   1.683 -22.273  0.00  0.00    +0.032 C 
ATOM      8  C   UNL     1       4.253   2.786 -22.449  0.00  0.00    -0.060 C 
ATOM      9  C   UNL     1       5.535   2.812 -22.238  0.00  0.00    +0.046 C 
ATOM     10  C   UNL     1       6.201   3.916 -22.414  0.00  0.00    +0.156 C 
ATOM     11  C   UNL     1       5.583   4.993 -22.801  0.00  0.00    +0.080 C 
ATOM     12  C   UNL     1       4.300   4.966 -23.011  0.00  0.00    +0.019 C 
ATOM     13  O   UNL     1       7.483   3.942 -22.204  0.00  0.00    -0.293 OA
ATOM     14  C   UNL     1       3.635   3.863 -22.835  0.00  0.00    -0.007 C 
ATOM     15  C   UNL     1       3.018   4.939 -23.221  0.00  0.00    +0.016 C 
ATOM     16  C   UNL     1       2.352   3.836 -23.045  0.00  0.00    +0.002 C 
ATOM     17  C   UNL     1       1.735   4.914 -23.432  0.00  0.00    +0.005 C 
ATOM     18  C   UNL     1       0.452   4.886 -23.642  0.00  0.00    +0.011 C 
ATOM     19  C   UNL     1      -0.212   3.784 -23.466  0.00  0.00    +0.008 C 
ATOM     20  C   UNL     1      -0.944   4.785 -23.852  0.00  0.00    +0.015 C 
ENDROOT
BRANCH   1  21
ATOM     21  O   UNL     1      -2.407   4.318 -23.978  0.00  0.00    -0.461 OA
BRANCH  21  22
ATOM     22  C   UNL     1      -3.521   3.859 -24.467  0.00  0.00    +0.307 C 
ATOM     23  O   UNL     1      -3.511   3.175 -25.573  0.00  0.00    -0.251 OA
BRANCH  22  24
ATOM     24  C   UNL     1      -4.643   4.083 -23.853  0.00  0.00    +0.120 C 
BRANCH  24  25
ATOM     25  C   UNL     1      -5.020   3.305 -22.880  0.00  0.00    +0.011 C 
BRANCH  25  26
ATOM     26  C   UNL     1      -4.820   3.663 -21.647  0.00  0.00    +0.000 C 
BRANCH  26  28
ATOM     27  C   UNL     1      -3.074   3.679 -20.224  0.00  0.00    +0.004 C 
ATOM     28  C   UNL     1      -3.958   3.022 -20.916  0.00  0.00    -0.003 C 
ENDBRANCH  26  28
ENDBRANCH  25  26
ENDBRANCH  24  25
ENDBRANCH  22  24
ENDBRANCH  21  22
ENDBRANCH   1  21
TORSDOF 6
ENDMDL
