MODEL 1
REMARK VINA RESULT:   -12.105      0.000      0.000
REMARK INTER + INTRA:         -12.459
REMARK INTER:                 -12.459
REMARK INTRA:                   0.000
REMARK UNBOUND:                 0.000
REMARK  Name = ZINC000038329342
REMARK  3 active torsions:
REMARK  status: ('A' for Active; 'I' for Inactive)
REMARK    1  A    between atoms: C_1  and  C_2
REMARK    2  A    between atoms: C_12  and  O_13
REMARK    3  A    between atoms: C_16  and  C_17
REMARK                            x       y       z     vdW  Elec       q    Type
REMARK                         _______ _______ _______ _____ _____    ______ ____
ROOT
ATOM      1  C   UNL     1      -4.840   2.884 -21.633  0.00  0.00    +0.019 C 
ATOM      2  C   UNL     1      -3.986   3.158 -22.573  0.00  0.00    +0.029 C 
ATOM      3  C   UNL     1      -3.467   2.553 -21.546  0.00  0.00    +0.015 C 
ATOM      4  C   UNL     1      -2.196   2.276 -21.529  0.00  0.00    +0.005 C 
ATOM      5  C   UNL     1      -1.446   2.606 -22.537  0.00  0.00    -0.001 C 
ATOM      6  C   UNL     1      -1.965   3.212 -23.564  0.00  0.00    +0.004 C 
ATOM      7  C   UNL     1      -1.214   3.542 -24.572  0.00  0.00    +0.078 C 
ATOM      8  C   UNL     1       0.056   3.266 -24.555  0.00  0.00    +0.137 C 
ATOM      9  C   UNL     1       0.576   2.660 -23.528  0.00  0.00    +0.064 C 
ATOM     10  C   UNL     1       1.845   2.384 -23.511  0.00  0.00    +0.043 C 
ATOM     11  C   UNL     1       2.365   1.778 -22.485  0.00  0.00    +0.115 C 
ATOM     12  C   UNL     1       1.614   1.448 -21.476  0.00  0.00    +0.032 C 
ATOM     13  C   UNL     1       0.344   1.724 -21.493  0.00  0.00    +0.010 C 
ATOM     14  O   UNL     1       0.807   3.596 -25.563  0.00  0.00    -0.297 OA
ATOM     15  C   UNL     1      -0.176   2.330 -22.520  0.00  0.00    -0.019 C 
ATOM     16  C   UNL     1      -0.926   2.000 -21.511  0.00  0.00    +0.012 C 
ATOM     17  C   UNL     1      -5.201   3.541 -22.834  0.00  0.00    +0.139 C 
ATOM     18  O   UNL     1      -6.235   3.385 -22.061  0.00  0.00    -0.297 OA
ATOM     19  C   UNL     1      -5.200   4.107 -24.004  0.00  0.00    +0.075 C 
ATOM     20  C   UNL     1      -3.986   4.075 -24.466  0.00  0.00    +0.012 C 
ATOM     21  C   UNL     1      -3.235   3.489 -23.581  0.00  0.00    +0.006 C 
ENDROOT
BRANCH  11  22
ATOM     22  O   UNL     1       3.635   1.502 -22.467  0.00  0.00    -0.392 OA
ATOM     23  H   UNL     1       3.756   0.543 -22.389  0.00  0.00    +0.210 HD
ENDBRANCH  11  22
TORSDOF 1
ENDMDL
