MODEL 1
REMARK VINA RESULT:   -10.008      0.000      0.000
REMARK INTER + INTRA:         -10.008
REMARK INTER:                 -10.008
REMARK INTRA:                   0.000
REMARK UNBOUND:                 0.000
REMARK  Name = C[C@@H]1C(=O)O[C@H]2[C@@H]1CC[C@]1(C)O[C@@H]1CC[C@@]1(C)O[C@H]21     ZINC000253390664
REMARK  3 active torsions:
REMARK  status: ('A' for Active; 'I' for Inactive)
REMARK    1  A    between atoms: C_1  and  C_2
REMARK    2  A    between atoms: C_10  and  C_11
REMARK    3  A    between atoms: C_16  and  C_17
REMARK                            x       y       z     vdW  Elec       q    Type
REMARK                         _______ _______ _______ _____ _____    ______ ____
ROOT
ATOM      1  C   UNL     1      -0.697   1.999 -21.272  0.00  0.00    +0.019 C 
ATOM      2  C   UNL     1      -0.517   2.302 -22.523  0.00  0.00    +0.101 C 
ATOM      3  C   UNL     1       0.605   2.227 -23.174  0.00  0.00    +0.311 C 
ATOM      4  O   UNL     1       0.388   2.612 -24.396  0.00  0.00    -0.458 OA
ATOM      5  C   UNL     1      -0.869   2.927 -24.500  0.00  0.00    +0.212 C 
ATOM      6  C   UNL     1      -1.577   3.362 -25.500  0.00  0.00    +0.191 C 
ATOM      7  O   UNL     1      -2.285   3.798 -26.500  0.00  0.00    -0.361 OA
ATOM      8  C   UNL     1      -2.844   3.607 -25.342  0.00  0.00    +0.097 C 
ATOM      9  C   UNL     1      -3.984   3.999 -25.828  0.00  0.00    +0.044 C 
ATOM     10  C   UNL     1      -3.403   3.415 -24.185  0.00  0.00    +0.040 C 
ATOM     11  C   UNL     1      -4.671   3.659 -24.027  0.00  0.00    +0.037 C 
ATOM     12  C   UNL     1      -5.230   3.468 -22.869  0.00  0.00    +0.151 C 
ATOM     13  O   UNL     1      -5.790   3.276 -21.711  0.00  0.00    -0.365 OA
ATOM     14  C   UNL     1      -4.523   3.032 -21.869  0.00  0.00    +0.093 C 
ATOM     15  C   UNL     1      -4.437   2.670 -20.624  0.00  0.00    +0.044 C 
ATOM     16  C   UNL     1      -3.256   2.788 -22.027  0.00  0.00    +0.038 C 
ATOM     17  C   UNL     1      -2.696   2.979 -23.185  0.00  0.00    +0.011 C 
ATOM     18  O   UNL     1       1.745   1.834 -22.688  0.00  0.00    -0.251 OA
ATOM     19  C   UNL     1      -1.429   2.735 -23.343  0.00  0.00    +0.046 C 
ENDROOT
TORSDOF 0
ENDMDL
