MODEL 1
REMARK VINA RESULT:   -12.484      0.000      0.000
REMARK INTER + INTRA:         -15.211
REMARK INTER:                 -14.354
REMARK INTRA:                  -0.858
REMARK UNBOUND:                -0.538
REMARK  Name = COc1ccc2c(c1Oc1ccccc1)[C@@]13CC=CC=C1[C@H](C2)NCC3                   ZINC000100393743
REMARK  4 active torsions:
REMARK  status: ('A' for Active; 'I' for Inactive)
REMARK    1  A    between atoms: C_1  and  O_2
REMARK    2  A    between atoms: O_2  and  C_3
REMARK    3  A    between atoms: C_8  and  O_9
REMARK    4  A    between atoms: O_9  and  C_10
REMARK                            x       y       z     vdW  Elec       q    Type
REMARK                         _______ _______ _______ _____ _____    ______ ____
ROOT
ATOM      1  C   UNL     1      -2.163   2.686 -21.439  0.00  0.00    +0.162 A 
ATOM      2  C   UNL     1      -3.169   2.804 -20.695  0.00  0.00    +0.050 A 
ATOM      3  C   UNL     1      -4.270   3.121 -21.208  0.00  0.00    +0.008 A 
ATOM      4  C   UNL     1      -4.341   3.340 -22.639  0.00  0.00    -0.034 A 
ATOM      5  C   UNL     1      -3.465   3.226 -23.203  0.00  0.00    +0.013 A 
ATOM      6  C   UNL     1      -3.295   3.320 -24.125  0.00  0.00    +0.034 C 
ATOM      7  C   UNL     1      -2.221   3.175 -24.785  0.00  0.00    +0.043 C 
ATOM      8  C   UNL     1      -2.224   3.358 -26.065  0.00  0.00    -0.026 C 
ATOM      9  C   UNL     1      -3.334   3.693 -26.688  0.00  0.00    -0.004 C 
ATOM     10  C   UNL     1      -4.456   3.850 -26.043  0.00  0.00    +0.005 C 
ATOM     11  C   UNL     1      -3.420   3.110 -22.459  0.00  0.00    +0.067 C 
ATOM     12  C   UNL     1      -4.735   3.306 -21.779  0.00  0.00    +0.131 C 
ATOM     13  N   UNL     1      -5.676   3.610 -22.446  0.00  0.00    +0.233 N 
ATOM     14  H   UNL     1      -5.880   4.555 -22.122  0.00  0.00    +0.202 HD
ATOM     15  H   UNL     1      -6.378   2.883 -22.301  0.00  0.00    +0.202 HD
ATOM     16  C   UNL     1      -5.549   3.801 -23.992  0.00  0.00    +0.095 C 
ATOM     17  C   UNL     1      -4.490   3.680 -24.794  0.00  0.00    -0.011 C 
ATOM     18  C   UNL     1      -5.396   3.639 -23.086  0.00  0.00    +0.094 C 
ATOM     19  C   UNL     1      -2.296   2.894 -22.695  0.00  0.00    +0.174 A 
ENDROOT
BRANCH   1  21
ATOM     20  C   UNL     1      -0.436   1.219 -21.213  0.00  0.00    +0.277 C 
ATOM     21  O   UNL     1      -0.964   2.358 -21.006  0.00  0.00    -0.491 OA
ENDBRANCH   1  21
BRANCH  19  22
ATOM     22  O   UNL     1      -1.240   2.817 -23.803  0.00  0.00    -0.452 OA
BRANCH  22  23
ATOM     23  C   UNL     1       0.042   3.341 -23.910  0.00  0.00    +0.129 A 
ATOM     24  C   UNL     1       0.202   4.553 -23.518  0.00  0.00    +0.046 A 
ATOM     25  C   UNL     1       1.362   5.098 -23.590  0.00  0.00    +0.004 A 
ATOM     26  C   UNL     1       2.355   4.436 -24.051  0.00  0.00    +0.000 A 
ATOM     27  C   UNL     1       2.196   3.224 -24.444  0.00  0.00    +0.004 A 
ATOM     28  C   UNL     1       1.038   2.677 -24.372  0.00  0.00    +0.046 A 
ENDBRANCH  22  23
ENDBRANCH  19  22
TORSDOF 3
ENDMDL
