MODEL 1
REMARK VINA RESULT:    -9.552      0.000      0.000
REMARK INTER + INTRA:         -12.288
REMARK INTER:                 -11.662
REMARK INTRA:                  -0.627
REMARK UNBOUND:                -0.503
REMARK  Name = ZINC000013425022
REMARK  4 active torsions:
REMARK  status: ('A' for Active; 'I' for Inactive)
REMARK    1  A    between atoms: C_2  and  O_3
REMARK    2  A    between atoms: C_2  and  C_15
REMARK    3  A    between atoms: O_3  and  C_4
REMARK    4  A    between atoms: C_4  and  C_5
REMARK                            x       y       z     vdW  Elec       q    Type
REMARK                         _______ _______ _______ _____ _____    ______ ____
ROOT
ATOM      1  C   UNL     1      -1.286   2.244 -23.492  0.00  0.00    +0.241 C 
ENDROOT
BRANCH   1   2
ATOM      2  C   UNL     1      -2.307   2.811 -24.066  0.00  0.00    +0.075 C 
ATOM      3  C   UNL     1      -2.223   3.197 -25.305  0.00  0.00    +0.017 C 
ATOM      4  C   UNL     1      -3.243   3.763 -25.878  0.00  0.00    +0.051 C 
ATOM      5  C   UNL     1      -4.346   3.943 -25.213  0.00  0.00    +0.131 C 
ATOM      6  N   UNL     1      -4.429   3.557 -23.975  0.00  0.00    +0.238 N 
ATOM      7  H   UNL     1      -5.390   3.895 -23.930  0.00  0.00    +0.204 HD
ATOM      8  C   UNL     1      -5.531   3.737 -23.310  0.00  0.00    +0.131 C 
ATOM      9  C   UNL     1      -5.614   3.351 -22.071  0.00  0.00    +0.051 C 
ATOM     10  C   UNL     1      -4.594   2.784 -21.498  0.00  0.00    +0.011 C 
ATOM     11  C   UNL     1      -3.491   2.604 -22.163  0.00  0.00    +0.055 C 
ATOM     12  C   UNL     1      -3.409   2.991 -23.401  0.00  0.00    +0.071 C 
ENDBRANCH   1   2
BRANCH   1  13
ATOM     13  O   UNL     1      -0.095   2.396 -23.988  0.00  0.00    -0.461 OA
BRANCH  13  15
ATOM     14  O   UNL     1       1.044   1.140 -22.507  0.00  0.00    -0.245 OA
ATOM     15  C   UNL     1       0.951   2.211 -23.237  0.00  0.00    +0.339 C 
BRANCH  15  16
ATOM     16  C   UNL     1       1.901   3.097 -23.217  0.00  0.00    +0.060 A 
ATOM     17  C   UNL     1       1.609   4.363 -23.201  0.00  0.00    +0.015 A 
ATOM     18  C   UNL     1       2.561   5.249 -23.181  0.00  0.00    +0.002 A 
ATOM     19  C   UNL     1       3.804   4.868 -23.177  0.00  0.00    +0.015 A 
ATOM     20  C   UNL     1       4.095   3.601 -23.193  0.00  0.00    +0.019 A 
ATOM     21 BR   UNL     1       5.338   3.220 -23.188  0.00  0.00    -0.050 Br
ATOM     22  C   UNL     1       3.145   2.715 -23.213  0.00  0.00    +0.030 A 
ENDBRANCH  15  16
ENDBRANCH  13  15
ENDBRANCH   1  13
TORSDOF 4
ENDMDL
