MODEL 1
REMARK VINA RESULT:   -11.896      0.000      0.000
REMARK INTER + INTRA:         -11.896
REMARK INTER:                 -11.896
REMARK INTRA:                   0.000
REMARK UNBOUND:                 0.000
REMARK  Name = CN1C2=C3N=c4ccccc4=C3CCN2C(=O)c2ccccc21                              ZINC000103550758
REMARK  1 active torsions:
REMARK  status: ('A' for Active; 'I' for Inactive)
REMARK    1  A    between atoms: C_1  and  N_2
REMARK                            x       y       z     vdW  Elec       q    Type
REMARK                         _______ _______ _______ _____ _____    ______ ____
ROOT
ATOM      1  C   UNL     1       0.065   1.502 -21.187  0.00  0.00    +0.151 C 
ATOM      2  N   UNL     1       0.532   1.948 -22.316  0.00  0.00    -0.328 N 
ATOM      3  C   UNL     1      -0.263   2.535 -23.162  0.00  0.00    +0.143 A 
ATOM      4  C   UNL     1      -1.524   2.675 -22.879  0.00  0.00    +0.109 C 
ATOM      5  N   UNL     1      -2.227   2.326 -21.842  0.00  0.00    -0.243 NA
ATOM      6  C   UNL     1      -3.456   2.697 -22.048  0.00  0.00    +0.072 A 
ATOM      7  C   UNL     1      -4.531   2.583 -21.325  0.00  0.00    +0.028 A 
ATOM      8  C   UNL     1      -5.663   3.047 -21.766  0.00  0.00    +0.002 A 
ATOM      9  C   UNL     1      -5.719   3.625 -22.929  0.00  0.00    +0.001 A 
ATOM     10  C   UNL     1      -4.644   3.739 -23.651  0.00  0.00    +0.010 A 
ATOM     11  C   UNL     1      -3.512   3.275 -23.210  0.00  0.00    +0.006 A 
ATOM     12  C   UNL     1      -2.318   3.261 -23.724  0.00  0.00    -0.008 C 
ATOM     13  C   UNL     1      -1.852   3.707 -24.852  0.00  0.00    +0.060 C 
ATOM     14  C   UNL     1      -0.591   3.567 -25.136  0.00  0.00    +0.131 C 
ATOM     15  N   UNL     1       0.204   2.981 -24.290  0.00  0.00    -0.292 N 
ATOM     16  C   UNL     1       1.465   2.840 -24.573  0.00  0.00    +0.262 A 
ATOM     17  C   UNL     1       2.259   2.254 -23.727  0.00  0.00    +0.063 A 
ATOM     18  C   UNL     1       3.521   2.113 -24.010  0.00  0.00    +0.015 A 
ATOM     19  C   UNL     1       4.314   1.526 -23.164  0.00  0.00    +0.001 A 
ATOM     20  C   UNL     1       3.848   1.081 -22.037  0.00  0.00    +0.002 A 
ATOM     21  C   UNL     1       2.587   1.221 -21.754  0.00  0.00    +0.026 A 
ATOM     22  O   UNL     1       1.931   3.286 -25.701  0.00  0.00    -0.267 OA
ATOM     23  C   UNL     1       1.793   1.807 -22.599  0.00  0.00    +0.056 A 
ENDROOT
TORSDOF 0
ENDMDL
