MODEL 1
REMARK VINA RESULT:    -8.349      0.000      0.000
REMARK INTER + INTRA:          -8.933
REMARK INTER:                  -9.227
REMARK INTRA:                   0.294
REMARK UNBOUND:                 0.148
REMARK  Name = ZINC000036649201
REMARK  4 active torsions:
REMARK  status: ('A' for Active; 'I' for Inactive)
REMARK    1  A    between atoms: C_1  and  C_2
REMARK    2  A    between atoms: C_3  and  C_4
REMARK    3  A    between atoms: C_7  and  O_8
REMARK    4  A    between atoms: C_18  and  C_19
REMARK                            x       y       z     vdW  Elec       q    Type
REMARK                         _______ _______ _______ _____ _____    ______ ____
ROOT
ATOM      1  C   UNL     1      -3.954   3.741 -24.566  0.00  0.00    +0.009 C 
ATOM      2  C   UNL     1      -2.684   3.595 -24.801  0.00  0.00    +0.001 C 
ATOM      3  C   UNL     1      -1.848   3.493 -23.811  0.00  0.00    +0.052 C 
ATOM      4  C   UNL     1      -0.577   3.347 -24.046  0.00  0.00    -0.033 A 
ATOM      5  C   UNL     1       0.259   3.246 -23.056  0.00  0.00    +0.054 A 
ATOM      6  C   UNL     1       1.529   3.100 -23.291  0.00  0.00    +0.167 A 
ATOM      7  C   UNL     1       1.963   3.055 -24.517  0.00  0.00    +0.167 A 
ATOM      8  O   UNL     1       3.254   2.905 -24.480  0.00  0.00    -0.453 OA
ATOM      9  C   UNL     1       3.618   2.858 -23.233  0.00  0.00    +0.466 C 
ATOM     10  C   UNL     1       1.126   3.156 -25.506  0.00  0.00    +0.053 A 
ATOM     11  O   UNL     1       2.552   2.978 -22.499  0.00  0.00    -0.453 OA
ATOM     12  C   UNL     1      -0.143   3.302 -25.271  0.00  0.00    -0.040 A 
ATOM     13  C   UNL     1      -0.981   3.403 -26.261  0.00  0.00    +0.039 C 
ATOM     14  C   UNL     1      -2.250   3.550 -26.026  0.00  0.00    -0.006 C 
ATOM     15  C   UNL     1      -3.087   3.651 -27.016  0.00  0.00    +0.008 C 
ENDROOT
BRANCH   3  16
ATOM     16  C   UNL     1      -2.281   3.538 -22.587  0.00  0.00    -0.039 A 
ATOM     17  C   UNL     1      -2.076   4.598 -21.863  0.00  0.00    +0.008 A 
ATOM     18  C   UNL     1      -2.509   4.643 -20.638  0.00  0.00    +0.045 A 
ATOM     19  C   UNL     1      -3.148   3.628 -20.137  0.00  0.00    +0.117 A 
ATOM     20  C   UNL     1      -3.355   2.568 -20.861  0.00  0.00    +0.045 A 
ATOM     21  C   UNL     1      -2.921   2.523 -22.086  0.00  0.00    +0.008 A 
BRANCH  19  22
ATOM     22  O   UNL     1      -3.582   3.673 -18.912  0.00  0.00    -0.507 OA
ATOM     23  H   UNL     1      -2.974   3.669 -18.200  0.00  0.00    +0.292 HD
ENDBRANCH  19  22
ENDBRANCH   3  16
TORSDOF 2
ENDMDL
