MODEL 1
REMARK VINA RESULT:   -10.798      0.000      0.000
REMARK INTER + INTRA:         -12.926
REMARK INTER:                 -12.551
REMARK INTRA:                  -0.375
REMARK UNBOUND:                 0.082
REMARK  Name = ZINC000005734226
REMARK  6 active torsions:
REMARK  status: ('A' for Active; 'I' for Inactive)
REMARK    1  A    between atoms: C_1  and  O_2
REMARK    2  A    between atoms: O_2  and  C_3
REMARK    3  A    between atoms: C_3  and  C_5
REMARK    4  A    between atoms: C_15  and  O_16
REMARK    5  A    between atoms: O_16  and  C_17
REMARK    6  A    between atoms: C_27  and  O_28
REMARK                            x       y       z     vdW  Elec       q    Type
REMARK                         _______ _______ _______ _____ _____    ______ ____
ROOT
ATOM      1  C   UNL     1      -3.903   3.381 -22.968  0.00  0.00    +0.130 C 
ATOM      2  C   UNL     1      -2.752   3.298 -23.569  0.00  0.00    +0.019 C 
ATOM      3  C   UNL     1      -1.713   2.857 -22.927  0.00  0.00    +0.066 C 
ATOM      4  C   UNL     1      -0.562   2.774 -23.527  0.00  0.00    +0.113 C 
ATOM      5  C   UNL     1       0.476   2.334 -22.886  0.00  0.00    +0.069 A 
ATOM      6  N   UNL     1       0.633   1.919 -21.663  0.00  0.00    -0.353 N 
ATOM      7  H   UNL     1      -0.069   1.869 -20.975  0.00  0.00    +0.166 HD
ATOM      8  C   UNL     1       1.879   1.580 -21.508  0.00  0.00    +0.051 A 
ATOM      9  C   UNL     1       2.531   1.111 -20.486  0.00  0.00    +0.026 A 
ATOM     10  C   UNL     1       3.800   0.849 -20.595  0.00  0.00    +0.006 A 
ATOM     11  C   UNL     1       4.416   1.054 -21.723  0.00  0.00    +0.046 A 
ATOM     12  C   UNL     1       3.761   1.523 -22.743  0.00  0.00    +0.129 A 
ATOM     13  C   UNL     1       2.493   1.786 -22.637  0.00  0.00    +0.045 A 
ATOM     14  C   UNL     1       1.627   2.252 -23.487  0.00  0.00    -0.005 A 
ATOM     15  C   UNL     1       1.735   2.612 -24.733  0.00  0.00    +0.088 C 
ATOM     16  C   UNL     1       0.696   3.053 -25.373  0.00  0.00    +0.136 C 
ATOM     17  N   UNL     1      -0.454   3.135 -24.773  0.00  0.00    +0.242 N 
ATOM     18  H   UNL     1      -1.222   3.491 -25.343  0.00  0.00    +0.204 HD
ATOM     19  C   UNL     1      -1.494   3.576 -25.415  0.00  0.00    +0.135 C 
ATOM     20  C   UNL     1      -2.644   3.659 -24.814  0.00  0.00    +0.039 C 
ATOM     21  C   UNL     1      -3.683   4.100 -25.455  0.00  0.00    +0.011 C 
ATOM     22  C   UNL     1      -4.834   4.183 -24.856  0.00  0.00    +0.032 C 
ATOM     23  C   UNL     1      -4.941   3.822 -23.611  0.00  0.00    +0.129 C 
ENDROOT
BRANCH   1  24
ATOM     24  C   UNL     1      -4.011   3.021 -21.723  0.00  0.00    +0.313 C 
ATOM     25  O   UNL     1      -4.217   1.774 -21.422  0.00  0.00    -0.250 OA
BRANCH  24  27
ATOM     26  C   UNL     1      -3.040   3.753 -19.828  0.00  0.00    +0.280 C 
ATOM     27  O   UNL     1      -3.911   3.910 -20.780  0.00  0.00    -0.468 OA
ENDBRANCH  24  27
ENDBRANCH   1  24
BRANCH  12  28
ATOM     28  O   UNL     1       4.377   1.729 -23.871  0.00  0.00    -0.494 OA
ATOM     29  C   UNL     1       5.284   2.655 -23.956  0.00  0.00    +0.277 C 
ENDBRANCH  12  28
BRANCH  23  30
ATOM     30  O   UNL     1      -6.092   3.905 -23.009  0.00  0.00    -0.391 OA
ATOM     31  H   UNL     1      -6.521   3.035 -23.011  0.00  0.00    +0.210 HD
ENDBRANCH  23  30
TORSDOF 4
ENDMDL
