MODEL 1
REMARK VINA RESULT:    -9.979      0.000      0.000
REMARK INTER + INTRA:         -13.598
REMARK INTER:                 -12.713
REMARK INTRA:                  -0.885
REMARK UNBOUND:                -0.410
REMARK  Name = ZINC000004257486
REMARK  7 active torsions:
REMARK  status: ('A' for Active; 'I' for Inactive)
REMARK    1  A    between atoms: O5*_1  and  C5*_2
REMARK    2  A    between atoms: C5*_2  and  C4*_3
REMARK    3  A    between atoms: C1*_5  and  N_6
REMARK    4  A    between atoms: N_11  and  C_12
REMARK    5  A    between atoms: C_12  and  C_13
REMARK    6  A    between atoms: C2*_23  and  O2*_24
REMARK    7  A    between atoms: C3*_25  and  O3*_26
REMARK                            x       y       z     vdW  Elec       q    Type
REMARK                         _______ _______ _______ _____ _____    ______ ____
ROOT
ATOM      1  N   UNL     1       3.226   2.377 -23.024  0.00  0.00    -0.286 N 
ATOM      2  C   UNL     1       2.736   1.174 -23.045  0.00  0.00    +0.203 A 
ATOM      3  N   UNL     1       1.461   1.263 -23.288  0.00  0.00    -0.231 NA
ATOM      4  C   UNL     1       1.164   2.522 -23.417  0.00  0.00    +0.147 A 
ATOM      5  C   UNL     1       0.042   3.131 -23.663  0.00  0.00    +0.150 A 
ATOM      6  N   UNL     1       0.010   4.428 -23.745  0.00  0.00    -0.219 NA
ATOM      7  C   UNL     1       1.100   5.117 -23.581  0.00  0.00    +0.225 A 
ATOM      8  N   UNL     1       2.223   4.508 -23.336  0.00  0.00    -0.216 NA
ATOM      9  N   UNL     1      -1.049   2.443 -23.826  0.00  0.00    -0.323 N 
ATOM     10  H   UNL     1      -1.024   1.460 -23.764  0.00  0.00    +0.148 HD
ATOM     11  C   UNL     1       2.255   3.211 -23.254  0.00  0.00    +0.167 A 
ENDROOT
BRANCH   1  14
ATOM     12  C4* UNL     1       6.473   3.250 -23.122  0.00  0.00    +0.177 C 
ATOM     13  O4* UNL     1       5.348   2.994 -23.720  0.00  0.00    -0.346 OA
ATOM     14  C1* UNL     1       4.468   2.693 -22.810  0.00  0.00    +0.253 C 
ATOM     15  C2* UNL     1       5.051   2.763 -21.650  0.00  0.00    +0.195 C 
ATOM     16  C3* UNL     1       6.290   3.108 -21.843  0.00  0.00    +0.178 C 
BRANCH  15  17
ATOM     17  O2* UNL     1       4.493   2.531 -20.500  0.00  0.00    -0.385 OA
ATOM     18  H2* UNL     1       4.026   3.326 -20.200  0.00  0.00    +0.210 HD
ENDBRANCH  15  17
BRANCH  16  19
ATOM     19  O3* UNL     1       7.188   3.280 -20.919  0.00  0.00    -0.386 OA
ATOM     20  H3* UNL     1       7.635   2.437 -20.743  0.00  0.00    +0.210 HD
ENDBRANCH  16  19
BRANCH  12  21
ATOM     21  C5* UNL     1       7.586   3.589 -23.701  0.00  0.00    +0.190 C 
BRANCH  21  22
ATOM     22  O5* UNL     1       8.649   2.858 -23.544  0.00  0.00    -0.392 OA
ATOM     23  H5* UNL     1       8.636   2.455 -22.662  0.00  0.00    +0.210 HD
ENDBRANCH  21  22
ENDBRANCH  12  21
ENDBRANCH   1  14
BRANCH   9  24
ATOM     24  C   UNL     1      -2.171   3.051 -24.071  0.00  0.00    +0.138 C 
BRANCH  24  25
ATOM     25  C   UNL     1      -3.128   3.029 -23.191  0.00  0.00    -0.030 A 
ATOM     26  C   UNL     1      -2.912   2.534 -22.009  0.00  0.00    +0.005 A 
ATOM     27  C   UNL     1      -3.869   2.513 -21.129  0.00  0.00    +0.000 A 
ATOM     28  C   UNL     1      -5.041   2.987 -21.432  0.00  0.00    +0.000 A 
ATOM     29  C   UNL     1      -5.257   3.482 -22.615  0.00  0.00    +0.000 A 
ATOM     30  C   UNL     1      -4.300   3.503 -23.494  0.00  0.00    +0.005 A 
ENDBRANCH  24  25
ENDBRANCH   9  24
TORSDOF 7
ENDMDL
