MODEL 1
REMARK VINA RESULT:    -6.736      0.000      0.000
REMARK INTER + INTRA:          -8.135
REMARK INTER:                  -7.911
REMARK INTRA:                  -0.224
REMARK UNBOUND:                -0.217
REMARK  Name = ZINC000000058172
REMARK  4 active torsions:
REMARK  status: ('A' for Active; 'I' for Inactive)
REMARK    1  A    between atoms: C_2  and  C_4
REMARK    2  A    between atoms: C_5  and  C_6
REMARK    3  A    between atoms: C_9  and  O_10
REMARK    4  A    between atoms: C_11  and  O_12
REMARK                            x       y       z     vdW  Elec       q    Type
REMARK                         _______ _______ _______ _____ _____    ______ ____
ROOT
ATOM      1  C   UNL     1      -2.469   2.609 -21.776  0.00  0.00    -0.021 A 
ATOM      2  C   UNL     1      -3.520   2.595 -21.010  0.00  0.00    +0.012 A 
ATOM      3  C   UNL     1      -4.665   3.005 -21.471  0.00  0.00    +0.050 A 
ATOM      4  C   UNL     1      -4.759   3.429 -22.696  0.00  0.00    +0.158 A 
ATOM      5  C   UNL     1      -3.708   3.442 -23.461  0.00  0.00    +0.159 A 
ATOM      6  C   UNL     1      -2.563   3.032 -23.002  0.00  0.00    +0.057 A 
ENDROOT
BRANCH   1   8
ATOM      7  C   UNL     1      -0.449   1.677 -22.122  0.00  0.00    +0.025 C 
ATOM      8  C   UNL     1      -1.325   2.199 -21.316  0.00  0.00    +0.010 C 
BRANCH   7  10
ATOM      9  O   UNL     1       0.946   1.336 -20.388  0.00  0.00    -0.545 OA
ATOM     10  C   UNL     1       0.695   1.267 -21.662  0.00  0.00    +0.065 C 
ATOM     11  O   UNL     1       1.590   0.789 -22.475  0.00  0.00    -0.545 OA
ENDBRANCH   7  10
ENDBRANCH   1   8
BRANCH   5  12
ATOM     12  O   UNL     1      -3.802   3.865 -24.687  0.00  0.00    -0.503 OA
ATOM     13  H   UNL     1      -4.337   4.608 -24.886  0.00  0.00    +0.292 HD
ENDBRANCH   5  12
BRANCH   4  14
ATOM     14  O   UNL     1      -5.903   3.839 -23.156  0.00  0.00    -0.503 OA
ATOM     15  H   UNL     1      -6.373   4.514 -22.708  0.00  0.00    +0.292 HD
ENDBRANCH   4  14
TORSDOF 4
ENDMDL
