MODEL 1
REMARK VINA RESULT:    -8.760      0.000      0.000
REMARK INTER + INTRA:         -10.116
REMARK INTER:                  -9.803
REMARK INTRA:                  -0.313
REMARK UNBOUND:                 0.181
REMARK  Name = ZINC000000001904
REMARK  5 active torsions:
REMARK  status: ('A' for Active; 'I' for Inactive)
REMARK    1  A    between atoms: C_1  and  C_2
REMARK    2  A    between atoms: C_2  and  C_3
REMARK    3  A    between atoms: C_4  and  C_5
REMARK    4  A    between atoms: C_5  and  O_6
REMARK    5  A    between atoms: O_6  and  C_7
REMARK                            x       y       z     vdW  Elec       q    Type
REMARK                         _______ _______ _______ _____ _____    ______ ____
ROOT
ATOM      1  C   UNL     1       0.842   1.768 -22.888  0.00  0.00    +0.207 A 
ATOM      2  C   UNL     1       0.577   2.666 -23.959  0.00  0.00    +0.180 A 
ATOM      3  O   UNL     1      -0.645   3.108 -24.437  0.00  0.00    -0.459 OA
ATOM      4  C   UNL     1      -0.394   3.967 -25.472  0.00  0.00    +0.196 A 
ATOM      5  C   UNL     1       0.952   4.126 -25.690  0.00  0.00    +0.050 A 
ATOM      6  C   UNL     1       1.603   3.292 -24.721  0.00  0.00    +0.025 A 
ATOM      7  C   UNL     1       2.939   2.992 -24.387  0.00  0.00    +0.023 A 
ATOM      8  C   UNL     1       3.230   2.131 -23.311  0.00  0.00    +0.022 A 
ATOM      9  C   UNL     1       4.601   1.850 -22.913  0.00  0.00    +0.019 A 
ATOM     10  C   UNL     1       4.863   1.082 -21.845  0.00  0.00    +0.092 A 
ATOM     11  C   UNL     1       3.777   0.492 -21.033  0.00  0.00    +0.337 A 
ATOM     12  O   UNL     1       2.496   0.716 -21.478  0.00  0.00    -0.418 OA
ATOM     13  O   UNL     1       4.013  -0.156 -20.015  0.00  0.00    -0.245 OA
ATOM     14  C   UNL     1       2.196   1.528 -22.557  0.00  0.00    +0.184 A 
ENDROOT
BRANCH   1  15
ATOM     15  O   UNL     1      -0.113   1.102 -22.138  0.00  0.00    -0.481 OA
BRANCH  15  16
ATOM     16  C   UNL     1      -0.864   1.820 -21.166  0.00  0.00    +0.257 C 
BRANCH  16  19
ATOM     17  C   UNL     1      -4.594   2.970 -21.790  0.00  0.00    +0.038 C 
ATOM     18  C   UNL     1      -3.227   2.859 -21.143  0.00  0.00    -0.076 C 
ATOM     19  C   UNL     1      -2.278   2.052 -21.664  0.00  0.00    +0.012 C 
ATOM     20  C   UNL     1      -3.070   3.734 -19.908  0.00  0.00    +0.038 C 
ENDBRANCH  16  19
ENDBRANCH  15  16
ENDBRANCH   1  15
TORSDOF 3
ENDMDL
