MODEL 1
REMARK VINA RESULT:    -9.746      0.000      0.000
REMARK INTER + INTRA:         -10.031
REMARK INTER:                 -10.031
REMARK INTRA:                   0.000
REMARK UNBOUND:                 0.000
REMARK  Name = ZINC000004104718
REMARK  5 active torsions:
REMARK  status: ('A' for Active; 'I' for Inactive)
REMARK    1  A    between atoms: C_1  and  C_2
REMARK    2  A    between atoms: C_2  and  C_3
REMARK    3  A    between atoms: C_6  and  C_7
REMARK    4  A    between atoms: C_6  and  O_8
REMARK    5  A    between atoms: C_11  and  C_12
REMARK                            x       y       z     vdW  Elec       q    Type
REMARK                         _______ _______ _______ _____ _____    ______ ____
ROOT
ATOM      1  C   UNL     1      -0.097   1.865 -21.392  0.00  0.00    +0.011 C 
ATOM      2  C   UNL     1      -0.894   2.269 -22.337  0.00  0.00    -0.028 C 
ATOM      3  C   UNL     1      -1.977   2.675 -22.931  0.00  0.00    +0.005 C 
ATOM      4  C   UNL     1      -2.952   3.086 -23.687  0.00  0.00    +0.037 C 
ATOM      5  C   UNL     1      -2.823   3.315 -24.960  0.00  0.00    +0.067 C 
ATOM      6  C   UNL     1      -3.975   3.710 -25.414  0.00  0.00    +0.036 C 
ATOM      7  C   UNL     1      -4.814   3.727 -24.423  0.00  0.00    +0.017 C 
ATOM      8  C   UNL     1      -2.438   3.467 -26.192  0.00  0.00    +0.041 C 
ATOM      9  C   UNL     1      -4.182   3.341 -23.354  0.00  0.00    +0.032 C 
ATOM     10  C   UNL     1      -4.743   3.248 -22.185  0.00  0.00    +0.140 C 
ATOM     11  C   UNL     1      -4.210   2.877 -21.059  0.00  0.00    +0.075 C 
ATOM     12  C   UNL     1      -2.986   2.507 -20.824  0.00  0.00    +0.012 C 
ATOM     13  O   UNL     1      -6.002   3.569 -22.136  0.00  0.00    -0.297 OA
ATOM     14  C   UNL     1      -5.441   3.650 -23.248  0.00  0.00    +0.019 C 
ATOM     15  C   UNL     1      -0.073   2.260 -23.344  0.00  0.00    +0.011 C 
ATOM     16  C   UNL     1      -1.993   2.417 -21.657  0.00  0.00    -0.001 C 
ENDROOT
BRANCH   5  17
ATOM     17  O   UNL     1      -1.591   2.950 -24.763  0.00  0.00    -0.389 OA
ATOM     18  H   UNL     1      -0.993   3.585 -25.190  0.00  0.00    +0.210 HD
ENDBRANCH   5  17
TORSDOF 1
ENDMDL
