MODEL 1
REMARK VINA RESULT:    -8.740      0.000      0.000
REMARK INTER + INTRA:         -10.448
REMARK INTER:                 -10.602
REMARK INTRA:                   0.154
REMARK UNBOUND:                 0.592
REMARK  Name = ZINC000000338310
REMARK  9 active torsions:
REMARK  status: ('A' for Active; 'I' for Inactive)
REMARK    1  A    between atoms: C_1  and  O_2
REMARK    2  A    between atoms: O_2  and  C_3
REMARK    3  A    between atoms: C_13  and  C_14
REMARK    4  A    between atoms: C_14  and  C_15
REMARK    5  A    between atoms: C_15  and  O_16
REMARK    6  A    between atoms: C_15  and  C_17
REMARK    7  A    between atoms: C_17  and  C_18
REMARK    8  A    between atoms: C_17  and  C_19
REMARK    9  A    between atoms: C_17  and  O_20
REMARK                            x       y       z     vdW  Elec       q    Type
REMARK                         _______ _______ _______ _____ _____    ______ ____
ROOT
ATOM      1  C   UNL     1      -1.055   2.825 -22.132  0.00  0.00    +0.127 A 
ATOM      2  C   UNL     1      -1.798   2.198 -21.268  0.00  0.00    +0.047 A 
ATOM      3  C   UNL     1      -3.093   2.286 -21.340  0.00  0.00    +0.015 A 
ATOM      4  C   UNL     1      -3.645   3.001 -22.274  0.00  0.00    +0.018 A 
ATOM      5  C   UNL     1      -4.940   3.090 -22.347  0.00  0.00    +0.018 A 
ATOM      6  C   UNL     1      -5.492   3.804 -23.281  0.00  0.00    +0.092 A 
ATOM      7  C   UNL     1      -4.749   4.431 -24.144  0.00  0.00    +0.337 A 
ATOM      8  O   UNL     1      -3.453   4.343 -24.073  0.00  0.00    -0.422 OA
ATOM      9  O   UNL     1      -5.301   5.146 -25.079  0.00  0.00    -0.245 OA
ATOM     10  C   UNL     1      -2.902   3.628 -23.138  0.00  0.00    +0.146 A 
ATOM     11  C   UNL     1      -1.607   3.540 -23.066  0.00  0.00    +0.040 A 
ENDROOT
BRANCH   1  13
ATOM     12  C   UNL     1       0.793   1.652 -21.604  0.00  0.00    +0.277 C 
ATOM     13  O   UNL     1       0.240   2.737 -22.060  0.00  0.00    -0.495 OA
ENDBRANCH   1  13
BRANCH  11  14
ATOM     14  C   UNL     1      -0.864   4.167 -23.929  0.00  0.00    +0.076 C 
BRANCH  14  15
ATOM     15  C   UNL     1      -0.463   3.559 -25.006  0.00  0.00    +0.150 C 
BRANCH  15  16
ATOM     16  C   UNL     1       0.809   3.421 -25.239  0.00  0.00    +0.087 C 
ATOM     17  C   UNL     1       1.526   4.456 -25.561  0.00  0.00    +0.043 C 
ATOM     18  C   UNL     1       1.862   2.665 -25.323  0.00  0.00    +0.043 C 
BRANCH  16  19
ATOM     19  O   UNL     1       0.715   2.146 -25.002  0.00  0.00    -0.387 OA
ATOM     20  H   UNL     1      -0.010   1.986 -24.377  0.00  0.00    +0.210 HD
ENDBRANCH  16  19
ENDBRANCH  15  16
BRANCH  15  21
ATOM     21  O   UNL     1      -1.334   3.087 -25.849  0.00  0.00    -0.389 OA
ATOM     22  H   UNL     1      -1.091   3.355 -26.748  0.00  0.00    +0.210 HD
ENDBRANCH  15  21
ENDBRANCH  14  15
ENDBRANCH  11  14
TORSDOF 6
ENDMDL
