MODEL 1
REMARK VINA RESULT:    -8.090      0.000      0.000
REMARK INTER + INTRA:          -8.601
REMARK INTER:                  -9.002
REMARK INTRA:                   0.401
REMARK UNBOUND:                 0.435
REMARK  Name = ZINC000000314951
REMARK  4 active torsions:
REMARK  status: ('A' for Active; 'I' for Inactive)
REMARK    1  A    between atoms: C_1  and  O_2
REMARK    2  A    between atoms: O_2  and  C_3
REMARK    3  A    between atoms: C_9  and  O_10
REMARK    4  A    between atoms: O_10  and  C_11
REMARK                            x       y       z     vdW  Elec       q    Type
REMARK                         _______ _______ _______ _____ _____    ______ ____
ROOT
ATOM      1  C   UNL     1      -1.150   2.791 -22.423  0.00  0.00    +0.142 A 
ATOM      2  C   UNL     1      -0.517   3.089 -23.519  0.00  0.00    +0.066 A 
ATOM      3  C   UNL     1       0.741   3.029 -23.840  0.00  0.00    +0.053 A 
ATOM      4  C   UNL     1       0.863   3.442 -25.066  0.00  0.00    +0.196 A 
ATOM      5  O   UNL     1      -0.321   3.758 -25.503  0.00  0.00    -0.459 OA
ATOM      6  C   UNL     1      -1.173   3.539 -24.547  0.00  0.00    +0.183 A 
ATOM      7  C   UNL     1      -2.462   3.692 -24.479  0.00  0.00    +0.206 A 
ATOM      8  C   UNL     1      -3.095   3.394 -23.383  0.00  0.00    +0.188 A 
ATOM      9  O   UNL     1      -4.385   3.547 -23.315  0.00  0.00    -0.418 OA
ATOM     10  C   UNL     1      -5.018   3.249 -22.220  0.00  0.00    +0.337 A 
ATOM     11  C   UNL     1      -4.362   2.799 -21.192  0.00  0.00    +0.093 A 
ATOM     12  C   UNL     1      -3.073   2.646 -21.259  0.00  0.00    +0.022 A 
ATOM     13  O   UNL     1      -6.307   3.402 -22.152  0.00  0.00    -0.245 OA
ATOM     14  C   UNL     1      -2.439   2.944 -22.355  0.00  0.00    +0.064 A 
ENDROOT
BRANCH   1  16
ATOM     15  C   UNL     1      -0.040   1.123 -21.396  0.00  0.00    +0.277 C 
ATOM     16  O   UNL     1      -0.494   2.341 -21.395  0.00  0.00    -0.494 OA
ENDBRANCH   1  16
BRANCH   7  17
ATOM     17  O   UNL     1      -3.118   4.142 -25.507  0.00  0.00    -0.488 OA
ATOM     18  C   UNL     1      -3.297   3.384 -26.547  0.00  0.00    +0.277 C 
ENDBRANCH   7  17
TORSDOF 2
ENDMDL
