MODEL 1
REMARK VINA RESULT:   -12.119      0.000      0.000
REMARK INTER + INTRA:         -12.473
REMARK INTER:                 -12.473
REMARK INTRA:                   0.000
REMARK UNBOUND:                 0.000
REMARK  Name = ZINC000004104750
REMARK  3 active torsions:
REMARK  status: ('A' for Active; 'I' for Inactive)
REMARK    1  A    between atoms: C_1  and  C_2
REMARK    2  A    between atoms: C_16  and  C_17
REMARK    3  A    between atoms: C_21  and  O_22
REMARK                            x       y       z     vdW  Elec       q    Type
REMARK                         _______ _______ _______ _____ _____    ______ ____
ROOT
ATOM      1  C   UNL     1      -4.638   3.869 -23.876  0.00  0.00    +0.014 C 
ATOM      2  C   UNL     1      -3.800   3.329 -23.042  0.00  0.00    -0.003 C 
ATOM      3  C   UNL     1      -3.264   3.698 -24.167  0.00  0.00    +0.010 C 
ATOM      4  C   UNL     1      -1.993   3.513 -24.374  0.00  0.00    +0.005 C 
ATOM      5  C   UNL     1      -1.260   2.958 -23.455  0.00  0.00    -0.001 C 
ATOM      6  C   UNL     1      -1.797   2.589 -22.330  0.00  0.00    +0.003 C 
ATOM      7  C   UNL     1      -1.063   2.034 -21.411  0.00  0.00    +0.078 C 
ATOM      8  C   UNL     1       0.206   1.849 -21.617  0.00  0.00    +0.138 C 
ATOM      9  C   UNL     1       0.744   2.218 -22.742  0.00  0.00    +0.068 C 
ATOM     10  C   UNL     1       2.013   2.032 -22.948  0.00  0.00    +0.086 C 
ATOM     11  C   UNL     1       2.550   2.402 -24.073  0.00  0.00    +0.134 C 
ATOM     12  C   UNL     1       1.816   2.956 -24.992  0.00  0.00    +0.075 C 
ATOM     13  C   UNL     1       0.547   3.142 -24.786  0.00  0.00    +0.015 C 
ATOM     14  O   UNL     1       3.820   2.216 -24.280  0.00  0.00    -0.297 OA
ATOM     15  O   UNL     1       0.940   1.294 -20.698  0.00  0.00    -0.297 OA
ATOM     16  C   UNL     1       0.009   2.772 -23.661  0.00  0.00    -0.019 C 
ATOM     17  C   UNL     1      -0.724   3.327 -24.580  0.00  0.00    +0.012 C 
ATOM     18  C   UNL     1      -5.019   3.399 -22.595  0.00  0.00    +0.121 C 
ATOM     19  C   UNL     1      -5.039   2.888 -21.400  0.00  0.00    +0.032 C 
ATOM     20  C   UNL     1      -3.833   2.502 -21.108  0.00  0.00    +0.007 C 
ATOM     21  C   UNL     1      -3.067   2.774 -22.123  0.00  0.00    +0.001 C 
ENDROOT
BRANCH  18  22
ATOM     22  O   UNL     1      -6.040   3.894 -23.231  0.00  0.00    -0.391 OA
ATOM     23  H   UNL     1      -6.735   4.123 -22.596  0.00  0.00    +0.210 HD
ENDBRANCH  18  22
TORSDOF 1
ENDMDL
