MODEL 1
REMARK VINA RESULT:   -10.003      0.000      0.000
REMARK INTER + INTRA:          -9.038
REMARK INTER:                 -10.874
REMARK INTRA:                   1.836
REMARK UNBOUND:                 1.842
REMARK  Name = ZINC000013423769
REMARK  6 active torsions:
REMARK  status: ('A' for Active; 'I' for Inactive)
REMARK    1  A    between atoms: C_1  and  C_2
REMARK    2  A    between atoms: C_5  and  O_6
REMARK    3  A    between atoms: C_7  and  C_8
REMARK    4  A    between atoms: C_8  and  O_9
REMARK    5  A    between atoms: C_15  and  C_16
REMARK    6  A    between atoms: C_15  and  C_17
REMARK                            x       y       z     vdW  Elec       q    Type
REMARK                         _______ _______ _______ _____ _____    ______ ____
ROOT
ATOM      1  C   UNL     1      -3.734   2.505 -20.986  0.00  0.00    +0.008 C 
ATOM      2  C   UNL     1      -4.005   3.007 -22.155  0.00  0.00    -0.010 C 
ATOM      3  C   UNL     1      -5.222   3.361 -22.444  0.00  0.00    +0.006 C 
ATOM      4  C   UNL     1      -5.492   3.863 -23.612  0.00  0.00    +0.032 C 
ATOM      5  C   UNL     1      -4.545   4.013 -24.491  0.00  0.00    +0.123 C 
ATOM      6  C   UNL     1      -3.328   3.660 -24.201  0.00  0.00    +0.023 C 
ATOM      7  C   UNL     1      -2.381   3.810 -25.080  0.00  0.00    +0.012 C 
ATOM      8  C   UNL     1      -1.164   3.456 -24.790  0.00  0.00    +0.005 C 
ATOM      9  C   UNL     1      -0.894   2.954 -23.622  0.00  0.00    -0.001 C 
ATOM     10  C   UNL     1      -1.841   2.804 -22.743  0.00  0.00    +0.003 C 
ATOM     11  C   UNL     1      -0.624   2.451 -22.454  0.00  0.00    -0.028 C 
ATOM     12  C   UNL     1       0.654   2.248 -22.586  0.00  0.00    +0.011 C 
ATOM     13  C   UNL     1      -0.796   2.019 -21.240  0.00  0.00    +0.011 C 
ATOM     14  C   UNL     1      -3.058   3.157 -23.033  0.00  0.00    +0.007 C 
ENDROOT
BRANCH   5  15
ATOM     15  O   UNL     1      -4.816   4.516 -25.659  0.00  0.00    -0.391 OA
ATOM     16  H   UNL     1      -5.468   5.227 -25.561  0.00  0.00    +0.210 HD
ENDBRANCH   5  15
BRANCH   6  17
ATOM     17  C   UNL     1      -3.599   4.163 -25.369  0.00  0.00    +0.165 C 
BRANCH  17  18
ATOM     18  O   UNL     1      -4.093   5.362 -25.462  0.00  0.00    -0.394 OA
ATOM     19  H   UNL     1      -3.741   5.796 -26.256  0.00  0.00    +0.209 HD
ENDBRANCH  17  18
ENDBRANCH   6  17
TORSDOF 3
ENDMDL
