MODEL 1
REMARK VINA RESULT:    -9.403      0.000      0.000
REMARK INTER + INTRA:          -9.677
REMARK INTER:                  -9.677
REMARK INTRA:                   0.000
REMARK UNBOUND:                 0.000
REMARK  Name = ZINC000004104724
REMARK  4 active torsions:
REMARK  status: ('A' for Active; 'I' for Inactive)
REMARK    1  A    between atoms: C_1  and  C_2
REMARK    2  A    between atoms: C_2  and  C_3
REMARK    3  A    between atoms: C_12  and  C_13
REMARK    4  A    between atoms: C_12  and  O_14
REMARK                            x       y       z     vdW  Elec       q    Type
REMARK                         _______ _______ _______ _____ _____    ______ ____
ROOT
ATOM      1  C   UNL     1      -5.488   3.337 -22.132  0.00  0.00    +0.011 C 
ATOM      2  C   UNL     1      -4.322   2.901 -21.759  0.00  0.00    -0.028 C 
ATOM      3  C   UNL     1      -3.067   2.570 -21.814  0.00  0.00    -0.001 C 
ATOM      4  C   UNL     1      -1.831   2.188 -21.683  0.00  0.00    +0.012 C 
ATOM      5  C   UNL     1      -0.882   2.197 -22.571  0.00  0.00    +0.075 C 
ATOM      6  C   UNL     1      -0.932   2.590 -23.809  0.00  0.00    +0.137 C 
ATOM      7  C   UNL     1      -1.946   3.071 -24.465  0.00  0.00    +0.061 C 
ATOM      8  C   UNL     1      -1.885   3.436 -25.711  0.00  0.00    +0.014 C 
ATOM      9  C   UNL     1      -3.060   3.868 -26.062  0.00  0.00    +0.035 C 
ATOM     10  C   UNL     1      -3.848   3.771 -25.032  0.00  0.00    +0.067 C 
ATOM     11  C   UNL     1      -4.822   3.777 -24.171  0.00  0.00    +0.041 C 
ATOM     12  C   UNL     1      -3.160   3.279 -24.045  0.00  0.00    +0.034 C 
ATOM     13  O   UNL     1       0.177   2.488 -24.479  0.00  0.00    -0.297 OA
ATOM     14  C   UNL     1      -4.582   2.594 -20.522  0.00  0.00    +0.011 C 
ATOM     15  C   UNL     1      -3.658   3.056 -22.866  0.00  0.00    +0.005 C 
ENDROOT
BRANCH  10  16
ATOM     16  O   UNL     1      -4.740   4.265 -25.838  0.00  0.00    -0.389 OA
ATOM     17  H   UNL     1      -5.618   3.931 -25.593  0.00  0.00    +0.210 HD
ENDBRANCH  10  16
TORSDOF 1
ENDMDL
