MODEL 1
REMARK VINA RESULT:    -6.682      0.000      0.000
REMARK INTER + INTRA:          -8.065
REMARK INTER:                  -7.610
REMARK INTRA:                  -0.455
REMARK UNBOUND:                -0.406
REMARK  Name = ZINC000001587602
REMARK  3 active torsions:
REMARK  status: ('A' for Active; 'I' for Inactive)
REMARK    1  A    between atoms: C_2  and  C_4
REMARK    2  A    between atoms: C_8  and  O_9
REMARK    3  A    between atoms: C_10  and  C_11
REMARK                            x       y       z     vdW  Elec       q    Type
REMARK                         _______ _______ _______ _____ _____    ______ ____
ROOT
ATOM      1  C   UNL     1      -2.991   2.931 -22.137  0.00  0.00    +0.155 A 
ATOM      2  C   UNL     1      -1.771   2.531 -22.345  0.00  0.00    +0.102 A 
ATOM      3  C   UNL     1      -1.268   2.577 -23.542  0.00  0.00    +0.227 A 
ATOM      4  C   UNL     1      -1.984   3.022 -24.532  0.00  0.00    +0.209 A 
ATOM      5  C   UNL     1      -3.204   3.422 -24.324  0.00  0.00    +0.196 A 
ATOM      6  O   UNL     1      -0.049   2.177 -23.751  0.00  0.00    -0.284 OA
ATOM      7  O   UNL     1      -3.707   3.376 -23.126  0.00  0.00    -0.449 OA
ENDROOT
BRANCH   1   9
ATOM      8  O   UNL     1      -3.019   3.652 -20.004  0.00  0.00    -0.542 OA
ATOM      9  C   UNL     1      -3.494   2.885 -20.939  0.00  0.00    +0.107 C 
ATOM     10  O   UNL     1      -4.474   2.072 -20.677  0.00  0.00    -0.542 OA
ENDBRANCH   1   9
BRANCH   5  11
ATOM     11  C   UNL     1      -3.919   3.867 -25.313  0.00  0.00    +0.111 C 
ATOM     12  O   UNL     1      -4.055   5.147 -25.494  0.00  0.00    -0.541 OA
ATOM     13  O   UNL     1      -4.499   3.032 -26.123  0.00  0.00    -0.541 OA
ENDBRANCH   5  11
BRANCH   4  14
ATOM     14  O   UNL     1      -1.481   3.068 -25.730  0.00  0.00    -0.501 OA
ATOM     15  H   UNL     1      -1.901   3.577 -26.395  0.00  0.00    +0.292 HD
ENDBRANCH   4  14
TORSDOF 3
ENDMDL
