MODEL 1
REMARK VINA RESULT:   -10.986      0.000      0.000
REMARK INTER + INTRA:         -12.065
REMARK INTER:                 -11.953
REMARK INTRA:                  -0.112
REMARK UNBOUND:                -0.116
REMARK  Name = COc1ccc2c3c1O[C@@]1(C)[C@H](O)[C@H](Cl)C=C4[C@@H](C2)N(C)CC[C@@]431  ZINC000100393466
REMARK  5 active torsions:
REMARK  status: ('A' for Active; 'I' for Inactive)
REMARK    1  A    between atoms: C_1  and  O_2
REMARK    2  A    between atoms: O_2  and  C_3
REMARK    3  A    between atoms: C_10  and  C_11
REMARK    4  A    between atoms: C_12  and  O_13
REMARK    5  A    between atoms: N_20  and  C_21
REMARK                            x       y       z     vdW  Elec       q    Type
REMARK                         _______ _______ _______ _____ _____    ______ ____
ROOT
ATOM      1  C   UNL     1       1.634   2.273 -23.783  0.00  0.00    +0.162 A 
ATOM      2  C   UNL     1       1.920   1.802 -22.642  0.00  0.00    +0.050 A 
ATOM      3  C   UNL     1       1.034   1.683 -21.764  0.00  0.00    +0.008 A 
ATOM      4  C   UNL     1      -0.147   2.030 -22.014  0.00  0.00    -0.034 A 
ATOM      5  C   UNL     1      -0.451   2.501 -23.145  0.00  0.00    +0.016 A 
ATOM      6  C   UNL     1      -1.629   2.847 -23.391  0.00  0.00    +0.072 C 
ATOM      7  C   UNL     1      -2.932   3.273 -23.786  0.00  0.00    +0.071 C 
ATOM      8  C   UNL     1      -3.952   3.150 -22.815  0.00  0.00    +0.133 C 
ATOM      9  N   UNL     1      -3.595   2.621 -21.555  0.00  0.00    +0.239 N 
ATOM     10  H   UNL     1      -4.290   2.509 -20.816  0.00  0.00    +0.204 HD
ATOM     11  C   UNL     1      -4.438   2.479 -20.640  0.00  0.00    +0.191 C 
ATOM     12  C   UNL     1      -2.227   2.257 -21.374  0.00  0.00    +0.096 C 
ATOM     13  C   UNL     1      -2.516   2.728 -22.514  0.00  0.00    -0.010 C 
ATOM     14  C   UNL     1      -3.708   3.078 -22.765  0.00  0.00    +0.000 C 
ATOM     15  C   UNL     1      -4.000   3.545 -23.891  0.00  0.00    +0.136 C 
ATOM     16 CL   UNL     1      -5.179   3.890 -24.136  0.00  0.00    -0.115 Cl
ATOM     17  C   UNL     1      -3.109   3.668 -24.783  0.00  0.00    +0.180 C 
ATOM     18  C   UNL     1      -1.931   3.322 -24.535  0.00  0.00    +0.149 C 
ATOM     19  C   UNL     1      -1.938   3.746 -25.716  0.00  0.00    +0.060 C 
ATOM     20  O   UNL     1      -0.513   3.195 -25.047  0.00  0.00    -0.478 OA
ATOM     21  C   UNL     1      -1.050   1.910 -21.124  0.00  0.00    +0.094 C 
ATOM     22  C   UNL     1       0.441   2.624 -24.034  0.00  0.00    +0.167 A 
ENDROOT
BRANCH   1  24
ATOM     23  C   UNL     1       3.719   2.150 -24.376  0.00  0.00    +0.277 C 
ATOM     24  O   UNL     1       2.522   2.392 -24.659  0.00  0.00    -0.491 OA
ENDBRANCH   1  24
BRANCH  17  25
ATOM     25  O   UNL     1      -3.406   4.135 -25.908  0.00  0.00    -0.386 OA
ATOM     26  H   UNL     1      -3.429   5.103 -25.860  0.00  0.00    +0.210 HD
ENDBRANCH  17  25
TORSDOF 2
ENDMDL
