MODEL 1
REMARK VINA RESULT:   -10.289      0.000      0.000
REMARK INTER + INTRA:         -10.289
REMARK INTER:                 -10.289
REMARK INTRA:                   0.000
REMARK UNBOUND:                 0.000
REMARK  Name = ZINC000000338150
REMARK  0 active torsions:
REMARK  status: ('A' for Active; 'I' for Inactive)
REMARK                            x       y       z     vdW  Elec       q    Type
REMARK                         _______ _______ _______ _____ _____    ______ ____
ROOT
ATOM      1  C   UNL     1       0.143   1.939 -21.421  0.00  0.00    +0.008 A 
ATOM      2  C   UNL     1       1.161   1.955 -22.229  0.00  0.00    +0.050 A 
ATOM      3  C   UNL     1       1.001   2.309 -23.470  0.00  0.00    +0.167 A 
ATOM      4  C   UNL     1      -0.179   2.647 -23.902  0.00  0.00    +0.174 A 
ATOM      5  O   UNL     1      -0.073   2.954 -25.160  0.00  0.00    -0.452 OA
ATOM      6  C   UNL     1       1.172   2.806 -25.507  0.00  0.00    +0.466 C 
ATOM      7  C   UNL     1      -1.196   2.631 -23.093  0.00  0.00    +0.035 A 
ATOM      8  C   UNL     1      -2.375   2.969 -23.525  0.00  0.00    +0.040 A 
ATOM      9  C   UNL     1      -3.393   2.953 -22.716  0.00  0.00    +0.015 A 
ATOM     10  C   UNL     1      -4.572   3.291 -23.148  0.00  0.00    -0.030 A 
ATOM     11  C   UNL     1      -4.732   3.645 -24.389  0.00  0.00    +0.054 A 
ATOM     12  C   UNL     1      -3.715   3.661 -25.197  0.00  0.00    +0.167 A 
ATOM     13  O   UNL     1      -3.609   3.968 -26.455  0.00  0.00    -0.453 OA
ATOM     14  C   UNL     1      -2.364   3.820 -26.802  0.00  0.00    +0.466 C 
ATOM     15  O   UNL     1      -1.701   3.421 -25.757  0.00  0.00    -0.452 OA
ATOM     16  C   UNL     1      -5.590   3.275 -22.339  0.00  0.00    +0.086 C 
ATOM     17  C   UNL     1      -5.428   2.922 -21.098  0.00  0.00    +0.134 C 
ATOM     18  N   UNL     1      -4.249   2.584 -20.667  0.00  0.00    +0.233 N 
ATOM     19  H   UNL     1      -4.356   1.594 -20.444  0.00  0.00    +0.202 HD
ATOM     20  H   UNL     1      -4.025   3.216 -19.898  0.00  0.00    +0.202 HD
ATOM     21  C   UNL     1      -3.231   2.599 -21.475  0.00  0.00    +0.099 C 
ATOM     22  C   UNL     1      -2.052   2.262 -21.044  0.00  0.00    +0.095 C 
ATOM     23  C   UNL     1      -2.537   3.323 -24.765  0.00  0.00    +0.174 A 
ATOM     24  O   UNL     1       1.835   2.407 -24.463  0.00  0.00    -0.453 OA
ATOM     25  C   UNL     1      -1.035   2.277 -21.852  0.00  0.00    -0.030 A 
ENDROOT
TORSDOF 0
ENDMDL
