MODEL 1
REMARK VINA RESULT:    -7.132      0.000      0.000
REMARK INTER + INTRA:          -7.828
REMARK INTER:                  -7.775
REMARK INTRA:                  -0.052
REMARK UNBOUND:                -0.070
REMARK  Name = ZINC000003881368
REMARK  2 active torsions:
REMARK  status: ('A' for Active; 'I' for Inactive)
REMARK    1  A    between atoms: O_1  and  C_2
REMARK    2  A    between atoms: C_2  and  C_3
REMARK                            x       y       z     vdW  Elec       q    Type
REMARK                         _______ _______ _______ _____ _____    ______ ____
ROOT
ATOM      1  C   UNL     1      -2.357   3.372 -23.741  0.00  0.00    +0.063 C 
ATOM      2  C   UNL     1      -2.459   3.958 -24.896  0.00  0.00    +0.016 C 
ATOM      3  C   UNL     1      -3.617   4.381 -25.311  0.00  0.00    +0.051 C 
ATOM      4  C   UNL     1      -4.672   4.217 -24.570  0.00  0.00    +0.131 C 
ATOM      5  N   UNL     1      -4.571   3.631 -23.414  0.00  0.00    +0.238 N 
ATOM      6  H   UNL     1      -5.297   4.052 -23.992  0.00  0.00    +0.204 HD
ATOM      7  C   UNL     1      -5.626   3.467 -22.672  0.00  0.00    +0.131 C 
ATOM      8  C   UNL     1      -5.523   2.880 -21.517  0.00  0.00    +0.051 C 
ATOM      9  C   UNL     1      -4.366   2.458 -21.103  0.00  0.00    +0.011 C 
ATOM     10  C   UNL     1      -3.311   2.622 -21.844  0.00  0.00    +0.055 C 
ATOM     11  C   UNL     1      -3.413   3.208 -23.000  0.00  0.00    +0.070 C 
ENDROOT
BRANCH   1  12
ATOM     12  C   UNL     1      -1.199   2.949 -23.326  0.00  0.00    +0.164 C 
BRANCH  12  13
ATOM     13  O   UNL     1      -0.610   1.967 -23.939  0.00  0.00    -0.395 OA
ATOM     14  H   UNL     1      -0.702   1.157 -23.413  0.00  0.00    +0.209 HD
ENDBRANCH  12  13
ENDBRANCH   1  12
TORSDOF 2
ENDMDL
