MODEL 1
REMARK VINA RESULT:   -10.236      0.000      0.000
REMARK INTER + INTRA:         -10.148
REMARK INTER:                 -12.388
REMARK INTRA:                   2.239
REMARK UNBOUND:                 2.182
REMARK  Name = COC1=CC=C2[C@H]3Cc4ccc(OC)c5c4[C@@]2(CCN3C)[C@]1(CO)O5               ZINC000253504857
REMARK  7 active torsions:
REMARK  status: ('A' for Active; 'I' for Inactive)
REMARK    1  A    between atoms: C_1  and  O_2
REMARK    2  A    between atoms: O_2  and  C_3
REMARK    3  A    between atoms: C_12  and  O_13
REMARK    4  A    between atoms: O_13  and  C_14
REMARK    5  A    between atoms: N_20  and  C_21
REMARK    6  A    between atoms: C_22  and  C_23
REMARK    7  A    between atoms: C_23  and  O_24
REMARK                            x       y       z     vdW  Elec       q    Type
REMARK                         _______ _______ _______ _____ _____    ______ ____
ROOT
ATOM      1  C   UNL     1      -2.813   3.607 -25.301  0.00  0.00    +0.144 C 
ATOM      2  C   UNL     1      -3.958   3.707 -24.768  0.00  0.00    +0.045 C 
ATOM      3  C   UNL     1      -4.129   3.376 -23.570  0.00  0.00    +0.009 C 
ATOM      4  C   UNL     1      -3.156   2.940 -22.887  0.00  0.00    -0.007 C 
ATOM      5  C   UNL     1      -3.336   2.607 -21.677  0.00  0.00    +0.096 C 
ATOM      6  C   UNL     1      -2.374   2.175 -20.999  0.00  0.00    +0.094 C 
ATOM      7  C   UNL     1      -1.219   2.071 -21.527  0.00  0.00    -0.034 A 
ATOM      8  C   UNL     1      -0.253   1.638 -20.848  0.00  0.00    +0.008 A 
ATOM      9  C   UNL     1       0.882   1.537 -21.371  0.00  0.00    +0.050 A 
ATOM     10  C   UNL     1       1.065   1.869 -22.580  0.00  0.00    +0.162 A 
ATOM     11  C   UNL     1       0.089   2.306 -23.264  0.00  0.00    +0.168 A 
ATOM     12  O   UNL     1      -0.377   2.826 -24.596  0.00  0.00    -0.471 OA
ATOM     13  C   UNL     1      -1.056   2.406 -22.733  0.00  0.00    +0.016 A 
ATOM     14  N   UNL     1      -4.496   3.086 -22.358  0.00  0.00    +0.239 N 
ATOM     15  H   UNL     1      -5.407   3.156 -21.905  0.00  0.00    +0.204 HD
ATOM     16  C   UNL     1      -5.607   3.165 -21.785  0.00  0.00    +0.191 C 
ATOM     17  C   UNL     1      -4.331   3.466 -23.710  0.00  0.00    +0.133 C 
ATOM     18  C   UNL     1      -3.039   3.341 -24.271  0.00  0.00    +0.071 C 
ATOM     19  C   UNL     1      -2.020   2.838 -23.407  0.00  0.00    +0.080 C 
ATOM     20  C   UNL     1      -1.849   3.176 -24.626  0.00  0.00    +0.203 C 
ENDROOT
BRANCH   1  22
ATOM     21  C   UNL     1      -3.387   3.464 -27.390  0.00  0.00    +0.276 C 
ATOM     22  O   UNL     1      -2.646   3.939 -26.498  0.00  0.00    -0.495 OA
ENDBRANCH   1  22
BRANCH  10  23
ATOM     23  O   UNL     1       2.202   1.766 -23.099  0.00  0.00    -0.491 OA
ATOM     24  C   UNL     1       2.948   0.808 -22.793  0.00  0.00    +0.277 C 
ENDBRANCH  10  23
BRANCH  20  25
ATOM     25  C   UNL     1      -1.408   3.436 -25.795  0.00  0.00    +0.213 C 
BRANCH  25  26
ATOM     26  O   UNL     1      -0.171   3.448 -26.036  0.00  0.00    -0.391 OA
ATOM     27  H   UNL     1       0.308   3.067 -25.283  0.00  0.00    +0.210 HD
ENDBRANCH  25  26
ENDBRANCH  20  25
TORSDOF 4
ENDMDL
