MODEL 1
REMARK VINA RESULT:    -9.766      0.000      0.000
REMARK INTER + INTRA:          -9.766
REMARK INTER:                  -9.766
REMARK INTRA:                   0.000
REMARK UNBOUND:                 0.000
REMARK  Name = ZINC000013423813
REMARK  3 active torsions:
REMARK  status: ('A' for Active; 'I' for Inactive)
REMARK    1  A    between atoms: C_1  and  C_2
REMARK    2  A    between atoms: C_6  and  C_7
REMARK    3  A    between atoms: C_14  and  C_15
REMARK                            x       y       z     vdW  Elec       q    Type
REMARK                         _______ _______ _______ _____ _____    ______ ____
ROOT
ATOM      1  C   UNL     1      -3.258   3.756 -27.075  0.00  0.00    +0.007 C 
ATOM      2  C   UNL     1      -3.459   3.582 -25.803  0.00  0.00    -0.014 C 
ATOM      3  C   UNL     1      -4.649   3.740 -25.305  0.00  0.00    +0.003 C 
ATOM      4  C   UNL     1      -4.850   3.566 -24.033  0.00  0.00    +0.003 C 
ATOM      5  C   UNL     1      -3.860   3.234 -23.257  0.00  0.00    +0.037 C 
ATOM      6  C   UNL     1      -4.061   3.060 -21.985  0.00  0.00    +0.097 C 
ATOM      7  O   UNL     1      -4.262   2.886 -20.712  0.00  0.00    -0.361 OA
ATOM      8  C   UNL     1      -5.320   3.343 -22.145  0.00  0.00    +0.044 C 
ATOM      9  C   UNL     1      -3.072   2.729 -21.210  0.00  0.00    +0.191 C 
ATOM     10  C   UNL     1      -1.881   2.571 -21.708  0.00  0.00    +0.212 C 
ATOM     11  O   UNL     1      -0.746   2.248 -21.163  0.00  0.00    -0.458 OA
ATOM     12  C   UNL     1       0.156   2.223 -22.098  0.00  0.00    +0.311 C 
ATOM     13  C   UNL     1      -0.421   2.530 -23.222  0.00  0.00    +0.101 C 
ATOM     14  C   UNL     1       0.159   2.608 -24.383  0.00  0.00    +0.019 C 
ATOM     15  O   UNL     1       1.415   1.940 -21.938  0.00  0.00    -0.251 OA
ATOM     16  C   UNL     1      -1.680   2.745 -22.980  0.00  0.00    +0.046 C 
ATOM     17  C   UNL     1      -2.670   3.076 -23.755  0.00  0.00    +0.008 C 
ATOM     18  C   UNL     1      -2.469   3.251 -25.028  0.00  0.00    +0.004 C 
ENDROOT
TORSDOF 0
ENDMDL
