MODEL 1
REMARK VINA RESULT:   -10.697      0.000      0.000
REMARK INTER + INTRA:         -11.010
REMARK INTER:                 -11.010
REMARK INTRA:                   0.000
REMARK UNBOUND:                 0.000
REMARK  Name = C=C1C(=O)O[C@@H]2C=C(C)[C@@H](O)CC=C(C)CC[C@H]12                     ZINC001081701742
REMARK  3 active torsions:
REMARK  status: ('A' for Active; 'I' for Inactive)
REMARK    1  A    between atoms: C_8  and  C_9
REMARK    2  A    between atoms: C_10  and  O_11
REMARK    3  A    between atoms: C_14  and  C_15
REMARK                            x       y       z     vdW  Elec       q    Type
REMARK                         _______ _______ _______ _____ _____    ______ ____
ROOT
ATOM      1  C   UNL     1       0.555   1.515 -21.129  0.00  0.00    +0.020 C 
ATOM      2  C   UNL     1      -0.150   1.970 -22.123  0.00  0.00    +0.036 C 
ATOM      3  C   UNL     1       0.271   2.153 -23.338  0.00  0.00    +0.336 C 
ATOM      4  O   UNL     1      -0.720   2.618 -24.039  0.00  0.00    -0.453 OA
ATOM      5  C   UNL     1      -1.753   2.723 -23.258  0.00  0.00    +0.207 C 
ATOM      6  C   UNL     1      -2.968   3.131 -23.472  0.00  0.00    +0.019 C 
ATOM      7  C   UNL     1      -3.320   3.531 -24.657  0.00  0.00    -0.045 C 
ATOM      8  C   UNL     1      -4.535   3.940 -24.873  0.00  0.00    +0.144 C 
ATOM      9  C   UNL     1      -5.399   3.948 -23.902  0.00  0.00    +0.063 C 
ATOM     10  C   UNL     1      -5.048   3.548 -22.717  0.00  0.00    -0.025 C 
ATOM     11  C   UNL     1      -3.833   3.139 -22.502  0.00  0.00    -0.076 C 
ATOM     12  C   UNL     1      -3.481   2.739 -21.317  0.00  0.00    +0.031 C 
ATOM     13  C   UNL     1      -2.265   2.330 -21.102  0.00  0.00    +0.016 C 
ATOM     14  C   UNL     1      -4.696   3.147 -21.530  0.00  0.00    +0.039 C 
ATOM     15  C   UNL     1      -2.454   3.523 -25.629  0.00  0.00    +0.041 C 
ATOM     16  O   UNL     1       1.471   1.913 -23.775  0.00  0.00    -0.245 OA
ATOM     17  C   UNL     1      -1.401   2.322 -22.072  0.00  0.00    +0.070 C 
ENDROOT
BRANCH   8  18
ATOM     18  O   UNL     1      -4.886   4.340 -26.059  0.00  0.00    -0.387 OA
ATOM     19  H   UNL     1      -5.513   5.076 -25.980  0.00  0.00    +0.210 HD
ENDBRANCH   8  18
TORSDOF 1
ENDMDL
