MODEL 1
REMARK VINA RESULT:   -11.323      0.000      0.000
REMARK INTER + INTRA:         -12.113
REMARK INTER:                 -11.964
REMARK INTRA:                  -0.150
REMARK UNBOUND:                -0.129
REMARK  Name = COc1ccc2c3c1O[C@]1(C)C(=O)C=C[C@@]4(Br)[C@@H](C2)N(C)CC[C@]314       ZINC000253505038
REMARK  4 active torsions:
REMARK  status: ('A' for Active; 'I' for Inactive)
REMARK    1  A    between atoms: C_1  and  O_2
REMARK    2  A    between atoms: O_2  and  C_3
REMARK    3  A    between atoms: C_10  and  C_11
REMARK    4  A    between atoms: N_20  and  C_21
REMARK                            x       y       z     vdW  Elec       q    Type
REMARK                         _______ _______ _______ _____ _____    ______ ____
ROOT
ATOM      1  C   UNL     1       0.453   2.186 -23.250  0.00  0.00    +0.162 A 
ATOM      2  C   UNL     1       0.400   1.832 -22.036  0.00  0.00    +0.050 A 
ATOM      3  C   UNL     1      -0.678   1.895 -21.400  0.00  0.00    +0.008 A 
ATOM      4  C   UNL     1      -1.713   2.313 -21.970  0.00  0.00    -0.034 A 
ATOM      5  C   UNL     1      -1.684   2.672 -23.182  0.00  0.00    +0.014 A 
ATOM      6  C   UNL     1      -2.720   3.089 -23.747  0.00  0.00    +0.075 C 
ATOM      7  C   UNL     1      -3.833   3.579 -24.494  0.00  0.00    +0.069 C 
ATOM      8  C   UNL     1      -5.062   3.661 -23.803  0.00  0.00    +0.132 C 
ATOM      9  N   UNL     1      -5.083   3.259 -22.453  0.00  0.00    +0.237 N 
ATOM     10  H   UNL     1      -5.952   3.304 -21.920  0.00  0.00    +0.203 HD
ATOM     11  C   UNL     1      -6.133   3.302 -21.772  0.00  0.00    +0.191 C 
ATOM     12  C   UNL     1      -3.853   2.799 -21.897  0.00  0.00    +0.090 C 
ATOM     13  C   UNL     1      -3.794   3.152 -23.111  0.00  0.00    +0.101 C 
ATOM     14 BR   UNL     1      -2.761   2.733 -22.538  0.00  0.00    -0.073 Br
ATOM     15  C   UNL     1      -4.846   3.572 -23.677  0.00  0.00    +0.001 C 
ATOM     16  C   UNL     1      -4.808   3.927 -24.881  0.00  0.00    +0.048 C 
ATOM     17  C   UNL     1      -3.724   3.868 -25.536  0.00  0.00    +0.200 C 
ATOM     18  O   UNL     1      -3.691   4.222 -26.736  0.00  0.00    -0.288 OA
ATOM     19  C   UNL     1      -2.683   3.449 -24.969  0.00  0.00    +0.181 C 
ATOM     20  C   UNL     1      -2.358   3.729 -26.149  0.00  0.00    +0.065 C 
ATOM     21  O   UNL     1      -1.207   3.137 -25.093  0.00  0.00    -0.473 OA
ATOM     22  C   UNL     1      -2.817   2.381 -21.330  0.00  0.00    +0.091 C 
ATOM     23  C   UNL     1      -0.597   2.608 -23.824  0.00  0.00    +0.168 A 
ENDROOT
BRANCH   1  25
ATOM     24  C   UNL     1       2.201   3.159 -24.090  0.00  0.00    +0.277 C 
ATOM     25  O   UNL     1       1.532   2.120 -23.881  0.00  0.00    -0.491 OA
ENDBRANCH   1  25
TORSDOF 1
ENDMDL
