MODEL 1
REMARK VINA RESULT:    -6.175      0.000      0.000
REMARK INTER + INTRA:          -7.436
REMARK INTER:                  -7.247
REMARK INTRA:                  -0.189
REMARK UNBOUND:                -0.177
REMARK  Name = ZINC000000338208
REMARK  5 active torsions:
REMARK  status: ('A' for Active; 'I' for Inactive)
REMARK    1  A    between atoms: C_1  and  O_2
REMARK    2  A    between atoms: O_2  and  C_3
REMARK    3  A    between atoms: C_6  and  C_7
REMARK    4  A    between atoms: C_10  and  O_11
REMARK    5  A    between atoms: O_11  and  C_12
REMARK                            x       y       z     vdW  Elec       q    Type
REMARK                         _______ _______ _______ _____ _____    ______ ____
ROOT
ATOM      1  C   UNL     1      -1.803   2.546 -22.359  0.00  0.00    +0.124 A 
ATOM      2  C   UNL     1      -1.319   2.601 -23.564  0.00  0.00    +0.046 A 
ATOM      3  C   UNL     1      -2.062   3.021 -24.544  0.00  0.00    +0.017 A 
ATOM      4  C   UNL     1      -3.289   3.386 -24.319  0.00  0.00    +0.039 A 
ATOM      5  C   UNL     1      -3.773   3.332 -23.113  0.00  0.00    +0.132 A 
ATOM      6  C   UNL     1      -3.030   2.912 -22.133  0.00  0.00    +0.091 A 
ENDROOT
BRANCH   4   7
ATOM      7  C   UNL     1      -4.033   3.807 -25.299  0.00  0.00    +0.075 C 
ATOM      8  O   UNL     1      -4.127   5.080 -25.544  0.00  0.00    -0.545 OA
ATOM      9  O   UNL     1      -4.683   2.954 -26.034  0.00  0.00    -0.545 OA
ENDBRANCH   4   7
BRANCH   1  11
ATOM     10  C   UNL     1      -0.018   1.386 -21.622  0.00  0.00    +0.277 C 
ATOM     11  O   UNL     1      -1.059   2.126 -21.378  0.00  0.00    -0.495 OA
ENDBRANCH   1  11
BRANCH   5  12
ATOM     12  O   UNL     1      -5.000   3.698 -22.888  0.00  0.00    -0.494 OA
ATOM     13  C   UNL     1      -5.692   3.114 -21.956  0.00  0.00    +0.277 C 
ENDBRANCH   5  12
TORSDOF 3
ENDMDL
