MODEL 1
REMARK VINA RESULT:    -9.773      0.000      0.000
REMARK INTER + INTRA:          -7.899
REMARK INTER:                 -11.864
REMARK INTRA:                   3.965
REMARK UNBOUND:                 4.160
REMARK  Name = COC1=C2Oc3c(OC)ccc4c3[C@@]23CCN(C)[C@@H](C4)C3=C[C@@H]1C(C)(C)O      ZINC000100393763
REMARK  9 active torsions:
REMARK  status: ('A' for Active; 'I' for Inactive)
REMARK    1  A    between atoms: C_1  and  O_2
REMARK    2  A    between atoms: O_2  and  C_3
REMARK    3  A    between atoms: C_7  and  O_8
REMARK    4  A    between atoms: O_8  and  C_9
REMARK    5  A    between atoms: N_17  and  C_18
REMARK    6  A    between atoms: C_23  and  C_24
REMARK    7  A    between atoms: C_24  and  C_25
REMARK    8  A    between atoms: C_24  and  C_26
REMARK    9  A    between atoms: C_24  and  O_27
REMARK                            x       y       z     vdW  Elec       q    Type
REMARK                         _______ _______ _______ _____ _____    ______ ____
ROOT
ATOM      1  C   UNL     1       0.602   2.856 -24.491  0.00  0.00    +0.146 C 
ATOM      2  C   UNL     1      -0.626   3.066 -24.327  0.00  0.00    +0.159 C 
ATOM      3  O   UNL     1      -1.929   3.545 -24.938  0.00  0.00    -0.452 OA
ATOM      4  C   UNL     1      -3.099   3.485 -23.991  0.00  0.00    +0.174 A 
ATOM      5  C   UNL     1      -4.343   3.697 -23.825  0.00  0.00    +0.162 A 
ATOM      6  C   UNL     1      -4.877   3.442 -22.699  0.00  0.00    +0.050 A 
ATOM      7  C   UNL     1      -4.186   2.985 -21.754  0.00  0.00    +0.008 A 
ATOM      8  C   UNL     1      -2.957   2.777 -21.924  0.00  0.00    -0.034 A 
ATOM      9  C   UNL     1      -2.247   2.310 -20.963  0.00  0.00    +0.094 C 
ATOM     10  C   UNL     1      -1.018   2.101 -21.131  0.00  0.00    +0.096 C 
ATOM     11  C   UNL     1      -0.481   2.355 -22.254  0.00  0.00    -0.007 C 
ATOM     12  C   UNL     1       0.760   2.144 -22.423  0.00  0.00    -0.007 C 
ATOM     13  N   UNL     1       0.385   1.829 -21.216  0.00  0.00    +0.239 N 
ATOM     14  H   UNL     1       0.919   1.457 -20.431  0.00  0.00    +0.204 HD
ATOM     15  C   UNL     1       1.026   1.371 -20.238  0.00  0.00    +0.191 C 
ATOM     16  C   UNL     1       1.016   2.101 -22.457  0.00  0.00    +0.133 C 
ATOM     17  C   UNL     1       0.210   2.617 -23.504  0.00  0.00    +0.075 C 
ATOM     18  C   UNL     1      -2.403   3.022 -23.034  0.00  0.00    +0.020 A 
ATOM     19  C   UNL     1      -1.176   2.813 -23.197  0.00  0.00    +0.091 C 
ATOM     20  C   UNL     1       1.297   2.393 -23.533  0.00  0.00    +0.112 C 
ENDROOT
BRANCH  20  21
ATOM     21  C   UNL     1       2.528   2.183 -23.697  0.00  0.00    +0.074 C 
ATOM     22  C   UNL     1       3.368   3.044 -23.331  0.00  0.00    +0.042 C 
ATOM     23  C   UNL     1       3.464   1.443 -24.097  0.00  0.00    +0.042 C 
BRANCH  21  24
ATOM     24  O   UNL     1       2.269   1.067 -24.214  0.00  0.00    -0.388 OA
ATOM     25  H   UNL     1       2.587   1.053 -25.130  0.00  0.00    +0.210 HD
ENDBRANCH  21  24
ENDBRANCH  20  21
BRANCH   1  27
ATOM     26  C   UNL     1       1.165   4.284 -26.039  0.00  0.00    +0.276 C 
ATOM     27  O   UNL     1       1.142   3.105 -25.600  0.00  0.00    -0.495 OA
ENDBRANCH   1  27
BRANCH   5  28
ATOM     28  O   UNL     1      -5.038   4.155 -24.767  0.00  0.00    -0.491 OA
ATOM     29  C   UNL     1      -5.208   3.477 -25.811  0.00  0.00    +0.277 C 
ENDBRANCH   5  28
TORSDOF 4
ENDMDL
