MODEL 1
REMARK VINA RESULT:   -10.773      0.000      0.000
REMARK INTER + INTRA:         -11.088
REMARK INTER:                 -11.088
REMARK INTRA:                   0.000
REMARK UNBOUND:                 0.000
REMARK  Name = CN1CC[C@@]23CC(=O)CC[C@@H]2[C@H]1Cc1ccc(O)cc13                       ZINC000169369352
REMARK  2 active torsions:
REMARK  status: ('A' for Active; 'I' for Inactive)
REMARK    1  A    between atoms: C_1  and  N_2
REMARK    2  A    between atoms: C_17  and  O_18
REMARK                            x       y       z     vdW  Elec       q    Type
REMARK                         _______ _______ _______ _____ _____    ______ ____
ROOT
ATOM      1  C   UNL     1      -3.714   2.966 -20.284  0.00  0.00    +0.190 C 
ATOM      2  N   UNL     1      -3.478   3.059 -21.776  0.00  0.00    +0.236 N 
ATOM      3  H   UNL     1      -4.185   3.368 -22.445  0.00  0.00    +0.203 HD
ATOM      4  C   UNL     1      -3.346   3.149 -22.947  0.00  0.00    +0.132 C 
ATOM      5  C   UNL     1      -2.351   2.895 -23.594  0.00  0.00    +0.063 C 
ATOM      6  C   UNL     1      -1.565   2.586 -23.149  0.00  0.00    +0.015 C 
ATOM      7  C   UNL     1      -0.476   2.293 -23.723  0.00  0.00    +0.086 C 
ATOM      8  C   UNL     1       0.544   1.877 -23.021  0.00  0.00    +0.134 C 
ATOM      9  C   UNL     1       0.455   1.755 -21.706  0.00  0.00    +0.075 C 
ATOM     10  C   UNL     1      -0.649   2.046 -21.070  0.00  0.00    +0.017 C 
ATOM     11  O   UNL     1       1.638   1.589 -23.654  0.00  0.00    -0.297 OA
ATOM     12  C   UNL     1      -3.034   3.145 -23.815  0.00  0.00    -0.033 A 
ATOM     13  C   UNL     1      -2.955   3.266 -25.094  0.00  0.00    +0.050 A 
ATOM     14  C   UNL     1      -3.962   3.674 -25.762  0.00  0.00    +0.117 A 
ATOM     15  C   UNL     1      -5.063   3.967 -25.157  0.00  0.00    +0.046 A 
ATOM     16  C   UNL     1      -5.148   3.848 -23.867  0.00  0.00    +0.007 A 
ATOM     17  C   UNL     1      -4.141   3.439 -23.196  0.00  0.00    -0.038 A 
ATOM     18  C   UNL     1      -4.180   3.316 -22.006  0.00  0.00    +0.090 C 
ATOM     19  C   UNL     1      -1.665   2.455 -21.724  0.00  0.00    +0.049 C 
ATOM     20  C   UNL     1      -2.861   2.792 -21.222  0.00  0.00    +0.072 C 
ENDROOT
BRANCH  14  21
ATOM     21  O   UNL     1      -3.717   3.746 -27.098  0.00  0.00    -0.507 OA
ATOM     22  H   UNL     1      -4.112   4.424 -27.611  0.00  0.00    +0.292 HD
ENDBRANCH  14  21
TORSDOF 1
ENDMDL
