MODEL 1
REMARK VINA RESULT:    -5.602      0.000      0.000
REMARK INTER + INTRA:          -6.514
REMARK INTER:                  -6.421
REMARK INTRA:                  -0.093
REMARK UNBOUND:                -0.093
REMARK  Name = ZINC000014455311
REMARK  4 active torsions:
REMARK  status: ('A' for Active; 'I' for Inactive)
REMARK    1  A    between atoms: C_1  and  O_2
REMARK    2  A    between atoms: O_2  and  C_3
REMARK    3  A    between atoms: C_5  and  C_6
REMARK    4  A    between atoms: C_6  and  O_7
REMARK                            x       y       z     vdW  Elec       q    Type
REMARK                         _______ _______ _______ _____ _____    ______ ____
ROOT
ATOM      1  C   UNL     1      -4.322   3.588 -24.103  0.00  0.00    +0.130 A 
ATOM      2  C   UNL     1      -3.238   3.208 -23.494  0.00  0.00    +0.090 A 
ATOM      3  C   UNL     1      -2.169   2.933 -24.180  0.00  0.00    +0.138 A 
ATOM      4  O   UNL     1      -2.183   3.039 -25.476  0.00  0.00    -0.425 OA
ATOM      5  C   UNL     1      -3.267   3.419 -26.085  0.00  0.00    +0.340 A 
ATOM      6  O   UNL     1      -3.281   3.525 -27.381  0.00  0.00    -0.245 OA
ATOM      7  C   UNL     1      -4.336   3.694 -25.399  0.00  0.00    +0.137 A 
ENDROOT
BRANCH   1   9
ATOM      8  C   UNL     1      -5.561   3.335 -22.241  0.00  0.00    +0.277 C 
ATOM      9  O   UNL     1      -5.391   3.862 -23.417  0.00  0.00    -0.495 OA
ENDBRANCH   1   9
BRANCH   3  10
ATOM     10  C   UNL     1      -1.085   2.553 -23.571  0.00  0.00    +0.230 C 
BRANCH  10  11
ATOM     11  O   UNL     1      -0.064   2.139 -24.260  0.00  0.00    -0.387 OA
ATOM     12  H   UNL     1       0.148   1.226 -24.007  0.00  0.00    +0.210 HD
ENDBRANCH  10  11
ENDBRANCH   3  10
TORSDOF 3
ENDMDL
