MODEL 1
REMARK VINA RESULT:    -8.018      0.000      0.000
REMARK INTER + INTRA:          -8.950
REMARK INTER:                  -8.661
REMARK INTRA:                  -0.289
REMARK UNBOUND:                -0.229
REMARK  Name = ZINC000001390924
REMARK  3 active torsions:
REMARK  status: ('A' for Active; 'I' for Inactive)
REMARK    1  A    between atoms: C_1  and  C_2
REMARK    2  A    between atoms: C_7  and  N_8
REMARK    3  A    between atoms: C_9  and  C_10
REMARK                            x       y       z     vdW  Elec       q    Type
REMARK                         _______ _______ _______ _____ _____    ______ ____
ROOT
ATOM      1  C   UNL     1      -5.852   3.328 -22.099  0.00  0.00    +0.044 C 
ATOM      2  C   UNL     1      -4.854   3.433 -22.925  0.00  0.00    -0.050 A 
ATOM      3  C   UNL     1      -5.056   3.856 -24.138  0.00  0.00    +0.007 A 
ATOM      4  C   UNL     1      -4.058   3.961 -24.964  0.00  0.00    +0.047 A 
ATOM      5  C   UNL     1      -2.858   3.643 -24.578  0.00  0.00    +0.141 A 
ATOM      6  O   UNL     1      -1.860   3.748 -25.405  0.00  0.00    -0.441 OA
ATOM      7  C   UNL     1      -0.660   3.430 -25.018  0.00  0.00    +0.198 A 
ATOM      8  C   UNL     1      -0.459   3.007 -23.806  0.00  0.00    +0.118 A 
ATOM      9  C   UNL     1      -1.456   2.902 -22.979  0.00  0.00    +0.205 A 
ATOM     10  O   UNL     1      -1.254   2.479 -21.767  0.00  0.00    -0.286 OA
ATOM     11  C   UNL     1      -2.656   3.220 -23.366  0.00  0.00    +0.065 A 
ATOM     12  C   UNL     1      -3.653   3.115 -22.539  0.00  0.00    +0.018 A 
ENDROOT
BRANCH   7  13
ATOM     13  N   UNL     1       0.338   3.535 -25.845  0.00  0.00    -0.329 N 
ATOM     14  H   UNL     1       0.874   2.741 -26.074  0.00  0.00    +0.145 HD
ATOM     15  H   UNL     1       0.559   4.408 -26.242  0.00  0.00    +0.145 HD
ENDBRANCH   7  13
BRANCH   8  16
ATOM     16  C   UNL     1       0.742   2.689 -23.420  0.00  0.00    +0.267 C 
ATOM     17  O   UNL     1       1.237   1.527 -23.727  0.00  0.00    -0.295 OA
ENDBRANCH   8  16
TORSDOF 2
ENDMDL
