MODEL 1
REMARK VINA RESULT:    -6.408      0.000      0.000
REMARK INTER + INTRA:          -7.575
REMARK INTER:                  -7.385
REMARK INTRA:                  -0.190
REMARK UNBOUND:                -0.231
REMARK  Name = ZINC000000157773
REMARK  5 active torsions:
REMARK  status: ('A' for Active; 'I' for Inactive)
REMARK    1  A    between atoms: C_1  and  C_2
REMARK    2  A    between atoms: C_2  and  C_4
REMARK    3  A    between atoms: C_5  and  O_6
REMARK    4  A    between atoms: C_8  and  O_9
REMARK    5  A    between atoms: C_11  and  O_12
REMARK                            x       y       z     vdW  Elec       q    Type
REMARK                         _______ _______ _______ _____ _____    ______ ____
ROOT
ATOM      1  C   UNL     1      -3.848   3.369 -22.558  0.00  0.00    +0.100 A 
ATOM      2  C   UNL     1      -2.843   3.424 -23.382  0.00  0.00    +0.134 A 
ATOM      3  C   UNL     1      -3.039   3.751 -24.625  0.00  0.00    +0.091 A 
ATOM      4  C   UNL     1      -4.239   4.023 -25.044  0.00  0.00    +0.124 A 
ATOM      5  C   UNL     1      -5.243   3.969 -24.221  0.00  0.00    +0.091 A 
ATOM      6  C   UNL     1      -5.048   3.642 -22.977  0.00  0.00    +0.134 A 
ENDROOT
BRANCH   1   8
ATOM      7  C   UNL     1      -3.253   3.939 -20.463  0.00  0.00    +0.092 C 
ATOM      8  C   UNL     1      -3.652   3.042 -21.315  0.00  0.00    +0.167 C 
ATOM      9  O   UNL     1      -3.855   1.819 -20.926  0.00  0.00    -0.292 OA
ENDBRANCH   1   8
BRANCH   4  10
ATOM     10  O   UNL     1      -4.435   4.350 -26.286  0.00  0.00    -0.507 OA
ATOM     11  H   UNL     1      -4.871   3.756 -26.864  0.00  0.00    +0.292 HD
ENDBRANCH   4  10
BRANCH   2  12
ATOM     12  O   UNL     1      -1.643   3.152 -22.963  0.00  0.00    -0.506 OA
ATOM     13  H   UNL     1      -1.361   2.261 -22.896  0.00  0.00    +0.292 HD
ENDBRANCH   2  12
BRANCH   6  14
ATOM     14  O   UNL     1      -6.052   3.587 -22.154  0.00  0.00    -0.506 OA
ATOM     15  H   UNL     1      -5.981   3.093 -21.360  0.00  0.00    +0.292 HD
ENDBRANCH   6  14
TORSDOF 4
ENDMDL
