MODEL 1
REMARK VINA RESULT:   -10.139      0.000      0.000
REMARK INTER + INTRA:         -10.139
REMARK INTER:                 -10.139
REMARK INTRA:                   0.000
REMARK UNBOUND:                 0.000
REMARK  Name = ZINC000030726283
REMARK  2 active torsions:
REMARK  status: ('A' for Active; 'I' for Inactive)
REMARK    1  A    between atoms: C_10  and  C_11
REMARK    2  A    between atoms: C_15  and  C_16
REMARK                            x       y       z     vdW  Elec       q    Type
REMARK                         _______ _______ _______ _____ _____    ______ ____
ROOT
ATOM      1  C   UNL     1       0.705   2.441 -23.024  0.00  0.00    +0.020 C 
ATOM      2  C   UNL     1      -0.058   2.955 -23.956  0.00  0.00    +0.036 C 
ATOM      3  C   UNL     1       0.330   3.344 -25.145  0.00  0.00    +0.335 C 
ATOM      4  O   UNL     1      -0.720   3.801 -25.786  0.00  0.00    -0.455 OA
ATOM      5  C   UNL     1      -1.758   3.694 -24.993  0.00  0.00    +0.216 C 
ATOM      6  C   UNL     1      -3.106   4.039 -25.198  0.00  0.00    +0.192 C 
ATOM      7  O   UNL     1      -4.343   4.384 -25.459  0.00  0.00    -0.361 OA
ATOM      8  C   UNL     1      -4.038   3.867 -24.291  0.00  0.00    +0.097 C 
ATOM      9  C   UNL     1      -3.353   3.346 -23.303  0.00  0.00    +0.044 C 
ATOM     10  C   UNL     1      -5.305   3.902 -23.744  0.00  0.00    +0.041 C 
ATOM     11  C   UNL     1      -5.318   3.465 -22.619  0.00  0.00    +0.030 C 
ATOM     12  C   UNL     1      -4.179   3.168 -22.432  0.00  0.00    -0.028 C 
ATOM     13  C   UNL     1      -3.607   2.684 -21.481  0.00  0.00    -0.077 C 
ATOM     14  C   UNL     1      -4.185   2.361 -20.364  0.00  0.00    +0.039 C 
ATOM     15  C   UNL     1      -2.374   2.556 -21.772  0.00  0.00    +0.031 C 
ATOM     16  C   UNL     1      -2.303   3.023 -23.001  0.00  0.00    +0.016 C 
ATOM     17  O   UNL     1       1.555   3.286 -25.612  0.00  0.00    -0.245 OA
ATOM     18  C   UNL     1      -1.349   3.173 -23.865  0.00  0.00    +0.069 C 
ENDROOT
TORSDOF 0
ENDMDL
