MODEL 1
REMARK VINA RESULT:    -8.220      0.000      0.000
REMARK INTER + INTRA:         -10.129
REMARK INTER:                  -9.556
REMARK INTRA:                  -0.573
REMARK UNBOUND:                -0.228
REMARK  Name = ZINC000004098599
REMARK  5 active torsions:
REMARK  status: ('A' for Active; 'I' for Inactive)
REMARK    1  A    between atoms: C_1  and  N_2
REMARK    2  A    between atoms: C_7  and  C_8
REMARK    3  A    between atoms: C_8  and  C_9
REMARK    4  A    between atoms: C_9  and  O_10
REMARK    5  A    between atoms: C_9  and  C_11
REMARK                            x       y       z     vdW  Elec       q    Type
REMARK                         _______ _______ _______ _____ _____    ______ ____
ROOT
ATOM      1  C   UNL     1      -0.944   3.125 -22.410  0.00  0.00    +0.090 C 
ENDROOT
BRANCH   1   9
ATOM      2  C   UNL     1       1.061   1.492 -22.138  0.00  0.00    +0.190 C 
ATOM      3  N   UNL     1       1.228   2.631 -22.742  0.00  0.00    +0.235 N 
ATOM      4  H   UNL     1       0.700   1.910 -22.248  0.00  0.00    +0.203 HD
ATOM      5  C   UNL     1       2.397   2.954 -23.209  0.00  0.00    +0.131 C 
ATOM      6  C   UNL     1       2.563   4.093 -23.813  0.00  0.00    +0.051 C 
ATOM      7  C   UNL     1       1.561   4.910 -23.949  0.00  0.00    +0.011 C 
ATOM      8  C   UNL     1       0.392   4.587 -23.481  0.00  0.00    +0.055 C 
ATOM      9  C   UNL     1       0.226   3.447 -22.878  0.00  0.00    +0.067 C 
ENDBRANCH   1   9
BRANCH   1  10
ATOM     10  C   UNL     1      -1.896   2.776 -23.224  0.00  0.00    +0.150 C 
BRANCH  10  11
ATOM     11  C   UNL     1      -3.138   2.970 -22.892  0.00  0.00    -0.019 A 
ATOM     12  C   UNL     1      -3.566   2.590 -21.725  0.00  0.00    +0.006 A 
ATOM     13  C   UNL     1      -4.807   2.784 -21.394  0.00  0.00    +0.000 A 
ATOM     14  C   UNL     1      -5.621   3.358 -22.230  0.00  0.00    +0.000 A 
ATOM     15  C   UNL     1      -5.193   3.738 -23.397  0.00  0.00    +0.000 A 
ATOM     16  C   UNL     1      -3.952   3.544 -23.728  0.00  0.00    +0.006 A 
ENDBRANCH  10  11
BRANCH  10  17
ATOM     17  O   UNL     1      -1.606   2.233 -24.369  0.00  0.00    -0.387 OA
ATOM     18  H   UNL     1      -2.270   2.491 -25.026  0.00  0.00    +0.210 HD
ENDBRANCH  10  17
ENDBRANCH   1  10
TORSDOF 4
ENDMDL
