MODEL 1
REMARK VINA RESULT:    -6.142      0.000      0.000
REMARK INTER + INTRA:          -7.187
REMARK INTER:                  -7.028
REMARK INTRA:                  -0.160
REMARK UNBOUND:                -0.147
REMARK  Name = ZINC000000338275
REMARK  4 active torsions:
REMARK  status: ('A' for Active; 'I' for Inactive)
REMARK    1  A    between atoms: C_1  and  O_2
REMARK    2  A    between atoms: O_2  and  C_3
REMARK    3  A    between atoms: C_5  and  C_6
REMARK    4  A    between atoms: C_11  and  O_12
REMARK                            x       y       z     vdW  Elec       q    Type
REMARK                         _______ _______ _______ _____ _____    ______ ____
ROOT
ATOM      1  C   UNL     1      -4.001   3.226 -22.258  0.00  0.00    +0.162 A 
ATOM      2  C   UNL     1      -2.963   3.281 -23.041  0.00  0.00    +0.059 A 
ATOM      3  C   UNL     1      -3.107   3.617 -24.289  0.00  0.00    +0.001 A 
ATOM      4  C   UNL     1      -4.289   3.898 -24.753  0.00  0.00    +0.013 A 
ATOM      5  C   UNL     1      -5.325   3.843 -23.972  0.00  0.00    +0.050 A 
ATOM      6  C   UNL     1      -5.181   3.507 -22.724  0.00  0.00    +0.158 A 
ENDROOT
BRANCH   3   7
ATOM      7  C   UNL     1      -2.071   3.672 -25.071  0.00  0.00    +0.072 C 
ATOM      8  O   UNL     1      -2.199   3.420 -26.340  0.00  0.00    -0.545 OA
ATOM      9  O   UNL     1      -0.905   3.979 -24.584  0.00  0.00    -0.545 OA
ENDBRANCH   3   7
BRANCH   1  11
ATOM     10  C   UNL     1      -3.125   3.619 -20.222  0.00  0.00    +0.277 C 
ATOM     11  O   UNL     1      -3.857   2.890 -21.011  0.00  0.00    -0.491 OA
ENDBRANCH   1  11
BRANCH   6  12
ATOM     12  O   UNL     1      -6.218   3.452 -21.942  0.00  0.00    -0.503 OA
ATOM     13  H   UNL     1      -6.963   2.938 -22.186  0.00  0.00    +0.292 HD
ENDBRANCH   6  12
TORSDOF 3
ENDMDL
