MODEL 1
REMARK VINA RESULT:   -11.460      0.000      0.000
REMARK INTER + INTRA:         -13.244
REMARK INTER:                 -13.302
REMARK INTRA:                   0.058
REMARK UNBOUND:                 0.896
REMARK  Name = O=C(N/C(=C\c1ccccc1F)C(=O)N1C[C@H]2C[C@H](C1)c1cccc(=O)n1C2)c1ccccc1 ZINC000100392497
REMARK  4 active torsions:
REMARK  status: ('A' for Active; 'I' for Inactive)
REMARK    1  A    between atoms: C_2  and  C_29
REMARK    2  A    between atoms: N_3  and  C_4
REMARK    3  A    between atoms: C_4  and  C_13
REMARK    4  A    between atoms: C_5  and  C_6
REMARK                            x       y       z     vdW  Elec       q    Type
REMARK                         _______ _______ _______ _____ _____    ______ ____
ROOT
ATOM      1  C   UNL     1       2.558   2.613 -23.834  0.00  0.00    +0.097 C 
ATOM      2  C   UNL     1       2.383   1.518 -23.159  0.00  0.00    +0.039 C 
ENDROOT
BRANCH   1   3
ATOM      3  C   UNL     1       1.621   3.030 -24.686  0.00  0.00    +0.261 C 
ATOM      4  N   UNL     1       0.327   3.115 -24.301  0.00  0.00    -0.296 N 
ATOM      5  C   UNL     1      -0.082   2.789 -23.060  0.00  0.00    +0.113 C 
ATOM      6  C   UNL     1      -1.361   2.937 -22.882  0.00  0.00    +0.027 C 
ATOM      7  C   UNL     1      -1.798   3.252 -23.662  0.00  0.00    +0.018 C 
ATOM      8  C   UNL     1      -1.833   3.541 -24.563  0.00  0.00    +0.054 C 
ATOM      9  C   UNL     1      -3.017   3.731 -24.568  0.00  0.00    +0.027 A 
ATOM     10  C   UNL     1      -3.867   4.138 -25.433  0.00  0.00    +0.022 A 
ATOM     11  C   UNL     1      -5.152   4.239 -25.105  0.00  0.00    +0.007 A 
ATOM     12  C   UNL     1      -5.591   3.917 -23.860  0.00  0.00    +0.070 A 
ATOM     13  C   UNL     1      -4.762   3.487 -22.912  0.00  0.00    +0.251 A 
ATOM     14  O   UNL     1      -5.216   3.186 -21.727  0.00  0.00    -0.268 OA
ATOM     15  N   UNL     1      -3.514   3.370 -23.169  0.00  0.00    -0.312 N 
ATOM     16  C   UNL     1      -2.359   2.887 -22.219  0.00  0.00    +0.130 C 
ATOM     17  C   UNL     1      -0.657   3.530 -25.124  0.00  0.00    +0.117 C 
ATOM     18  O   UNL     1       1.962   3.359 -25.903  0.00  0.00    -0.269 OA
ENDBRANCH   1   3
BRANCH   2  19
ATOM     19  C   UNL     1       3.303   1.102 -22.318  0.00  0.00    +0.012 A 
ATOM     20  C   UNL     1       4.494   0.815 -22.765  0.00  0.00    +0.011 A 
ATOM     21  C   UNL     1       5.419   0.400 -21.942  0.00  0.00    +0.001 A 
ATOM     22  C   UNL     1       5.149   0.273 -20.671  0.00  0.00    +0.003 A 
ATOM     23  C   UNL     1       3.957   0.559 -20.224  0.00  0.00    +0.039 A 
ATOM     24  C   UNL     1       3.032   0.974 -21.047  0.00  0.00    +0.131 A 
ATOM     25  F   UNL     1       1.841   1.261 -20.600  0.00  0.00    -0.205 F 
ENDBRANCH   2  19
BRANCH   1  28
ATOM     26  O   UNL     1       2.550   4.896 -22.519  0.00  0.00    -0.270 OA
ATOM     27  C   UNL     1       3.666   4.437 -23.012  0.00  0.00    +0.248 C 
ATOM     28  N   UNL     1       3.672   3.304 -23.665  0.00  0.00    -0.277 N 
ATOM     29  H   UNL     1       4.518   2.962 -24.035  0.00  0.00    +0.155 HD
BRANCH  27  30
ATOM     30  C   UNL     1       4.784   5.118 -22.849  0.00  0.00    +0.037 A 
ATOM     31  C   UNL     1       5.917   4.607 -23.243  0.00  0.00    +0.013 A 
ATOM     32  C   UNL     1       7.027   5.276 -23.085  0.00  0.00    +0.001 A 
ATOM     33  C   UNL     1       7.001   6.458 -22.531  0.00  0.00    +0.000 A 
ATOM     34  C   UNL     1       5.868   6.970 -22.138  0.00  0.00    +0.001 A 
ATOM     35  C   UNL     1       4.757   6.301 -22.296  0.00  0.00    +0.013 A 
ENDBRANCH  27  30
ENDBRANCH   1  28
TORSDOF 4
ENDMDL
