MODEL 1
REMARK VINA RESULT:    -8.884      0.000      0.000
REMARK INTER + INTRA:          -9.765
REMARK INTER:                  -9.655
REMARK INTRA:                  -0.110
REMARK UNBOUND:                -0.102
REMARK  Name = ZINC000000491073
REMARK  4 active torsions:
REMARK  status: ('A' for Active; 'I' for Inactive)
REMARK    1  A    between atoms: C_1  and  O_2
REMARK    2  A    between atoms: O_2  and  C_3
REMARK    3  A    between atoms: C_12  and  O_13
REMARK    4  A    between atoms: N_19  and  C_20
REMARK                            x       y       z     vdW  Elec       q    Type
REMARK                         _______ _______ _______ _____ _____    ______ ____
ROOT
ATOM      1  C   UNL     1       1.138   2.183 -23.268  0.00  0.00    +0.162 A 
ATOM      2  C   UNL     1       1.054   1.865 -22.007  0.00  0.00    +0.050 A 
ATOM      3  C   UNL     1      -0.086   1.927 -21.387  0.00  0.00    +0.013 A 
ATOM      4  C   UNL     1      -1.141   2.306 -22.027  0.00  0.00    +0.005 A 
ATOM      5  C   UNL     1      -1.079   2.628 -23.289  0.00  0.00    +0.020 A 
ATOM      6  C   UNL     1      -1.966   3.030 -24.141  0.00  0.00    +0.060 C 
ATOM      7  C   UNL     1      -3.106   3.091 -23.521  0.00  0.00    +0.070 C 
ATOM      8  C   UNL     1      -3.812   2.941 -22.425  0.00  0.00    +0.132 C 
ATOM      9  N   UNL     1      -3.306   2.539 -21.290  0.00  0.00    +0.236 N 
ATOM     10  H   UNL     1      -2.673   2.624 -22.085  0.00  0.00    +0.203 HD
ATOM     11  C   UNL     1      -4.110   2.431 -20.283  0.00  0.00    +0.191 C 
ATOM     12  C   UNL     1      -3.244   3.251 -24.021  0.00  0.00    -0.013 C 
ATOM     13  C   UNL     1      -3.933   3.656 -25.031  0.00  0.00    +0.001 C 
ATOM     14  C   UNL     1      -3.344   3.845 -26.182  0.00  0.00    +0.141 C 
ATOM     15  C   UNL     1      -2.067   3.623 -26.303  0.00  0.00    +0.081 C 
ATOM     16  C   UNL     1      -1.389   3.219 -25.283  0.00  0.00    +0.191 C 
ATOM     17  O   UNL     1      -0.121   2.928 -25.134  0.00  0.00    -0.484 OA
ATOM     18  C   UNL     1      -2.064   2.242 -21.099  0.00  0.00    +0.168 C 
ATOM     19  C   UNL     1       0.070   2.562 -23.898  0.00  0.00    +0.167 A 
ENDROOT
BRANCH   1  21
ATOM     20  C   UNL     1       3.073   1.115 -23.681  0.00  0.00    +0.277 C 
ATOM     21  O   UNL     1       2.276   2.121 -23.885  0.00  0.00    -0.491 OA
ENDBRANCH   1  21
BRANCH  14  22
ATOM     22  O   UNL     1      -4.037   4.255 -27.213  0.00  0.00    -0.388 OA
ATOM     23  H   UNL     1      -4.973   4.037 -27.081  0.00  0.00    +0.210 HD
ENDBRANCH  14  22
TORSDOF 2
ENDMDL
