MODEL 1
REMARK VINA RESULT:   -13.250      0.000      0.000
REMARK INTER + INTRA:         -13.250
REMARK INTER:                 -13.250
REMARK INTRA:                   0.000
REMARK UNBOUND:                 0.000
REMARK  Name = ZINC000004387860
REMARK  2 active torsions:
REMARK  status: ('A' for Active; 'I' for Inactive)
REMARK    1  A    between atoms: C_1  and  C_2
REMARK    2  A    between atoms: C_14  and  C_15
REMARK                            x       y       z     vdW  Elec       q    Type
REMARK                         _______ _______ _______ _____ _____    ______ ____
ROOT
ATOM      1  C   UNL     1      -4.879   2.891 -21.650  0.00  0.00    +0.019 C 
ATOM      2  C   UNL     1      -3.993   3.112 -22.574  0.00  0.00    +0.029 C 
ATOM      3  C   UNL     1      -3.520   2.514 -21.521  0.00  0.00    +0.015 C 
ATOM      4  C   UNL     1      -2.262   2.195 -21.465  0.00  0.00    +0.005 C 
ATOM      5  C   UNL     1      -1.474   2.473 -22.462  0.00  0.00    +0.003 C 
ATOM      6  C   UNL     1      -1.947   3.071 -23.515  0.00  0.00    +0.001 C 
ATOM      7  C   UNL     1      -1.160   3.350 -24.511  0.00  0.00    +0.031 C 
ATOM      8  C   UNL     1       0.099   3.030 -24.455  0.00  0.00    -0.027 C 
ATOM      9  C   UNL     1       0.571   2.432 -23.401  0.00  0.00    -0.062 C 
ATOM     10  C   UNL     1       1.830   2.113 -23.344  0.00  0.00    +0.096 C 
ATOM     11  C   UNL     1       2.302   1.515 -22.291  0.00  0.00    +0.174 C 
ATOM     12  O   UNL     1       2.895   0.918 -21.301  0.00  0.00    -0.346 OA
ATOM     13  C   UNL     1       4.149   0.770 -21.613  0.00  0.00    +0.191 C 
ATOM     14  C   UNL     1       4.330   1.276 -22.796  0.00  0.00    +0.191 C 
ATOM     15  C   UNL     1       1.516   1.236 -21.295  0.00  0.00    +0.066 C 
ATOM     16  C   UNL     1       0.256   1.556 -21.351  0.00  0.00    +0.016 C 
ATOM     17  O   UNL     1       3.189   1.737 -23.216  0.00  0.00    -0.346 OA
ATOM     18  C   UNL     1      -0.216   2.154 -22.405  0.00  0.00    -0.008 C 
ATOM     19  C   UNL     1      -1.003   1.875 -21.408  0.00  0.00    +0.016 C 
ATOM     20  C   UNL     1      -5.186   3.530 -22.875  0.00  0.00    +0.139 C 
ATOM     21  O   UNL     1      -6.243   3.429 -22.127  0.00  0.00    -0.297 OA
ATOM     22  C   UNL     1      -5.137   4.067 -24.059  0.00  0.00    +0.075 C 
ATOM     23  C   UNL     1      -3.913   3.981 -24.489  0.00  0.00    +0.012 C 
ATOM     24  C   UNL     1      -3.206   3.391 -23.572  0.00  0.00    +0.006 C 
ENDROOT
TORSDOF 0
ENDMDL
