MODEL 1
REMARK VINA RESULT:   -10.523      0.000      0.000
REMARK INTER + INTRA:         -10.831
REMARK INTER:                 -10.831
REMARK INTRA:                   0.000
REMARK UNBOUND:                 0.000
REMARK  Name = C=C1C(=O)O[C@H]2/C=C(\C)[C@@H](O)C/C=C(\C)CC[C@@H]12                 ZINC000100392380
REMARK  3 active torsions:
REMARK  status: ('A' for Active; 'I' for Inactive)
REMARK    1  A    between atoms: C_8  and  C_9
REMARK    2  A    between atoms: C_10  and  O_11
REMARK    3  A    between atoms: C_14  and  C_15
REMARK                            x       y       z     vdW  Elec       q    Type
REMARK                         _______ _______ _______ _____ _____    ______ ____
ROOT
ATOM      1  C   UNL     1       0.645   1.503 -21.193  0.00  0.00    +0.020 C 
ATOM      2  C   UNL     1      -0.080   1.956 -22.175  0.00  0.00    +0.036 C 
ATOM      3  C   UNL     1       0.323   2.144 -23.400  0.00  0.00    +0.336 C 
ATOM      4  O   UNL     1      -0.680   2.605 -24.091  0.00  0.00    -0.453 OA
ATOM      5  C   UNL     1      -1.705   2.702 -23.290  0.00  0.00    +0.207 C 
ATOM      6  C   UNL     1      -2.790   3.059 -23.464  0.00  0.00    +0.019 C 
ATOM      7  C   UNL     1      -3.207   3.466 -24.619  0.00  0.00    -0.045 C 
ATOM      8  C   UNL     1      -4.510   3.882 -24.778  0.00  0.00    +0.144 C 
ATOM      9  C   UNL     1      -5.466   3.898 -23.732  0.00  0.00    +0.063 C 
ATOM     10  C   UNL     1      -5.209   3.508 -22.456  0.00  0.00    -0.025 C 
ATOM     11  C   UNL     1      -4.081   3.131 -22.250  0.00  0.00    -0.076 C 
ATOM     12  C   UNL     1      -3.579   2.706 -21.123  0.00  0.00    +0.031 C 
ATOM     13  C   UNL     1      -2.239   2.299 -21.043  0.00  0.00    +0.016 C 
ATOM     14  C   UNL     1      -3.464   3.161 -23.090  0.00  0.00    +0.039 C 
ATOM     15  C   UNL     1      -2.388   3.484 -25.642  0.00  0.00    +0.041 C 
ATOM     16  O   UNL     1       1.521   1.911 -23.859  0.00  0.00    -0.245 OA
ATOM     17  C   UNL     1      -1.335   2.303 -22.110  0.00  0.00    +0.070 C 
ENDROOT
BRANCH   8  18
ATOM     18  O   UNL     1      -4.887   4.286 -25.967  0.00  0.00    -0.387 OA
ATOM     19  H   UNL     1      -4.517   5.166 -26.142  0.00  0.00    +0.210 HD
ENDBRANCH   8  18
TORSDOF 1
ENDMDL
