MODEL 1
REMARK VINA RESULT:    -9.551      0.000      0.000
REMARK INTER + INTRA:         -11.483
REMARK INTER:                 -11.289
REMARK INTRA:                  -0.194
REMARK UNBOUND:                 0.023
REMARK  Name = ZINC000003869685
REMARK  6 active torsions:
REMARK  status: ('A' for Active; 'I' for Inactive)
REMARK    1  A    between atoms: C_3  and  O_4
REMARK    2  A    between atoms: C_5  and  C_6
REMARK    3  A    between atoms: C_9  and  O_10
REMARK    4  A    between atoms: C_11  and  O_12
REMARK    5  A    between atoms: C_17  and  O_18
REMARK    6  A    between atoms: C_20  and  O_21
REMARK                            x       y       z     vdW  Elec       q    Type
REMARK                         _______ _______ _______ _____ _____    ______ ____
ROOT
ATOM      1  O   UNL     1      -2.235   2.088 -21.103  0.00  0.00    -0.283 OA
ATOM      2  C   UNL     1      -1.701   2.561 -22.191  0.00  0.00    +0.238 A 
ATOM      3  C   UNL     1      -0.415   2.495 -22.365  0.00  0.00    +0.208 A 
ATOM      4  C   UNL     1       0.118   2.968 -23.452  0.00  0.00    +0.181 A 
ATOM      5  O   UNL     1      -0.634   3.507 -24.365  0.00  0.00    -0.451 OA
ATOM      6  C   UNL     1      -1.921   3.573 -24.190  0.00  0.00    +0.147 A 
ATOM      7  C   UNL     1      -2.674   4.112 -25.102  0.00  0.00    +0.092 A 
ATOM      8  C   UNL     1      -3.961   4.177 -24.928  0.00  0.00    +0.124 A 
ATOM      9  C   UNL     1      -4.494   3.705 -23.841  0.00  0.00    +0.091 A 
ATOM     10  C   UNL     1      -3.741   3.166 -22.928  0.00  0.00    +0.135 A 
ATOM     11  C   UNL     1      -2.454   3.100 -23.103  0.00  0.00    +0.109 A 
ENDROOT
BRANCH   4  12
ATOM     12  C   UNL     1       1.405   2.902 -23.627  0.00  0.00    +0.025 A 
ATOM     13  C   UNL     1       2.161   3.899 -23.274  0.00  0.00    +0.015 A 
ATOM     14  C   UNL     1       3.447   3.832 -23.449  0.00  0.00    +0.050 A 
ATOM     15  C   UNL     1       3.978   2.769 -23.977  0.00  0.00    +0.158 A 
ATOM     16  C   UNL     1       3.221   1.773 -24.330  0.00  0.00    +0.159 A 
ATOM     17  C   UNL     1       1.935   1.839 -24.156  0.00  0.00    +0.060 A 
BRANCH  16  18
ATOM     18  O   UNL     1       3.752   0.710 -24.859  0.00  0.00    -0.503 OA
ATOM     19  H   UNL     1       3.373   0.329 -25.627  0.00  0.00    +0.292 HD
ENDBRANCH  16  18
BRANCH  15  20
ATOM     20  O   UNL     1       5.264   2.704 -24.152  0.00  0.00    -0.503 OA
ATOM     21  H   UNL     1       5.798   3.458 -23.996  0.00  0.00    +0.292 HD
ENDBRANCH  15  20
ENDBRANCH   4  12
BRANCH   8  22
ATOM     22  O   UNL     1      -4.713   4.716 -25.840  0.00  0.00    -0.507 OA
ATOM     23  H   UNL     1      -5.200   5.493 -25.647  0.00  0.00    +0.292 HD
ENDBRANCH   8  22
BRANCH  10  24
ATOM     24  O   UNL     1      -4.275   2.693 -21.841  0.00  0.00    -0.506 OA
ATOM     25  H   UNL     1      -3.923   2.929 -21.006  0.00  0.00    +0.292 HD
ENDBRANCH  10  24
BRANCH   3  26
ATOM     26  O   UNL     1       0.337   1.956 -21.452  0.00  0.00    -0.501 OA
ATOM     27  H   UNL     1      -0.043   1.411 -20.793  0.00  0.00    +0.292 HD
ENDBRANCH   3  26
TORSDOF 6
ENDMDL
