MODEL 1
REMARK VINA RESULT:    -9.645      0.000      0.000
REMARK INTER + INTRA:          -9.927
REMARK INTER:                  -9.927
REMARK INTRA:                   0.000
REMARK UNBOUND:                 0.000
REMARK  Name = ZINC000019800971
REMARK  4 active torsions:
REMARK  status: ('A' for Active; 'I' for Inactive)
REMARK    1  A    between atoms: C_1  and  C_2
REMARK    2  A    between atoms: C_9  and  O_10
REMARK    3  A    between atoms: C_14  and  C_15
REMARK    4  A    between atoms: C_14  and  C_16
REMARK                            x       y       z     vdW  Elec       q    Type
REMARK                         _______ _______ _______ _____ _____    ______ ____
ROOT
ATOM      1  C   UNL     1      -3.913   2.564 -20.628  0.00  0.00    +0.008 C 
ATOM      2  C   UNL     1      -4.271   2.997 -21.800  0.00  0.00    -0.010 C 
ATOM      3  C   UNL     1      -5.469   3.369 -22.143  0.00  0.00    +0.004 C 
ATOM      4  C   UNL     1      -5.434   3.737 -23.390  0.00  0.00    +0.011 C 
ATOM      5  C   UNL     1      -4.214   3.594 -23.817  0.00  0.00    +0.059 C 
ATOM      6  C   UNL     1      -3.842   3.877 -25.030  0.00  0.00    +0.139 C 
ATOM      7  C   UNL     1      -2.660   3.773 -25.560  0.00  0.00    +0.106 C 
ATOM      8  C   UNL     1      -1.557   3.360 -25.008  0.00  0.00    +0.126 C 
ATOM      9  C   UNL     1      -1.366   2.949 -23.790  0.00  0.00    +0.028 C 
ATOM     10  C   UNL     1      -2.228   2.850 -22.823  0.00  0.00    +0.005 C 
ATOM     11  C   UNL     1      -0.988   2.513 -22.624  0.00  0.00    -0.026 C 
ATOM     12  C   UNL     1      -1.049   2.150 -21.378  0.00  0.00    +0.011 C 
ATOM     13  C   UNL     1       0.273   2.302 -22.860  0.00  0.00    +0.011 C 
ATOM     14  O   UNL     1      -4.776   4.323 -25.817  0.00  0.00    -0.297 OA
ATOM     15  C   UNL     1      -3.496   3.137 -22.835  0.00  0.00    +0.006 C 
ENDROOT
BRANCH   8  16
ATOM     16  O   UNL     1      -0.509   3.358 -25.776  0.00  0.00    -0.391 OA
ATOM     17  H   UNL     1       0.289   3.469 -25.235  0.00  0.00    +0.210 HD
ENDBRANCH   8  16
TORSDOF 1
ENDMDL
