MODEL 1
REMARK VINA RESULT:   -12.479      0.000      0.000
REMARK INTER + INTRA:         -12.479
REMARK INTER:                 -12.479
REMARK INTRA:                   0.000
REMARK UNBOUND:                 0.000
REMARK  Name = ZINC000004104638
REMARK  2 active torsions:
REMARK  status: ('A' for Active; 'I' for Inactive)
REMARK    1  A    between atoms: C_1  and  C_2
REMARK    2  A    between atoms: C_16  and  C_17
REMARK                            x       y       z     vdW  Elec       q    Type
REMARK                         _______ _______ _______ _____ _____    ______ ____
ROOT
ATOM      1  C   UNL     1      -4.817   2.856 -21.592  0.00  0.00    +0.019 C 
ATOM      2  C   UNL     1      -3.965   3.126 -22.536  0.00  0.00    +0.029 C 
ATOM      3  C   UNL     1      -3.443   2.528 -21.507  0.00  0.00    +0.015 C 
ATOM      4  C   UNL     1      -2.172   2.254 -21.490  0.00  0.00    +0.005 C 
ATOM      5  C   UNL     1      -1.424   2.579 -22.502  0.00  0.00    -0.001 C 
ATOM      6  C   UNL     1      -1.946   3.177 -23.531  0.00  0.00    +0.004 C 
ATOM      7  C   UNL     1      -1.198   3.502 -24.543  0.00  0.00    +0.078 C 
ATOM      8  C   UNL     1       0.072   3.229 -24.526  0.00  0.00    +0.138 C 
ATOM      9  C   UNL     1       0.595   2.630 -23.497  0.00  0.00    +0.068 C 
ATOM     10  C   UNL     1       1.866   2.356 -23.480  0.00  0.00    +0.086 C 
ATOM     11  C   UNL     1       2.388   1.758 -22.451  0.00  0.00    +0.134 C 
ATOM     12  C   UNL     1       1.640   1.433 -21.439  0.00  0.00    +0.075 C 
ATOM     13  C   UNL     1       0.369   1.706 -21.456  0.00  0.00    +0.015 C 
ATOM     14  O   UNL     1       3.659   1.484 -22.434  0.00  0.00    -0.297 OA
ATOM     15  O   UNL     1       0.821   3.553 -25.538  0.00  0.00    -0.297 OA
ATOM     16  C   UNL     1      -0.154   2.305 -22.485  0.00  0.00    -0.019 C 
ATOM     17  C   UNL     1      -0.902   1.980 -21.473  0.00  0.00    +0.012 C 
ATOM     18  C   UNL     1      -5.181   3.505 -22.797  0.00  0.00    +0.139 C 
ATOM     19  O   UNL     1      -6.214   3.352 -22.022  0.00  0.00    -0.297 OA
ATOM     20  C   UNL     1      -5.184   4.064 -23.971  0.00  0.00    +0.075 C 
ATOM     21  C   UNL     1      -3.971   4.031 -24.435  0.00  0.00    +0.012 C 
ATOM     22  C   UNL     1      -3.217   3.451 -23.548  0.00  0.00    +0.006 C 
ENDROOT
TORSDOF 0
ENDMDL
