MODEL 1
REMARK VINA RESULT:    -9.631      0.000      0.000
REMARK INTER + INTRA:          -9.631
REMARK INTER:                  -9.631
REMARK INTRA:                   0.000
REMARK UNBOUND:                 0.000
REMARK  Name = ZINC000000898052
REMARK  0 active torsions:
REMARK  status: ('A' for Active; 'I' for Inactive)
REMARK                            x       y       z     vdW  Elec       q    Type
REMARK                         _______ _______ _______ _____ _____    ______ ____
ROOT
ATOM      1  O   UNL     1      -1.503   3.733 -25.893  0.00  0.00    -0.267 OA
ATOM      2  C   UNL     1      -2.532   3.673 -25.124  0.00  0.00    +0.256 A 
ATOM      3  C   UNL     1      -3.679   4.076 -25.549  0.00  0.00    +0.073 A 
ATOM      4  C   UNL     1      -4.708   4.016 -24.778  0.00  0.00    +0.035 A 
ATOM      5  C   UNL     1      -4.591   3.553 -23.583  0.00  0.00    +0.088 A 
ATOM      6  N   UNL     1      -5.620   3.493 -22.814  0.00  0.00    -0.253 NA
ATOM      7  C   UNL     1      -5.503   3.031 -21.619  0.00  0.00    +0.112 A 
ATOM      8  C   UNL     1      -4.358   2.629 -21.193  0.00  0.00    +0.030 A 
ATOM      9  C   UNL     1      -3.328   2.689 -21.963  0.00  0.00    +0.012 A 
ATOM     10  C   UNL     1      -1.809   2.413 -22.103  0.00  0.00    +0.008 A 
ATOM     11  C   UNL     1      -0.976   1.923 -21.253  0.00  0.00    +0.010 A 
ATOM     12  C   UNL     1       0.261   1.775 -21.577  0.00  0.00    +0.001 A 
ATOM     13  C   UNL     1       0.665   2.117 -22.750  0.00  0.00    +0.002 A 
ATOM     14  C   UNL     1      -0.167   2.607 -23.599  0.00  0.00    +0.027 A 
ATOM     15  C   UNL     1      -1.404   2.755 -23.277  0.00  0.00    +0.058 A 
ATOM     16  C   UNL     1      -3.445   3.151 -23.158  0.00  0.00    +0.083 A 
ATOM     17  N   UNL     1      -2.415   3.211 -23.928  0.00  0.00    -0.274 N 
ENDROOT
TORSDOF 0
ENDMDL
