MODEL 1
REMARK VINA RESULT:   -10.682      0.000      0.000
REMARK INTER + INTRA:         -10.994
REMARK INTER:                 -10.994
REMARK INTRA:                   0.000
REMARK UNBOUND:                 0.000
REMARK  Name = O=CN1CC[C@]23CC(=O)CC[C@H]2[C@@H]1Cc1cc(Br)c(O)cc13                  ZINC000100393518
REMARK  1 active torsions:
REMARK  status: ('A' for Active; 'I' for Inactive)
REMARK    1  A    between atoms: C_19  and  O_20
REMARK                            x       y       z     vdW  Elec       q    Type
REMARK                         _______ _______ _______ _____ _____    ______ ____
ROOT
ATOM      1  O   UNL     1       1.203   3.900 -26.005  0.00  0.00    -0.279 OA
ATOM      2  C   UNL     1       0.227   3.784 -25.403  0.00  0.00    +0.328 C 
ATOM      3  N   UNL     1      -0.578   3.348 -24.130  0.00  0.00    -0.300 N 
ATOM      4  C   UNL     1      -1.284   3.053 -23.213  0.00  0.00    +0.109 C 
ATOM      5  C   UNL     1      -0.940   2.537 -22.153  0.00  0.00    +0.031 C 
ATOM      6  C   UNL     1      -0.024   2.332 -22.000  0.00  0.00    +0.009 C 
ATOM      7  C   UNL     1       0.418   1.800 -20.937  0.00  0.00    +0.086 C 
ATOM      8  C   UNL     1       1.690   1.556 -20.820  0.00  0.00    +0.134 C 
ATOM      9  C   UNL     1       2.536   1.855 -21.795  0.00  0.00    +0.075 C 
ATOM     10  C   UNL     1       2.115   2.406 -22.908  0.00  0.00    +0.014 C 
ATOM     11  O   UNL     1       2.052   1.002 -19.680  0.00  0.00    -0.297 OA
ATOM     12  C   UNL     1      -1.629   2.744 -22.388  0.00  0.00    -0.034 A 
ATOM     13  C   UNL     1      -2.431   2.440 -21.418  0.00  0.00    +0.051 A 
ATOM     14  C   UNL     1      -3.686   2.679 -21.531  0.00  0.00    +0.131 A 
ATOM     15  C   UNL     1      -4.150   3.222 -22.611  0.00  0.00    +0.059 A 
ATOM     16 BR   UNL     1      -5.424   3.398 -22.572  0.00  0.00    -0.047 Br
ATOM     17  C   UNL     1      -3.343   3.528 -23.588  0.00  0.00    +0.023 A 
ATOM     18  C   UNL     1      -2.086   3.293 -23.486  0.00  0.00    -0.041 A 
ATOM     19  C   UNL     1      -1.301   3.564 -24.374  0.00  0.00    +0.058 C 
ATOM     20  C   UNL     1       0.884   2.661 -23.066  0.00  0.00    +0.021 C 
ATOM     21  C   UNL     1       0.287   3.226 -24.150  0.00  0.00    +0.084 C 
ENDROOT
BRANCH  14  22
ATOM     22  O   UNL     1      -4.425   2.330 -20.479  0.00  0.00    -0.506 OA
ATOM     23  H   UNL     1      -4.794   2.990 -19.926  0.00  0.00    +0.292 HD
ENDBRANCH  14  22
TORSDOF 1
ENDMDL
