MODEL 1
REMARK VINA RESULT:    -8.034      0.000      0.000
REMARK INTER + INTRA:         -14.438
REMARK INTER:                 -12.756
REMARK INTRA:                  -1.682
REMARK UNBOUND:                -1.237
REMARK  Name = CCCCCCCCCCCC1=C(O)C(=O)C=C(NC)C1=O                                   ZINC000106803392
REMARK  13 active torsions:
REMARK  status: ('A' for Active; 'I' for Inactive)
REMARK    1  A    between atoms: C_1  and  C_2
REMARK    2  A    between atoms: C_2  and  C_3
REMARK    3  A    between atoms: C_3  and  C_4
REMARK    4  A    between atoms: C_4  and  C_5
REMARK    5  A    between atoms: C_5  and  C_6
REMARK    6  A    between atoms: C_6  and  C_7
REMARK    7  A    between atoms: C_7  and  C_8
REMARK    8  A    between atoms: C_8  and  C_9
REMARK    9  A    between atoms: C_9  and  C_10
REMARK   10  A    between atoms: C_10  and  C_11
REMARK   11  A    between atoms: C_11  and  C_12
REMARK   12  A    between atoms: C_18  and  N_19
REMARK   13  A    between atoms: N_19  and  C_20
REMARK                            x       y       z     vdW  Elec       q    Type
REMARK                         _______ _______ _______ _____ _____    ______ ____
ROOT
ATOM      1  C   UNL     1       0.524   3.321 -23.258  0.00  0.00    -0.008 C 
ATOM      2  C   UNL     1       0.715   2.148 -22.730  0.00  0.00    +0.228 C 
ATOM      3  C   UNL     1       1.893   1.818 -22.290  0.00  0.00    +0.227 C 
ATOM      4  C   UNL     1       2.879   2.660 -22.378  0.00  0.00    +0.076 C 
ATOM      5  C   UNL     1       2.688   3.832 -22.906  0.00  0.00    +0.018 C 
ATOM      6  O   UNL     1       2.084   0.645 -21.761  0.00  0.00    -0.284 OA
ATOM      7  O   UNL     1      -0.272   1.306 -22.642  0.00  0.00    -0.284 OA
ATOM      8  C   UNL     1       1.511   4.163 -23.346  0.00  0.00    -0.112 C 
ATOM      9  O   UNL     1       1.320   5.335 -23.874  0.00  0.00    -0.828 OA
ENDROOT
BRANCH   5  10
ATOM     10  N   UNL     1       3.676   4.674 -22.994  0.00  0.00    -0.348 N 
ATOM     11  H   UNL     1       3.509   5.639 -22.894  0.00  0.00    +0.146 HD
ATOM     12  C   UNL     1       4.881   4.241 -23.214  0.00  0.00    +0.125 C 
ENDBRANCH   5  10
BRANCH   1  13
ATOM     13  C   UNL     1      -0.654   3.651 -23.698  0.00  0.00    +0.038 C 
BRANCH  13  14
ATOM     14  C   UNL     1      -1.030   3.282 -24.886  0.00  0.00    +0.005 C 
BRANCH  14  15
ATOM     15  C   UNL     1      -2.112   3.780 -25.408  0.00  0.00    +0.000 C 
BRANCH  15  16
ATOM     16  C   UNL     1      -3.155   3.023 -25.587  0.00  0.00    +0.000 C 
BRANCH  16  17
ATOM     17  C   UNL     1      -4.348   3.526 -25.476  0.00  0.00    +0.000 C 
BRANCH  17  18
ATOM     18  C   UNL     1      -4.668   4.213 -24.420  0.00  0.00    +0.000 C 
BRANCH  18  19
ATOM     19  C   UNL     1      -5.282   3.635 -23.429  0.00  0.00    -0.000 C 
BRANCH  19  20
ATOM     20  C   UNL     1      -4.726   3.594 -22.255  0.00  0.00    -0.000 C 
BRANCH  20  21
ATOM     21  C   UNL     1      -3.778   2.737 -22.014  0.00  0.00    -0.000 C 
BRANCH  21  23
ATOM     22  C   UNL     1      -3.132   3.910 -20.204  0.00  0.00    +0.004 C 
ATOM     23  C   UNL     1      -3.087   2.823 -20.916  0.00  0.00    -0.003 C 
ENDBRANCH  21  23
ENDBRANCH  20  21
ENDBRANCH  19  20
ENDBRANCH  18  19
ENDBRANCH  17  18
ENDBRANCH  16  17
ENDBRANCH  15  16
ENDBRANCH  14  15
ENDBRANCH  13  14
ENDBRANCH   1  13
TORSDOF 11
ENDMDL
