MODEL 1
REMARK VINA RESULT:   -10.910      0.000      0.000
REMARK INTER + INTRA:         -11.670
REMARK INTER:                 -11.521
REMARK INTRA:                  -0.149
REMARK UNBOUND:                -0.122
REMARK  Name = COc1ccc2c3c1O[C@@H]1[C@@H](Cl)C=C[C@H]4[C@@H](C2)N(C)CC[C@]314       ZINC000253504149
REMARK  3 active torsions:
REMARK  status: ('A' for Active; 'I' for Inactive)
REMARK    1  A    between atoms: C_1  and  O_2
REMARK    2  A    between atoms: O_2  and  C_3
REMARK    3  A    between atoms: N_18  and  C_19
REMARK                            x       y       z     vdW  Elec       q    Type
REMARK                         _______ _______ _______ _____ _____    ______ ____
ROOT
ATOM      1  C   UNL     1       0.924   2.250 -23.285  0.00  0.00    +0.162 A 
ATOM      2  C   UNL     1       0.887   1.891 -22.075  0.00  0.00    +0.050 A 
ATOM      3  C   UNL     1      -0.188   1.919 -21.438  0.00  0.00    +0.008 A 
ATOM      4  C   UNL     1      -1.235   2.305 -22.004  0.00  0.00    -0.034 A 
ATOM      5  C   UNL     1      -1.221   2.667 -23.208  0.00  0.00    +0.012 A 
ATOM      6  C   UNL     1      -2.268   3.052 -23.767  0.00  0.00    +0.054 C 
ATOM      7  C   UNL     1      -3.395   3.509 -24.510  0.00  0.00    +0.067 C 
ATOM      8  C   UNL     1      -4.621   3.551 -23.820  0.00  0.00    +0.132 C 
ATOM      9  N   UNL     1      -4.625   3.143 -22.471  0.00  0.00    +0.236 N 
ATOM     10  H   UNL     1      -5.486   3.154 -21.924  0.00  0.00    +0.203 HD
ATOM     11  C   UNL     1      -5.670   3.151 -21.787  0.00  0.00    +0.190 C 
ATOM     12  C   UNL     1      -3.380   2.722 -21.924  0.00  0.00    +0.076 C 
ATOM     13  C   UNL     1      -3.345   3.081 -23.134  0.00  0.00    +0.075 C 
ATOM     14  C   UNL     1      -4.405   3.471 -23.702  0.00  0.00    -0.020 C 
ATOM     15  C   UNL     1      -4.374   3.828 -24.899  0.00  0.00    -0.008 C 
ATOM     16  C   UNL     1      -3.292   3.803 -25.549  0.00  0.00    +0.144 C 
ATOM     17 CL   UNL     1      -3.267   4.160 -26.745  0.00  0.00    -0.113 Cl
ATOM     18  C   UNL     1      -2.246   3.416 -24.983  0.00  0.00    +0.207 C 
ATOM     19  O   UNL     1      -0.765   3.152 -25.114  0.00  0.00    -0.482 OA
ATOM     20  C   UNL     1      -2.334   2.336 -21.360  0.00  0.00    +0.090 C 
ATOM     21  C   UNL     1      -0.138   2.640 -23.853  0.00  0.00    +0.167 A 
ENDROOT
BRANCH   1  23
ATOM     22  C   UNL     1       2.704   3.251 -24.004  0.00  0.00    +0.277 C 
ATOM     23  O   UNL     1       2.001   2.221 -23.918  0.00  0.00    -0.491 OA
ENDBRANCH   1  23
TORSDOF 1
ENDMDL
