MODEL 1
REMARK VINA RESULT:   -11.129      0.000      0.000
REMARK INTER + INTRA:         -11.888
REMARK INTER:                 -11.744
REMARK INTRA:                  -0.144
REMARK UNBOUND:                -0.108
REMARK  Name = COc1ccc2c3c1O[C@H]1C=CC=C4[C@@H](C2)NCC[C@@]431                      ZINC000100393372
REMARK  2 active torsions:
REMARK  status: ('A' for Active; 'I' for Inactive)
REMARK    1  A    between atoms: C_1  and  O_2
REMARK    2  A    between atoms: O_2  and  C_3
REMARK                            x       y       z     vdW  Elec       q    Type
REMARK                         _______ _______ _______ _____ _____    ______ ____
ROOT
ATOM      1  C   UNL     1      -0.050   2.763 -23.974  0.00  0.00    +0.162 A 
ATOM      2  C   UNL     1      -0.157   3.306 -25.105  0.00  0.00    +0.050 A 
ATOM      3  C   UNL     1      -1.255   3.756 -25.486  0.00  0.00    +0.008 A 
ATOM      4  C   UNL     1      -2.253   3.668 -24.748  0.00  0.00    -0.034 A 
ATOM      5  C   UNL     1      -2.168   3.132 -23.620  0.00  0.00    +0.016 A 
ATOM      6  C   UNL     1      -3.167   3.045 -22.881  0.00  0.00    +0.071 C 
ATOM      7  C   UNL     1      -4.233   2.891 -21.959  0.00  0.00    +0.071 C 
ATOM      8  C   UNL     1      -5.483   3.388 -22.362  0.00  0.00    +0.131 C 
ATOM      9  N   UNL     1      -5.562   3.987 -23.629  0.00  0.00    +0.233 N 
ATOM     10  H   UNL     1      -5.802   4.962 -23.447  0.00  0.00    +0.202 HD
ATOM     11  H   UNL     1      -6.254   3.469 -24.172  0.00  0.00    +0.202 HD
ATOM     12  C   UNL     1      -4.370   4.037 -24.392  0.00  0.00    +0.095 C 
ATOM     13  C   UNL     1      -4.265   3.494 -23.262  0.00  0.00    -0.007 C 
ATOM     14  C   UNL     1      -5.276   3.406 -22.515  0.00  0.00    +0.006 C 
ATOM     15  C   UNL     1      -5.178   2.870 -21.395  0.00  0.00    -0.000 C 
ATOM     16  C   UNL     1      -4.072   2.414 -21.003  0.00  0.00    +0.018 C 
ATOM     17  C   UNL     1      -3.073   2.501 -21.741  0.00  0.00    +0.212 C 
ATOM     18  O   UNL     1      -1.607   2.214 -21.918  0.00  0.00    -0.480 OA
ATOM     19  C   UNL     1      -3.372   4.124 -25.131  0.00  0.00    +0.094 C 
ATOM     20  C   UNL     1      -1.062   2.676 -23.227  0.00  0.00    +0.167 A 
ENDROOT
BRANCH   1  22
ATOM     21  C   UNL     1       1.814   3.018 -22.898  0.00  0.00    +0.277 C 
ATOM     22  O   UNL     1       1.058   2.311 -23.592  0.00  0.00    -0.491 OA
ENDBRANCH   1  22
TORSDOF 1
ENDMDL
