MODEL 1
REMARK VINA RESULT:    -9.366      0.000      0.000
REMARK INTER + INTRA:         -11.400
REMARK INTER:                 -11.172
REMARK INTRA:                  -0.228
REMARK UNBOUND:                -0.118
REMARK  Name = ZINC000000119978
REMARK  6 active torsions:
REMARK  status: ('A' for Active; 'I' for Inactive)
REMARK    1  A    between atoms: O_1  and  C_2
REMARK    2  A    between atoms: C_4  and  O_5
REMARK    3  A    between atoms: C_10  and  C_11
REMARK    4  A    between atoms: C_14  and  O_15
REMARK    5  A    between atoms: C_16  and  O_17
REMARK    6  A    between atoms: C_19  and  O_20
REMARK                            x       y       z     vdW  Elec       q    Type
REMARK                         _______ _______ _______ _____ _____    ______ ____
ROOT
ATOM      1  C   UNL     1      -3.937   4.244 -24.651  0.00  0.00    +0.124 A 
ATOM      2  C   UNL     1      -4.461   3.716 -23.585  0.00  0.00    +0.091 A 
ATOM      3  C   UNL     1      -3.702   3.110 -22.720  0.00  0.00    +0.127 A 
ATOM      4  C   UNL     1      -2.420   3.033 -22.921  0.00  0.00    +0.038 A 
ATOM      5  C   UNL     1      -1.897   3.562 -23.987  0.00  0.00    +0.132 A 
ATOM      6  O   UNL     1      -0.615   3.485 -24.189  0.00  0.00    -0.481 OA
ATOM      7  C   UNL     1       0.144   2.879 -23.323  0.00  0.00    +0.232 C 
ATOM      8  C   UNL     1      -0.380   2.350 -22.257  0.00  0.00    +0.164 C 
ATOM      9  C   UNL     1      -1.662   2.428 -22.056  0.00  0.00    +0.078 C 
ATOM     10  C   UNL     1      -2.655   4.167 -24.852  0.00  0.00    +0.091 A 
ENDROOT
BRANCH   7  11
ATOM     11  C   UNL     1       1.426   2.802 -23.525  0.00  0.00    -0.001 A 
ATOM     12  C   UNL     1       2.201   3.782 -23.164  0.00  0.00    +0.011 A 
ATOM     13  C   UNL     1       3.482   3.705 -23.365  0.00  0.00    +0.049 A 
ATOM     14  C   UNL     1       3.990   2.648 -23.927  0.00  0.00    +0.158 A 
ATOM     15  C   UNL     1       3.216   1.668 -24.287  0.00  0.00    +0.159 A 
ATOM     16  C   UNL     1       1.933   1.746 -24.086  0.00  0.00    +0.056 A 
BRANCH  15  17
ATOM     17  O   UNL     1       3.723   0.611 -24.849  0.00  0.00    -0.503 OA
ATOM     18  H   UNL     1       3.870   0.597 -25.774  0.00  0.00    +0.292 HD
ENDBRANCH  15  17
BRANCH  14  19
ATOM     19  O   UNL     1       5.272   2.571 -24.128  0.00  0.00    -0.503 OA
ATOM     20  H   UNL     1       5.724   1.766 -23.970  0.00  0.00    +0.292 HD
ENDBRANCH  14  19
ENDBRANCH   7  11
BRANCH   8  21
ATOM     21  O   UNL     1       0.379   1.745 -21.392  0.00  0.00    -0.387 OA
ATOM     22  H   UNL     1       0.996   2.382 -21.001  0.00  0.00    +0.210 HD
ENDBRANCH   8  21
BRANCH   1  23
ATOM     23  O   UNL     1      -4.695   4.850 -25.516  0.00  0.00    -0.507 OA
ATOM     24  H   UNL     1      -4.321   5.457 -26.123  0.00  0.00    +0.292 HD
ENDBRANCH   1  23
BRANCH   3  25
ATOM     25  O   UNL     1      -4.226   2.581 -21.653  0.00  0.00    -0.506 OA
ATOM     26  H   UNL     1      -5.124   2.746 -21.442  0.00  0.00    +0.292 HD
ENDBRANCH   3  25
TORSDOF 6
ENDMDL
