MODEL 1
REMARK VINA RESULT:    -8.862      0.000      0.000
REMARK INTER + INTRA:          -9.945
REMARK INTER:                  -9.685
REMARK INTRA:                  -0.260
REMARK UNBOUND:                -0.306
REMARK  Name = ZINC000085340986
REMARK  3 active torsions:
REMARK  status: ('A' for Active; 'I' for Inactive)
REMARK    1  A    between atoms: C_1  and  C_2
REMARK    2  A    between atoms: C_13  and  C_14
REMARK    3  A    between atoms: C_16  and  O_17
REMARK                            x       y       z     vdW  Elec       q    Type
REMARK                         _______ _______ _______ _____ _____    ______ ____
ROOT
ATOM      1  C   UNL     1      -5.476   2.952 -21.303  0.00  0.00    +0.047 C 
ATOM      2  C   UNL     1      -4.437   3.022 -22.080  0.00  0.00    -0.008 A 
ATOM      3  C   UNL     1      -3.284   2.585 -21.665  0.00  0.00    +0.017 A 
ATOM      4  C   UNL     1      -2.245   2.656 -22.442  0.00  0.00    +0.009 A 
ATOM      5  C   UNL     1      -2.357   3.163 -23.634  0.00  0.00    +0.061 A 
ATOM      6  C   UNL     1      -3.508   3.600 -24.048  0.00  0.00    +0.080 A 
ATOM      7  N   UNL     1      -1.188   3.118 -24.201  0.00  0.00    -0.353 N 
ATOM      8  H   UNL     1      -0.973   3.435 -25.109  0.00  0.00    +0.166 HD
ATOM      9  C   UNL     1      -0.353   2.584 -23.360  0.00  0.00    +0.047 A 
ATOM     10  C   UNL     1       0.917   2.320 -23.444  0.00  0.00    +0.026 A 
ATOM     11  C   UNL     1       1.534   1.770 -22.440  0.00  0.00    +0.002 A 
ATOM     12  C   UNL     1       0.881   1.484 -21.353  0.00  0.00    +0.001 A 
ATOM     13  C   UNL     1      -0.390   1.748 -21.270  0.00  0.00    +0.010 A 
ATOM     14  C   UNL     1      -1.007   2.297 -22.273  0.00  0.00    +0.007 A 
ATOM     15  C   UNL     1      -4.549   3.529 -23.271  0.00  0.00    +0.132 A 
ENDROOT
BRANCH   6  16
ATOM     16  C   UNL     1      -3.621   4.107 -25.240  0.00  0.00    +0.264 C 
ATOM     17  O   UNL     1      -4.087   5.312 -25.391  0.00  0.00    -0.296 OA
ENDBRANCH   6  16
BRANCH  15  18
ATOM     18  O   UNL     1      -5.700   3.967 -23.686  0.00  0.00    -0.506 OA
ATOM     19  H   UNL     1      -6.183   3.480 -24.326  0.00  0.00    +0.292 HD
ENDBRANCH  15  18
TORSDOF 2
ENDMDL
