MODEL 1
REMARK VINA RESULT:   -10.568      0.000      0.000
REMARK INTER + INTRA:         -12.414
REMARK INTER:                 -13.112
REMARK INTRA:                   0.698
REMARK UNBOUND:                 0.934
REMARK  Name = COCO[C@@H]1C=C2[C@H]3Cc4ccc(OC)c5c4[C@@]2(CCN3C)[C@](C)(O5)[C@H]1O   ZINC000253505466
REMARK  9 active torsions:
REMARK  status: ('A' for Active; 'I' for Inactive)
REMARK    1  A    between atoms: C_1  and  O_2
REMARK    2  A    between atoms: O_2  and  C_3
REMARK    3  A    between atoms: C_3  and  O_4
REMARK    4  A    between atoms: O_4  and  C_5
REMARK    5  A    between atoms: C_13  and  O_14
REMARK    6  A    between atoms: O_14  and  C_15
REMARK    7  A    between atoms: N_21  and  C_22
REMARK    8  A    between atoms: C_23  and  C_24
REMARK    9  A    between atoms: C_26  and  O_27
REMARK                            x       y       z     vdW  Elec       q    Type
REMARK                         _______ _______ _______ _____ _____    ______ ____
ROOT
ATOM      1  C   UNL     1       0.956   2.198 -22.660  0.00  0.00    +0.176 C 
ATOM      2  C   UNL     1       0.583   2.716 -23.745  0.00  0.00    +0.013 C 
ATOM      3  C   UNL     1      -0.637   3.027 -23.916  0.00  0.00    -0.009 C 
ATOM      4  C   UNL     1      -1.006   3.550 -25.015  0.00  0.00    +0.096 C 
ATOM      5  C   UNL     1      -2.213   3.859 -25.186  0.00  0.00    +0.094 C 
ATOM      6  C   UNL     1      -3.065   3.646 -24.256  0.00  0.00    -0.034 A 
ATOM      7  C   UNL     1      -4.275   3.955 -24.427  0.00  0.00    +0.008 A 
ATOM      8  C   UNL     1      -5.110   3.745 -23.511  0.00  0.00    +0.050 A 
ATOM      9  C   UNL     1      -4.744   3.222 -22.412  0.00  0.00    +0.162 A 
ATOM     10  C   UNL     1      -3.521   2.911 -22.242  0.00  0.00    +0.167 A 
ATOM     11  O   UNL     1      -2.490   2.325 -21.310  0.00  0.00    -0.478 OA
ATOM     12  C   UNL     1      -1.092   2.291 -21.900  0.00  0.00    +0.150 C 
ATOM     13  C   UNL     1      -1.006   1.800 -20.744  0.00  0.00    +0.060 C 
ATOM     14  C   UNL     1      -2.680   3.124 -23.169  0.00  0.00    +0.016 A 
ATOM     15  N   UNL     1       0.388   3.237 -24.923  0.00  0.00    +0.239 N 
ATOM     16  H   UNL     1       1.039   3.421 -25.686  0.00  0.00    +0.204 HD
ATOM     17  C   UNL     1       1.178   3.470 -25.872  0.00  0.00    +0.191 C 
ATOM     18  C   UNL     1       0.835   2.653 -23.711  0.00  0.00    +0.133 C 
ATOM     19  C   UNL     1      -0.131   2.427 -22.697  0.00  0.00    +0.071 C 
ATOM     20  C   UNL     1      -1.474   2.818 -23.001  0.00  0.00    +0.072 C 
ATOM     21  C   UNL     1       0.115   1.984 -21.732  0.00  0.00    +0.192 C 
ENDROOT
BRANCH   9  22
ATOM     22  O   UNL     1      -5.583   3.013 -21.499  0.00  0.00    -0.491 OA
ATOM     23  C   UNL     1      -6.739   2.609 -21.784  0.00  0.00    +0.277 C 
ENDBRANCH   9  22
BRANCH  21  24
ATOM     24  O   UNL     1       0.491   1.465 -20.648  0.00  0.00    -0.385 OA
ATOM     25  H   UNL     1      -0.123   1.716 -19.941  0.00  0.00    +0.210 HD
ENDBRANCH  21  24
BRANCH   1  26
ATOM     26  O   UNL     1       2.165   1.891 -22.495  0.00  0.00    -0.344 OA
BRANCH  26  27
ATOM     27  C   UNL     1       2.567   0.731 -22.774  0.00  0.00    +0.323 C 
BRANCH  27  29
ATOM     28  C   UNL     1       3.813   0.408 -21.014  0.00  0.00    +0.196 C 
ATOM     29  O   UNL     1       2.989  -0.025 -21.860  0.00  0.00    -0.357 OA
ENDBRANCH  27  29
ENDBRANCH  26  27
ENDBRANCH   1  26
TORSDOF 5
ENDMDL
