MODEL 1
REMARK VINA RESULT:    -8.225      0.000      0.000
REMARK INTER + INTRA:         -18.683
REMARK INTER:                 -16.941
REMARK INTRA:                  -1.741
REMARK UNBOUND:                -2.284
REMARK  Name = ZINC000085340976
REMARK  19 active torsions:
REMARK  status: ('A' for Active; 'I' for Inactive)
REMARK    1  A    between atoms: C_1  and  C_2
REMARK    2  A    between atoms: C_2  and  C_3
REMARK    3  A    between atoms: C_3  and  C_4
REMARK    4  A    between atoms: C_4  and  C_5
REMARK    5  A    between atoms: C_5  and  C_6
REMARK    6  A    between atoms: C_6  and  C_7
REMARK    7  A    between atoms: C_7  and  C_8
REMARK    8  A    between atoms: C_8  and  C_9
REMARK    9  A    between atoms: C_9  and  C_10
REMARK   10  A    between atoms: C_10  and  C_11
REMARK   11  A    between atoms: C_11  and  C_12
REMARK   12  A    between atoms: C_13  and  O_14
REMARK   13  A    between atoms: C_15  and  O_16
REMARK   14  A    between atoms: C_22  and  C_23
REMARK   15  A    between atoms: N_25  and  CA_26
REMARK   16  A    between atoms: CA_26  and  CB_27
REMARK   17  A    between atoms: CA_26  and  C_32
REMARK   18  A    between atoms: CB_27  and  CG_28
REMARK   19  A    between atoms: CG_28  and  CD_29
REMARK                            x       y       z     vdW  Elec       q    Type
REMARK                         _______ _______ _______ _____ _____    ______ ____
ROOT
ATOM      1  C   UNK A   0       4.478   2.034 -22.775  0.00  0.00    +0.025 A 
ATOM      2  C   UNK A   0       5.152   1.152 -22.099  0.00  0.00    +0.164 A 
ATOM      3  C   UNK A   0       4.561   0.434 -21.191  0.00  0.00    +0.161 A 
ATOM      4  C   UNK A   0       3.292   0.599 -20.959  0.00  0.00    +0.079 A 
ATOM      5  C   UNK A   0       2.617   1.480 -21.633  0.00  0.00    +0.094 A 
ATOM      6  N   UNK A   0       1.348   1.644 -21.400  0.00  0.00    -0.243 NA
ATOM      7  C   UNK A   0       0.671   2.524 -22.073  0.00  0.00    +0.091 A 
ATOM      8  C   UNK A   0      -0.596   2.687 -21.839  0.00  0.00    +0.043 A 
ATOM      9  C   UNK A   0      -1.275   3.569 -22.513  0.00  0.00    +0.039 A 
ATOM     10  C   UNK A   0      -0.683   4.287 -23.421  0.00  0.00    +0.015 A 
ATOM     11  C   UNK A   0       0.586   4.125 -23.656  0.00  0.00    +0.030 A 
ATOM     12  C   UNK A   0       1.263   3.242 -22.981  0.00  0.00    +0.090 A 
ATOM     13  N   UNK A   0       2.532   3.080 -23.215  0.00  0.00    -0.243 NA
ATOM     14  C   UNK A   0       3.208   2.198 -22.540  0.00  0.00    +0.097 A 
ENDROOT
BRANCH   9  15
ATOM     15  C   UNK A   0      -2.542   3.732 -22.280  0.00  0.00    +0.245 C 
ATOM     16  N   GLU A   1      -3.416   2.985 -22.886  0.00  0.00    -0.303 N 
ATOM     17  H   GLU A   1      -3.117   2.296 -23.523  0.00  0.00    +0.150 HD
ATOM     18  O   UNK A   0      -2.937   4.642 -21.439  0.00  0.00    -0.270 OA
BRANCH  16  19
ATOM     19  CA  GLU A   1      -4.685   3.148 -22.652  0.00  0.00    +0.119 C 
BRANCH  19  20
ATOM     20  C   GLU A   1      -5.234   2.574 -21.624  0.00  0.00    +0.062 C 
ATOM     21  OXT GLU A   1      -6.527   2.589 -21.484  0.00  0.00    -0.548 OA
ATOM     22  O   GLU A   1      -4.493   1.985 -20.734  0.00  0.00    -0.548 OA
ENDBRANCH  19  20
BRANCH  19  23
ATOM     23  CB  GLU A   1      -5.403   3.884 -23.447  0.00  0.00    +0.034 C 
BRANCH  23  24
ATOM     24  CG  GLU A   1      -5.377   3.674 -24.729  0.00  0.00    +0.054 C 
BRANCH  24  25
ATOM     25  CD  GLU A   1      -4.311   3.965 -25.414  0.00  0.00    +0.042 C 
ATOM     26  OE2 GLU A   1      -3.817   5.166 -25.367  0.00  0.00    -0.550 OA
ATOM     27  OE1 GLU A   1      -3.739   3.055 -26.145  0.00  0.00    -0.550 OA
ENDBRANCH  24  25
ENDBRANCH  23  24
ENDBRANCH  19  23
ENDBRANCH  16  19
ENDBRANCH   9  15
BRANCH   2  28
ATOM     28  O   UNK A   0       6.421   0.988 -22.332  0.00  0.00    -0.503 OA
ATOM     29  H   UNK A   0       7.053   1.513 -21.881  0.00  0.00    +0.292 HD
ENDBRANCH   2  28
BRANCH   3  30
ATOM     30  O   UNK A   0       5.236  -0.448 -20.516  0.00  0.00    -0.503 OA
ATOM     31  H   UNK A   0       5.998  -0.187 -20.036  0.00  0.00    +0.292 HD
ENDBRANCH   3  30
BRANCH   1  32
ATOM     32  C   UNK A   0       5.068   2.752 -23.682  0.00  0.00    +0.041 C 
BRANCH  32  33
ATOM     33  C   UNK A   0       5.559   3.916 -23.373  0.00  0.00    +0.005 C 
BRANCH  33  34
ATOM     34  C   UNK A   0       6.815   4.171 -23.589  0.00  0.00    +0.000 C 
BRANCH  34  35
ATOM     35  C   UNK A   0       7.644   4.250 -22.591  0.00  0.00    +0.000 C 
BRANCH  35  36
ATOM     36  C   UNK A   0       7.190   4.373 -21.378  0.00  0.00    +0.000 C 
BRANCH  36  37
ATOM     37  C   UNK A   0       7.865   5.052 -20.498  0.00  0.00    +0.000 C 
BRANCH  37  38
ATOM     38  C   UNK A   0       7.283   6.001 -19.824  0.00  0.00    -0.000 C 
BRANCH  38  39
ATOM     39  C   UNK A   0       7.055   7.151 -20.385  0.00  0.00    -0.000 C 
BRANCH  39  40
ATOM     40  C   UNK A   0       5.833   7.555 -20.563  0.00  0.00    -0.000 C 
BRANCH  40  42
ATOM     41  C   UNK A   0       4.160   7.442 -22.065  0.00  0.00    +0.004 C 
ATOM     42  C   UNK A   0       5.384   7.759 -21.766  0.00  0.00    -0.003 C 
ENDBRANCH  40  42
ENDBRANCH  39  40
ENDBRANCH  38  39
ENDBRANCH  37  38
ENDBRANCH  36  37
ENDBRANCH  35  36
ENDBRANCH  34  35
ENDBRANCH  33  34
ENDBRANCH  32  33
ENDBRANCH   1  32
TORSDOF 18
ENDMDL
