MODEL 1
REMARK VINA RESULT:    -7.226      0.000      0.000
REMARK INTER + INTRA:          -8.263
REMARK INTER:                  -8.076
REMARK INTRA:                  -0.187
REMARK UNBOUND:                -0.193
REMARK  Name = ZINC000000002067
REMARK  4 active torsions:
REMARK  status: ('A' for Active; 'I' for Inactive)
REMARK    1  A    between atoms: C_1  and  O_2
REMARK    2  A    between atoms: O_2  and  C_3
REMARK    3  A    between atoms: C_13  and  O_14
REMARK    4  A    between atoms: O_14  and  C_15
REMARK                            x       y       z     vdW  Elec       q    Type
REMARK                         _______ _______ _______ _____ _____    ______ ____
ROOT
ATOM      1  C   UNL     1      -0.704   3.007 -24.117  0.00  0.00    +0.162 A 
ATOM      2  C   UNL     1      -1.815   3.402 -24.661  0.00  0.00    +0.061 A 
ATOM      3  C   UNL     1      -2.916   3.393 -23.971  0.00  0.00    +0.021 A 
ATOM      4  C   UNL     1      -4.028   3.789 -24.515  0.00  0.00    +0.018 A 
ATOM      5  C   UNL     1      -5.130   3.780 -23.825  0.00  0.00    +0.092 A 
ATOM      6  C   UNL     1      -5.119   3.376 -22.589  0.00  0.00    +0.337 A 
ATOM      7  O   UNL     1      -4.007   2.980 -22.044  0.00  0.00    -0.422 OA
ATOM      8  O   UNL     1      -6.220   3.367 -21.898  0.00  0.00    -0.245 OA
ATOM      9  C   UNL     1      -2.906   2.989 -22.735  0.00  0.00    +0.143 A 
ATOM     10  C   UNL     1      -1.794   2.594 -22.190  0.00  0.00    +0.096 A 
ATOM     11  C   UNL     1      -0.693   2.603 -22.881  0.00  0.00    +0.165 A 
ENDROOT
BRANCH   1  13
ATOM     12  C   UNL     1       0.884   4.140 -25.242  0.00  0.00    +0.277 C 
ATOM     13  O   UNL     1       0.398   3.015 -24.807  0.00  0.00    -0.491 OA
ENDBRANCH   1  13
BRANCH  11  14
ATOM     14  O   UNL     1       0.420   2.207 -22.336  0.00  0.00    -0.491 OA
ATOM     15  C   UNL     1       0.395   1.515 -21.236  0.00  0.00    +0.277 C 
ENDBRANCH  11  14
TORSDOF 2
ENDMDL
