MODEL 1
REMARK VINA RESULT:   -10.983      0.000      0.000
REMARK INTER + INTRA:         -12.069
REMARK INTER:                 -11.953
REMARK INTRA:                  -0.115
REMARK UNBOUND:                -0.122
REMARK  Name = COc1ccc2c3c1O[C@@H]1[C@@H](O)C=C[C@H]4[C@H](C2)N(C=O)CC[C@]314       ZINC000100393482
REMARK  3 active torsions:
REMARK  status: ('A' for Active; 'I' for Inactive)
REMARK    1  A    between atoms: C_1  and  O_2
REMARK    2  A    between atoms: O_2  and  C_3
REMARK    3  A    between atoms: C_11  and  O_12
REMARK                            x       y       z     vdW  Elec       q    Type
REMARK                         _______ _______ _______ _____ _____    ______ ____
ROOT
ATOM      1  C   UNL     1       0.859   2.653 -23.983  0.00  0.00    +0.162 A 
ATOM      2  C   UNL     1       0.998   2.185 -22.815  0.00  0.00    +0.050 A 
ATOM      3  C   UNL     1       0.013   2.084 -22.052  0.00  0.00    +0.008 A 
ATOM      4  C   UNL     1      -1.118   2.449 -22.445  0.00  0.00    -0.038 A 
ATOM      5  C   UNL     1      -1.280   2.918 -23.602  0.00  0.00    +0.012 A 
ATOM      6  C   UNL     1      -2.410   3.281 -23.989  0.00  0.00    +0.049 C 
ATOM      7  C   UNL     1      -3.648   3.726 -24.541  0.00  0.00    +0.035 C 
ATOM      8  C   UNL     1      -4.777   3.625 -23.703  0.00  0.00    +0.109 C 
ATOM      9  N   UNL     1      -4.584   3.099 -22.408  0.00  0.00    -0.300 N 
ATOM     10  C   UNL     1      -5.536   2.971 -21.588  0.00  0.00    +0.328 C 
ATOM     11  O   UNL     1      -6.700   3.312 -21.903  0.00  0.00    -0.279 OA
ATOM     12  C   UNL     1      -3.257   2.714 -22.062  0.00  0.00    +0.088 C 
ATOM     13  C   UNL     1      -3.398   3.182 -23.228  0.00  0.00    +0.046 C 
ATOM     14  C   UNL     1      -4.543   3.549 -23.621  0.00  0.00    -0.022 C 
ATOM     15  C   UNL     1      -4.686   4.013 -24.774  0.00  0.00    +0.004 C 
ATOM     16  C   UNL     1      -3.696   4.118 -25.552  0.00  0.00    +0.178 C 
ATOM     17  C   UNL     1      -2.565   3.752 -25.159  0.00  0.00    +0.217 C 
ATOM     18  O   UNL     1      -1.099   3.600 -25.497  0.00  0.00    -0.481 OA
ATOM     19  C   UNL     1      -2.126   2.349 -21.670  0.00  0.00    +0.058 C 
ATOM     20  C   UNL     1      -0.287   3.021 -24.376  0.00  0.00    +0.167 A 
ENDROOT
BRANCH   1  22
ATOM     21  C   UNL     1       2.736   1.870 -24.735  0.00  0.00    +0.277 C 
ATOM     22  O   UNL     1       1.847   2.751 -24.743  0.00  0.00    -0.491 OA
ENDBRANCH   1  22
BRANCH  16  23
ATOM     23  O   UNL     1      -3.844   4.581 -26.703  0.00  0.00    -0.384 OA
ATOM     24  H   UNL     1      -3.104   5.173 -26.911  0.00  0.00    +0.210 HD
ENDBRANCH  16  23
TORSDOF 2
ENDMDL
