MODEL 1
REMARK VINA RESULT:    -8.471      0.000      0.000
REMARK INTER + INTRA:         -16.887
REMARK INTER:                 -16.464
REMARK INTRA:                  -0.423
REMARK UNBOUND:                -0.987
REMARK  Name = ZINC000085340959
REMARK  19 active torsions:
REMARK  status: ('A' for Active; 'I' for Inactive)
REMARK    1  A    between atoms: C_1  and  C_2
REMARK    2  A    between atoms: C_2  and  C_3
REMARK    3  A    between atoms: C_3  and  C_4
REMARK    4  A    between atoms: C_4  and  C_5
REMARK    5  A    between atoms: C_5  and  C_6
REMARK    6  A    between atoms: C_6  and  C_7
REMARK    7  A    between atoms: C_7  and  C_8
REMARK    8  A    between atoms: C_8  and  C_9
REMARK    9  A    between atoms: C_9  and  C_10
REMARK   10  A    between atoms: C_10  and  C_11
REMARK   11  A    between atoms: C_11  and  C_12
REMARK   12  A    between atoms: C_13  and  O_14
REMARK   13  A    between atoms: C_15  and  O_16
REMARK   14  A    between atoms: C_22  and  C_23
REMARK   15  A    between atoms: N_25  and  CA_26
REMARK   16  A    between atoms: CA_26  and  C_27
REMARK   17  A    between atoms: CA_26  and  CB_30
REMARK   18  A    between atoms: CB_30  and  CG1_31
REMARK   19  A    between atoms: CB_30  and  CG2_32
REMARK                            x       y       z     vdW  Elec       q    Type
REMARK                         _______ _______ _______ _____ _____    ______ ____
ROOT
ATOM      1  C   UNK A   0       5.173   3.528 -22.877  0.00  0.00    +0.025 A 
ATOM      2  C   UNK A   0       5.999   2.556 -22.632  0.00  0.00    +0.164 A 
ATOM      3  C   UNK A   0       5.559   1.337 -22.518  0.00  0.00    +0.161 A 
ATOM      4  C   UNK A   0       4.289   1.092 -22.650  0.00  0.00    +0.079 A 
ATOM      5  C   UNK A   0       3.461   2.063 -22.895  0.00  0.00    +0.094 A 
ATOM      6  N   UNK A   0       2.192   1.815 -23.026  0.00  0.00    -0.243 NA
ATOM      7  C   UNK A   0       1.362   2.786 -23.271  0.00  0.00    +0.091 A 
ATOM      8  C   UNK A   0       0.093   2.539 -23.403  0.00  0.00    +0.043 A 
ATOM      9  C   UNK A   0      -0.737   3.509 -23.648  0.00  0.00    +0.039 A 
ATOM     10  C   UNK A   0      -0.296   4.726 -23.762  0.00  0.00    +0.015 A 
ATOM     11  C   UNK A   0       0.973   4.975 -23.631  0.00  0.00    +0.030 A 
ATOM     12  C   UNK A   0       1.803   4.003 -23.385  0.00  0.00    +0.090 A 
ATOM     13  N   UNK A   0       3.073   4.252 -23.254  0.00  0.00    -0.243 NA
ATOM     14  C   UNK A   0       3.901   3.280 -23.009  0.00  0.00    +0.097 A 
ENDROOT
BRANCH   9  15
ATOM     15  C   UNK A   0      -2.005   3.261 -23.780  0.00  0.00    +0.245 C 
ATOM     16  N   VAL A   1      -2.883   4.081 -23.282  0.00  0.00    -0.303 N 
ATOM     17  H   VAL A   1      -2.585   4.890 -22.805  0.00  0.00    +0.150 HD
ATOM     18  O   UNK A   0      -2.398   2.193 -24.409  0.00  0.00    -0.270 OA
BRANCH  16  19
ATOM     19  CA  VAL A   1      -4.152   3.834 -23.413  0.00  0.00    +0.121 C 
BRANCH  19  20
ATOM     20  C   VAL A   1      -4.760   4.127 -24.524  0.00  0.00    +0.062 C 
ATOM     21  OXT VAL A   1      -4.980   3.202 -25.410  0.00  0.00    -0.548 OA
ATOM     22  O   VAL A   1      -5.149   5.347 -24.749  0.00  0.00    -0.548 OA
ENDBRANCH  19  20
BRANCH  19  23
ATOM     23  CB  VAL A   1      -4.814   3.293 -22.434  0.00  0.00    +0.009 C 
ATOM     24  CG2 VAL A   1      -4.176   2.748 -21.441  0.00  0.00    +0.009 C 
ATOM     25  CG1 VAL A   1      -6.114   3.297 -22.447  0.00  0.00    +0.009 C 
ENDBRANCH  19  23
ENDBRANCH  16  19
ENDBRANCH   9  15
BRANCH   2  26
ATOM     26  O   UNK A   0       7.270   2.801 -22.500  0.00  0.00    -0.503 OA
ATOM     27  H   UNK A   0       7.736   2.470 -21.757  0.00  0.00    +0.292 HD
ENDBRANCH   2  26
BRANCH   3  28
ATOM     28  O   UNK A   0       6.387   0.366 -22.273  0.00  0.00    -0.503 OA
ATOM     29  H   UNK A   0       7.309   0.530 -22.261  0.00  0.00    +0.292 HD
ENDBRANCH   3  28
BRANCH   1  30
ATOM     30  C   UNK A   0       5.612   4.745 -22.991  0.00  0.00    +0.041 C 
BRANCH  30  31
ATOM     31  C   UNK A   0       5.698   5.506 -21.941  0.00  0.00    +0.005 C 
BRANCH  31  32
ATOM     32  C   UNK A   0       6.267   6.672 -22.027  0.00  0.00    +0.000 C 
BRANCH  32  33
ATOM     33  C   UNK A   0       5.854   7.654 -21.280  0.00  0.00    +0.000 C 
BRANCH  33  34
ATOM     34  C   UNK A   0       4.599   7.993 -21.288  0.00  0.00    +0.000 C 
BRANCH  34  35
ATOM     35  C   UNK A   0       4.135   8.789 -20.371  0.00  0.00    +0.000 C 
BRANCH  35  36
ATOM     36  C   UNK A   0       4.145  10.075 -20.562  0.00  0.00    -0.000 C 
BRANCH  36  37
ATOM     37  C   UNK A   0       4.021  10.554 -21.764  0.00  0.00    -0.000 C 
BRANCH  37  38
ATOM     38  C   UNK A   0       3.352  11.652 -21.961  0.00  0.00    -0.000 C 
BRANCH  38  40
ATOM     39  C   UNK A   0       2.163  13.274 -20.948  0.00  0.00    +0.004 C 
ATOM     40  C   UNK A   0       3.216  12.512 -20.995  0.00  0.00    -0.003 C 
ENDBRANCH  38  40
ENDBRANCH  37  38
ENDBRANCH  36  37
ENDBRANCH  35  36
ENDBRANCH  34  35
ENDBRANCH  33  34
ENDBRANCH  32  33
ENDBRANCH  31  32
ENDBRANCH  30  31
ENDBRANCH   1  30
TORSDOF 16
ENDMDL
