MODEL 1
REMARK VINA RESULT:    -8.650      0.000      0.000
REMARK INTER + INTRA:         -13.468
REMARK INTER:                 -12.328
REMARK INTRA:                  -1.140
REMARK UNBOUND:                -0.520
REMARK  Name = ZINC000004104679
REMARK  14 active torsions:
REMARK  status: ('A' for Active; 'I' for Inactive)
REMARK    1  A    between atoms: C_1  and  O_2
REMARK    2  A    between atoms: O_2  and  C_3
REMARK    3  A    between atoms: C_6  and  C_7
REMARK    4  A    between atoms: C_8  and  C_9
REMARK    5  A    between atoms: C_9  and  C_11
REMARK    6  A    between atoms: C_12  and  O_13
REMARK    7  A    between atoms: O_13  and  C_14
REMARK    8  A    between atoms: C_16  and  O_17
REMARK    9  A    between atoms: O_17  and  C_18
REMARK   10  A    between atoms: C_19  and  C_20
REMARK   11  A    between atoms: C_20  and  C_21
REMARK   12  A    between atoms: C_22  and  C_23
REMARK   13  A    between atoms: C_22  and  C_24
REMARK   14  A    between atoms: C_25  and  O_26
REMARK                            x       y       z     vdW  Elec       q    Type
REMARK                         _______ _______ _______ _____ _____    ______ ____
ROOT
ATOM      1  C   UNL     1       0.681   2.482 -23.257  0.00  0.00    +0.105 A 
ATOM      2  C   UNL     1       0.372   1.902 -22.135  0.00  0.00    +0.138 A 
ATOM      3  C   UNL     1      -0.830   2.016 -21.653  0.00  0.00    +0.092 A 
ATOM      4  C   UNL     1      -1.723   2.710 -22.293  0.00  0.00    +0.131 A 
ATOM      5  C   UNL     1      -1.416   3.290 -23.415  0.00  0.00    +0.040 A 
ATOM      6  C   UNL     1      -0.213   3.176 -23.897  0.00  0.00    +0.138 A 
ENDROOT
BRANCH   1   7
ATOM      7  C   UNL     1       1.882   2.369 -23.739  0.00  0.00    +0.193 C 
ATOM      8  O   UNL     1       2.135   1.480 -24.654  0.00  0.00    -0.287 OA
BRANCH   7  10
ATOM      9  C   UNL     1       4.008   2.652 -23.051  0.00  0.00    +0.012 C 
ATOM     10  C   UNL     1       2.832   3.144 -23.306  0.00  0.00    +0.052 C 
BRANCH   9  14
ATOM     11  C   UNL     1       6.856   4.978 -21.754  0.00  0.00    +0.120 A 
ATOM     12  C   UNL     1       5.957   5.444 -22.569  0.00  0.00    +0.046 A 
ATOM     13  C   UNL     1       5.008   4.669 -23.001  0.00  0.00    +0.011 A 
ATOM     14  C   UNL     1       4.957   3.427 -22.619  0.00  0.00    -0.025 A 
ATOM     15  C   UNL     1       5.857   2.961 -21.804  0.00  0.00    +0.011 A 
ATOM     16  C   UNL     1       6.807   3.736 -21.372  0.00  0.00    +0.046 A 
BRANCH  11  18
ATOM     17  C   UNL     1       7.821   6.131 -20.078  0.00  0.00    +0.277 C 
ATOM     18  O   UNL     1       7.807   5.753 -21.321  0.00  0.00    -0.495 OA
ENDBRANCH  11  18
ENDBRANCH   9  14
ENDBRANCH   7  10
ENDBRANCH   1   7
BRANCH   6  19
ATOM     19  O   UNL     1       0.094   3.757 -25.018  0.00  0.00    -0.506 OA
ATOM     20  H   UNL     1      -0.581   3.997 -25.622  0.00  0.00    +0.292 HD
ENDBRANCH   6  19
BRANCH   4  21
ATOM     21  O   UNL     1      -2.926   2.824 -21.811  0.00  0.00    -0.495 OA
ATOM     22  C   UNL     1      -3.109   3.358 -20.640  0.00  0.00    +0.277 C 
ENDBRANCH   4  21
BRANCH   2  23
ATOM     23  O   UNL     1       1.267   1.208 -21.495  0.00  0.00    -0.494 OA
ATOM     24  C   UNL     1       1.551   1.495 -20.260  0.00  0.00    +0.277 C 
ENDBRANCH   2  23
BRANCH   5  25
ATOM     25  C   UNL     1      -2.309   3.984 -24.054  0.00  0.00    +0.069 C 
BRANCH  25  26
ATOM     26  C   UNL     1      -2.913   3.473 -25.086  0.00  0.00    -0.023 C 
ATOM     27  C   UNL     1      -4.204   3.580 -25.203  0.00  0.00    -0.079 C 
ATOM     28  C   UNL     1      -4.890   4.199 -24.288  0.00  0.00    +0.038 C 
ATOM     29  C   UNL     1      -4.807   3.069 -26.234  0.00  0.00    +0.038 C 
ENDBRANCH  25  26
ENDBRANCH   5  25
TORSDOF 9
ENDMDL
