MODEL 1
REMARK VINA RESULT:    -8.787      0.000      0.000
REMARK INTER + INTRA:         -14.587
REMARK INTER:                 -12.925
REMARK INTRA:                  -1.662
REMARK UNBOUND:                -0.662
REMARK  Name = CCCCCCCCCCCC1=C(OC)C(=O)C=C(OC)C1=O                                  ZINC000100166747
REMARK  13 active torsions:
REMARK  status: ('A' for Active; 'I' for Inactive)
REMARK    1  A    between atoms: C_1  and  C_2
REMARK    2  A    between atoms: C_2  and  C_3
REMARK    3  A    between atoms: C_3  and  C_4
REMARK    4  A    between atoms: C_4  and  C_5
REMARK    5  A    between atoms: C_5  and  C_6
REMARK    6  A    between atoms: C_6  and  C_7
REMARK    7  A    between atoms: C_7  and  C_8
REMARK    8  A    between atoms: C_8  and  C_9
REMARK    9  A    between atoms: C_9  and  C_10
REMARK   10  A    between atoms: C_10  and  C_11
REMARK   11  A    between atoms: C_11  and  C_12
REMARK   12  A    between atoms: O_14  and  C_15
REMARK   13  A    between atoms: O_20  and  C_21
REMARK                            x       y       z     vdW  Elec       q    Type
REMARK                         _______ _______ _______ _____ _____    ______ ____
ROOT
ATOM      1  C   UNL     1       0.306   2.339 -22.624  0.00  0.00    -0.016 C 
ATOM      2  C   UNL     1       1.039   2.793 -23.597  0.00  0.00    +0.110 C 
ATOM      3  C   UNL     1       2.313   2.536 -23.627  0.00  0.00    -0.094 C 
ATOM      4  C   UNL     1       2.854   1.824 -22.684  0.00  0.00    +0.034 C 
ATOM      5  C   UNL     1       2.122   1.369 -21.710  0.00  0.00    +0.107 C 
ATOM      6  O   UNL     1       2.664   0.658 -20.767  0.00  0.00    -0.496 OA
ATOM      7  C   UNL     1       3.938   0.400 -20.797  0.00  0.00    +0.277 C 
ATOM      8  O   UNL     1       3.045   2.991 -24.600  0.00  0.00    -0.826 OA
ATOM      9  O   UNL     1       0.497   3.505 -24.540  0.00  0.00    -0.496 OA
ATOM     10  C   UNL     1       1.229   3.960 -25.513  0.00  0.00    +0.277 C 
ATOM     11  C   UNL     1       0.849   1.626 -21.680  0.00  0.00    -0.091 C 
ATOM     12  O   UNL     1       0.117   1.171 -20.707  0.00  0.00    -0.826 OA
ENDROOT
BRANCH   1  13
ATOM     13  C   UNL     1      -0.967   2.595 -22.594  0.00  0.00    +0.038 C 
BRANCH  13  14
ATOM     14  C   UNL     1      -1.388   3.746 -22.159  0.00  0.00    +0.005 C 
BRANCH  14  15
ATOM     15  C   UNL     1      -2.470   3.813 -21.443  0.00  0.00    +0.000 C 
BRANCH  15  16
ATOM     16  C   UNL     1      -3.072   2.723 -21.070  0.00  0.00    +0.000 C 
BRANCH  16  17
ATOM     17  C   UNL     1      -4.318   2.528 -21.385  0.00  0.00    +0.000 C 
BRANCH  17  18
ATOM     18  C   UNL     1      -5.046   3.524 -21.798  0.00  0.00    +0.000 C 
BRANCH  18  19
ATOM     19  C   UNL     1      -5.622   3.467 -22.963  0.00  0.00    -0.000 C 
BRANCH  19  20
ATOM     20  C   UNL     1      -5.181   4.201 -23.942  0.00  0.00    -0.000 C 
BRANCH  20  21
ATOM     21  C   UNL     1      -4.663   3.638 -24.992  0.00  0.00    -0.000 C 
BRANCH  21  23
ATOM     22  C   UNL     1      -2.629   3.337 -25.910  0.00  0.00    +0.004 C 
ATOM     23  C   UNL     1      -3.586   4.130 -25.528  0.00  0.00    -0.003 C 
ENDBRANCH  21  23
ENDBRANCH  20  21
ENDBRANCH  19  20
ENDBRANCH  18  19
ENDBRANCH  17  18
ENDBRANCH  16  17
ENDBRANCH  15  16
ENDBRANCH  14  15
ENDBRANCH  13  14
ENDBRANCH   1  13
TORSDOF 10
ENDMDL
