MODEL 1
REMARK VINA RESULT:   -11.782      0.000      0.000
REMARK INTER + INTRA:         -10.568
REMARK INTER:                 -11.066
REMARK INTRA:                   0.498
REMARK UNBOUND:                 3.969
REMARK  Name = ZINC000004635386
REMARK  4 active torsions:
REMARK  status: ('A' for Active; 'I' for Inactive)
REMARK    1  A    between atoms: C_2  and  C_27
REMARK    2  A    between atoms: N_3  and  C_4
REMARK    3  A    between atoms: C_4  and  C_11
REMARK    4  A    between atoms: C_5  and  C_6
REMARK                            x       y       z     vdW  Elec       q    Type
REMARK                         _______ _______ _______ _____ _____    ______ ____
ROOT
ATOM      1  C   UNL     1       2.708   4.737 -23.045  0.00  0.00    +0.097 C 
ATOM      2  C   UNL     1       3.337   3.691 -22.518  0.00  0.00    +0.043 C 
ENDROOT
BRANCH   1   3
ATOM      3  C   UNL     1       1.834   4.578 -24.044  0.00  0.00    +0.261 C 
ATOM      4  N   UNL     1       0.518   4.413 -23.785  0.00  0.00    -0.296 N 
ATOM      5  C   UNL     1      -0.410   4.247 -24.756  0.00  0.00    +0.117 C 
ATOM      6  C   UNL     1      -1.619   4.105 -24.296  0.00  0.00    +0.054 C 
ATOM      7  C   UNL     1      -1.647   4.142 -23.348  0.00  0.00    +0.018 C 
ATOM      8  C   UNL     1      -1.267   4.230 -22.480  0.00  0.00    +0.027 C 
ATOM      9  C   UNL     1      -2.305   4.117 -21.900  0.00  0.00    +0.130 C 
ATOM     10  N   UNL     1      -3.389   3.923 -23.016  0.00  0.00    -0.312 N 
ATOM     11  C   UNL     1      -4.649   3.761 -22.882  0.00  0.00    +0.251 A 
ATOM     12  O   UNL     1      -5.181   3.741 -21.689  0.00  0.00    -0.268 OA
ATOM     13  C   UNL     1      -5.418   3.611 -23.960  0.00  0.00    +0.070 A 
ATOM     14  C   UNL     1      -4.896   3.627 -25.213  0.00  0.00    +0.007 A 
ATOM     15  C   UNL     1      -3.596   3.792 -25.425  0.00  0.00    +0.022 A 
ATOM     16  C   UNL     1      -2.807   3.940 -24.428  0.00  0.00    +0.027 A 
ATOM     17  C   UNL     1       0.023   4.401 -22.527  0.00  0.00    +0.113 C 
ATOM     18  O   UNL     1       2.262   4.581 -25.277  0.00  0.00    -0.269 OA
ENDBRANCH   1   3
BRANCH   2  19
ATOM     19  C   UNL     1       3.112   2.479 -22.966  0.00  0.00    +0.014 A 
ATOM     20  C   UNL     1       2.317   1.605 -22.415  0.00  0.00    +0.015 A 
ATOM     21  C   UNL     1       2.348   0.520 -23.138  0.00  0.00    +0.008 A 
ATOM     22  C   UNL     1       3.162   0.722 -24.135  0.00  0.00    +0.046 A 
ATOM     23  S   UNL     1       3.636   1.935 -24.030  0.00  0.00    -0.097 S 
ENDBRANCH   2  19
BRANCH   1  26
ATOM     24  O   UNL     1       5.181   5.579 -22.824  0.00  0.00    -0.270 OA
ATOM     25  C   UNL     1       4.188   6.349 -22.468  0.00  0.00    +0.248 C 
ATOM     26  N   UNL     1       2.952   5.928 -22.579  0.00  0.00    -0.277 N 
ATOM     27  H   UNL     1       2.206   6.512 -22.309  0.00  0.00    +0.155 HD
BRANCH  25  28
ATOM     28  C   UNL     1       4.422   7.542 -22.000  0.00  0.00    +0.037 A 
ATOM     29  C   UNL     1       3.749   8.566 -22.447  0.00  0.00    +0.013 A 
ATOM     30  C   UNL     1       3.990   9.762 -21.973  0.00  0.00    +0.001 A 
ATOM     31  C   UNL     1       4.903   9.925 -21.054  0.00  0.00    +0.000 A 
ATOM     32  C   UNL     1       5.575   8.901 -20.608  0.00  0.00    +0.001 A 
ATOM     33  C   UNL     1       5.334   7.705 -21.082  0.00  0.00    +0.013 A 
ENDBRANCH  25  28
ENDBRANCH   1  26
TORSDOF 4
ENDMDL
