MODEL 1
REMARK VINA RESULT:    -8.364      0.000      0.000
REMARK INTER + INTRA:         -11.056
REMARK INTER:                 -11.892
REMARK INTRA:                   0.836
REMARK UNBOUND:                -0.247
REMARK  Name = CC(=O)Oc1c(C(C)C)cc2c(c1OC(C)=O)[C@@]1(C)CCCC(C)(C)C1=C(O)C2=O       ZINC000096932985
REMARK  13 active torsions:
REMARK  status: ('A' for Active; 'I' for Inactive)
REMARK    1  A    between atoms: C_1  and  C_2
REMARK    2  A    between atoms: C_2  and  O_4
REMARK    3  A    between atoms: O_4  and  C_5
REMARK    4  A    between atoms: C_6  and  C_7
REMARK    5  A    between atoms: C_7  and  C_8
REMARK    6  A    between atoms: C_7  and  C_9
REMARK    7  A    between atoms: C_13  and  O_14
REMARK    8  A    between atoms: O_14  and  C_15
REMARK    9  A    between atoms: C_15  and  C_16
REMARK   10  A    between atoms: C_18  and  C_19
REMARK   11  A    between atoms: C_23  and  C_24
REMARK   12  A    between atoms: C_23  and  C_25
REMARK   13  A    between atoms: C_27  and  O_28
REMARK                            x       y       z     vdW  Elec       q    Type
REMARK                         _______ _______ _______ _____ _____    ______ ____
ROOT
ATOM      1  C   UNL     1      -2.804   2.874 -23.913  0.00  0.00    +0.177 A 
ATOM      2  C   UNL     1      -2.488   3.432 -25.032  0.00  0.00    +0.002 A 
ATOM      3  C   UNL     1      -1.249   3.632 -25.321  0.00  0.00    +0.019 A 
ATOM      4  C   UNL     1      -0.326   3.275 -24.495  0.00  0.00    +0.033 A 
ATOM      5  C   UNL     1      -0.646   2.718 -23.378  0.00  0.00    +0.020 A 
ATOM      6  C   UNL     1       0.279   2.359 -22.548  0.00  0.00    +0.022 C 
ATOM      7  C   UNL     1      -0.036   1.806 -21.439  0.00  0.00    +0.016 C 
ATOM      8  C   UNL     1       0.885   1.450 -20.616  0.00  0.00    +0.002 C 
ATOM      9  C   UNL     1       2.119   1.647 -20.900  0.00  0.00    +0.011 C 
ATOM     10  C   UNL     1       2.432   2.201 -22.011  0.00  0.00    -0.009 C 
ATOM     11  C   UNL     1       3.159   2.695 -22.955  0.00  0.00    +0.015 C 
ATOM     12  C   UNL     1       3.607   2.016 -21.512  0.00  0.00    +0.015 C 
ATOM     13  C   UNL     1      -0.961   2.158 -22.257  0.00  0.00    +0.021 C 
ATOM     14  C   UNL     1       1.515   2.559 -22.837  0.00  0.00    -0.008 C 
ATOM     15  C   UNL     1       1.835   3.116 -23.954  0.00  0.00    +0.165 C 
ATOM     16  C   UNL     1       0.912   3.474 -24.783  0.00  0.00    +0.227 C 
ATOM     17  O   UNL     1       1.233   4.032 -25.900  0.00  0.00    -0.283 OA
ATOM     18  C   UNL     1      -1.885   2.515 -23.083  0.00  0.00    +0.179 A 
ENDROOT
BRANCH   2  19
ATOM     19  C   UNL     1      -3.407   3.790 -25.861  0.00  0.00    +0.017 C 
ATOM     20  C   UNL     1      -3.965   4.946 -25.746  0.00  0.00    +0.012 C 
ATOM     21  C   UNL     1      -3.768   2.991 -26.806  0.00  0.00    +0.012 C 
ENDBRANCH   2  19
BRANCH  15  22
ATOM     22  O   UNL     1       3.073   3.316 -24.243  0.00  0.00    -0.503 OA
ATOM     23  H   UNL     1       3.375   3.199 -25.122  0.00  0.00    +0.292 HD
ENDBRANCH  15  22
BRANCH   1  24
ATOM     24  O   UNL     1      -4.046   2.675 -23.626  0.00  0.00    -0.422 OA
BRANCH  24  26
ATOM     25  C   UNL     1      -5.994   3.459 -22.878  0.00  0.00    +0.136 C 
ATOM     26  C   UNL     1      -4.719   3.581 -23.007  0.00  0.00    +0.309 C 
ATOM     27  O   UNL     1      -4.116   4.609 -22.518  0.00  0.00    -0.251 OA
ENDBRANCH  24  26
ENDBRANCH   1  24
BRANCH  18  28
ATOM     28  O   UNL     1      -2.319   1.852 -21.760  0.00  0.00    -0.422 OA
BRANCH  28  29
ATOM     29  C   UNL     1      -3.011   2.431 -20.630  0.00  0.00    +0.309 C 
ATOM     30  O   UNL     1      -2.569   3.536 -20.038  0.00  0.00    -0.251 OA
ATOM     31  C   UNL     1      -4.033   1.935 -20.163  0.00  0.00    +0.136 C 
ENDBRANCH  28  29
ENDBRANCH  18  28
TORSDOF 6
ENDMDL
