MODEL 1
REMARK VINA RESULT:   -10.314      0.000      0.000
REMARK INTER + INTRA:         -10.154
REMARK INTER:                 -12.394
REMARK INTRA:                   2.240
REMARK UNBOUND:                 2.270
REMARK  Name = COC1=CC=C2[C@@H]3Cc4ccc(OC)c5c4[C@]2(CCN3C)[C@]1(CO)O5               ZINC000096316415
REMARK  7 active torsions:
REMARK  status: ('A' for Active; 'I' for Inactive)
REMARK    1  A    between atoms: C_1  and  O_2
REMARK    2  A    between atoms: O_2  and  C_3
REMARK    3  A    between atoms: C_12  and  O_13
REMARK    4  A    between atoms: O_13  and  C_14
REMARK    5  A    between atoms: N_20  and  C_21
REMARK    6  A    between atoms: C_22  and  C_23
REMARK    7  A    between atoms: C_23  and  O_24
REMARK                            x       y       z     vdW  Elec       q    Type
REMARK                         _______ _______ _______ _____ _____    ______ ____
ROOT
ATOM      1  C   UNL     1      -2.812   3.611 -25.300  0.00  0.00    +0.144 C 
ATOM      2  C   UNL     1      -3.957   3.714 -24.768  0.00  0.00    +0.045 C 
ATOM      3  C   UNL     1      -4.131   3.377 -23.572  0.00  0.00    +0.009 C 
ATOM      4  C   UNL     1      -3.161   2.931 -22.891  0.00  0.00    -0.007 C 
ATOM      5  C   UNL     1      -3.345   2.592 -21.683  0.00  0.00    +0.096 C 
ATOM      6  C   UNL     1      -2.386   2.150 -21.006  0.00  0.00    +0.094 C 
ATOM      7  C   UNL     1      -1.230   2.043 -21.534  0.00  0.00    -0.034 A 
ATOM      8  C   UNL     1      -0.268   1.601 -20.856  0.00  0.00    +0.008 A 
ATOM      9  C   UNL     1       0.867   1.497 -21.378  0.00  0.00    +0.050 A 
ATOM     10  C   UNL     1       1.054   1.835 -22.585  0.00  0.00    +0.162 A 
ATOM     11  C   UNL     1       0.081   2.282 -23.268  0.00  0.00    +0.168 A 
ATOM     12  O   UNL     1      -0.381   2.812 -24.597  0.00  0.00    -0.471 OA
ATOM     13  C   UNL     1      -1.064   2.385 -22.737  0.00  0.00    +0.016 A 
ATOM     14  N   UNL     1      -4.501   3.081 -22.363  0.00  0.00    +0.239 N 
ATOM     15  H   UNL     1      -5.412   3.154 -21.911  0.00  0.00    +0.204 HD
ATOM     16  C   UNL     1      -5.612   3.163 -21.790  0.00  0.00    +0.191 C 
ATOM     17  C   UNL     1      -4.332   3.468 -23.712  0.00  0.00    +0.133 C 
ATOM     18  C   UNL     1      -3.041   3.340 -24.272  0.00  0.00    +0.071 C 
ATOM     19  C   UNL     1      -2.025   2.826 -23.410  0.00  0.00    +0.080 C 
ATOM     20  C   UNL     1      -1.850   3.170 -24.627  0.00  0.00    +0.203 C 
ENDROOT
BRANCH   1  22
ATOM     21  C   UNL     1      -3.378   3.476 -27.392  0.00  0.00    +0.276 C 
ATOM     22  O   UNL     1      -2.641   3.949 -26.495  0.00  0.00    -0.495 OA
ENDBRANCH   1  22
BRANCH  10  23
ATOM     23  O   UNL     1       2.191   1.730 -23.103  0.00  0.00    -0.491 OA
ATOM     24  C   UNL     1       2.929   0.762 -22.806  0.00  0.00    +0.277 C 
ENDBRANCH  10  23
BRANCH  20  25
ATOM     25  C   UNL     1      -1.406   3.434 -25.794  0.00  0.00    +0.213 C 
BRANCH  25  26
ATOM     26  O   UNL     1      -0.170   3.444 -26.032  0.00  0.00    -0.391 OA
ATOM     27  H   UNL     1       0.005   4.000 -26.808  0.00  0.00    +0.210 HD
ENDBRANCH  25  26
ENDBRANCH  20  25
TORSDOF 4
ENDMDL
