MODEL 1
REMARK VINA RESULT:   -10.940      0.000      0.000
REMARK INTER + INTRA:         -11.691
REMARK INTER:                 -11.542
REMARK INTRA:                  -0.149
REMARK UNBOUND:                -0.112
REMARK  Name = COc1ccc2c3c1O[C@@H]1[C@H](Cl)C=C[C@H]4[C@@H](C2)N(C)CC[C@]314        ZINC000201160979
REMARK  3 active torsions:
REMARK  status: ('A' for Active; 'I' for Inactive)
REMARK    1  A    between atoms: C_1  and  O_2
REMARK    2  A    between atoms: O_2  and  C_3
REMARK    3  A    between atoms: N_18  and  C_19
REMARK                            x       y       z     vdW  Elec       q    Type
REMARK                         _______ _______ _______ _____ _____    ______ ____
ROOT
ATOM      1  C   UNL     1       0.920   2.255 -23.275  0.00  0.00    +0.162 A 
ATOM      2  C   UNL     1       0.868   1.902 -22.063  0.00  0.00    +0.050 A 
ATOM      3  C   UNL     1      -0.212   1.936 -21.438  0.00  0.00    +0.008 A 
ATOM      4  C   UNL     1      -1.252   2.324 -22.016  0.00  0.00    -0.034 A 
ATOM      5  C   UNL     1      -1.225   2.680 -23.222  0.00  0.00    +0.012 A 
ATOM      6  C   UNL     1      -2.264   3.066 -23.794  0.00  0.00    +0.054 C 
ATOM      7  C   UNL     1      -3.382   3.523 -24.550  0.00  0.00    +0.067 C 
ATOM      8  C   UNL     1      -4.615   3.573 -23.872  0.00  0.00    +0.132 C 
ATOM      9  N   UNL     1      -4.634   3.172 -22.522  0.00  0.00    +0.236 N 
ATOM     10  H   UNL     1      -5.500   3.189 -21.983  0.00  0.00    +0.203 HD
ATOM     11  C   UNL     1      -5.686   3.186 -21.849  0.00  0.00    +0.190 C 
ATOM     12  C   UNL     1      -3.397   2.748 -21.960  0.00  0.00    +0.076 C 
ATOM     13  C   UNL     1      -3.348   3.102 -23.172  0.00  0.00    +0.075 C 
ATOM     14  C   UNL     1      -4.400   3.493 -23.752  0.00  0.00    -0.020 C 
ATOM     15  C   UNL     1      -4.356   3.843 -24.950  0.00  0.00    -0.008 C 
ATOM     16  C   UNL     1      -3.268   3.811 -25.589  0.00  0.00    +0.144 C 
ATOM     17 CL   UNL     1      -3.229   4.162 -26.786  0.00  0.00    -0.113 Cl
ATOM     18  C   UNL     1      -2.228   3.424 -25.011  0.00  0.00    +0.207 C 
ATOM     19  O   UNL     1      -0.747   3.153 -25.126  0.00  0.00    -0.482 OA
ATOM     20  C   UNL     1      -2.357   2.362 -21.384  0.00  0.00    +0.090 C 
ATOM     21  C   UNL     1      -0.135   2.646 -23.856  0.00  0.00    +0.167 A 
ENDROOT
BRANCH   1  23
ATOM     22  C   UNL     1       2.713   3.245 -23.976  0.00  0.00    +0.277 C 
ATOM     23  O   UNL     1       2.002   2.219 -23.897  0.00  0.00    -0.491 OA
ENDBRANCH   1  23
TORSDOF 1
ENDMDL
