MODEL 1
REMARK VINA RESULT:   -11.490      0.000      0.000
REMARK INTER + INTRA:         -11.958
REMARK INTER:                 -12.770
REMARK INTRA:                   0.812
REMARK UNBOUND:                 0.876
REMARK  Name = ZINC000004292928
REMARK  5 active torsions:
REMARK  status: ('A' for Active; 'I' for Inactive)
REMARK    1  A    between atoms: C_1  and  C_2
REMARK    2  A    between atoms: C_2  and  O_4
REMARK    3  A    between atoms: O_4  and  C_5
REMARK    4  A    between atoms: C_18  and  C_19
REMARK    5  A    between atoms: C_23  and  C_24
REMARK                            x       y       z     vdW  Elec       q    Type
REMARK                         _______ _______ _______ _____ _____    ______ ____
ROOT
ATOM      1  C   UNL     1       1.963   3.118 -23.681  0.00  0.00    +0.183 C 
ATOM      2  C   UNL     1       1.865   3.776 -24.798  0.00  0.00    +0.045 C 
ATOM      3  C   UNL     1       0.607   4.034 -25.004  0.00  0.00    +0.008 C 
ATOM      4  C   UNL     1      -0.072   3.535 -24.014  0.00  0.00    +0.002 C 
ATOM      5  C   UNL     1      -1.346   3.523 -23.751  0.00  0.00    -0.003 C 
ATOM      6  C   UNL     1      -2.183   4.089 -24.569  0.00  0.00    +0.008 C 
ATOM      7  C   UNL     1      -3.456   4.077 -24.307  0.00  0.00    +0.032 C 
ATOM      8  C   UNL     1      -3.892   3.500 -23.227  0.00  0.00    -0.060 C 
ATOM      9  C   UNL     1      -5.165   3.487 -22.964  0.00  0.00    +0.046 C 
ATOM     10  C   UNL     1      -5.601   2.911 -21.885  0.00  0.00    +0.156 C 
ATOM     11  C   UNL     1      -4.764   2.345 -21.067  0.00  0.00    +0.080 C 
ATOM     12  C   UNL     1      -3.490   2.357 -21.330  0.00  0.00    +0.019 C 
ATOM     13  O   UNL     1      -6.874   2.899 -21.622  0.00  0.00    -0.293 OA
ATOM     14  C   UNL     1      -3.054   2.934 -22.409  0.00  0.00    -0.007 C 
ATOM     15  C   UNL     1      -2.217   2.368 -21.591  0.00  0.00    +0.016 C 
ATOM     16  C   UNL     1      -1.781   2.946 -22.671  0.00  0.00    +0.002 C 
ATOM     17  C   UNL     1      -0.944   2.380 -21.853  0.00  0.00    +0.005 C 
ATOM     18  C   UNL     1       0.329   2.392 -22.116  0.00  0.00    +0.011 C 
ATOM     19  C   UNL     1       0.765   2.970 -23.196  0.00  0.00    +0.008 C 
ATOM     20  C   UNL     1       1.702   2.443 -22.464  0.00  0.00    +0.015 C 
ENDROOT
BRANCH   1  21
ATOM     21  O   UNL     1       3.064   2.686 -23.142  0.00  0.00    -0.461 OA
BRANCH  21  23
ATOM     22  C   UNL     1       5.226   3.019 -23.674  0.00  0.00    +0.136 C 
ATOM     23  C   UNL     1       4.122   3.440 -23.132  0.00  0.00    +0.304 C 
ATOM     24  O   UNL     1       4.077   4.617 -22.580  0.00  0.00    -0.251 OA
ENDBRANCH  21  23
ENDBRANCH   1  21
TORSDOF 2
ENDMDL
