MODEL 1
REMARK VINA RESULT:   -10.717      0.000      0.000
REMARK INTER + INTRA:         -12.106
REMARK INTER:                 -11.964
REMARK INTRA:                  -0.141
REMARK UNBOUND:                -0.136
REMARK  Name = ZINC000002040405
REMARK  4 active torsions:
REMARK  status: ('A' for Active; 'I' for Inactive)
REMARK    1  A    between atoms: C_1  and  O_2
REMARK    2  A    between atoms: O_2  and  C_3
REMARK    3  A    between atoms: C_15  and  O_16
REMARK    4  A    between atoms: N_19  and  C_20
REMARK                            x       y       z     vdW  Elec       q    Type
REMARK                         _______ _______ _______ _____ _____    ______ ____
ROOT
ATOM      1  C   UNL     1       0.528   2.567 -23.221  0.00  0.00    +0.162 A 
ATOM      2  C   UNL     1       0.504   2.015 -22.082  0.00  0.00    +0.050 A 
ATOM      3  C   UNL     1      -0.573   1.900 -21.456  0.00  0.00    +0.008 A 
ATOM      4  C   UNL     1      -1.635   2.333 -21.956  0.00  0.00    -0.034 A 
ATOM      5  C   UNL     1      -1.634   2.887 -23.090  0.00  0.00    +0.015 A 
ATOM      6  C   UNL     1      -2.696   3.319 -23.588  0.00  0.00    +0.086 C 
ATOM      7  C   UNL     1      -3.842   3.848 -24.253  0.00  0.00    +0.070 C 
ATOM      8  C   UNL     1      -5.070   3.732 -23.570  0.00  0.00    +0.132 C 
ATOM      9  N   UNL     1      -5.060   3.112 -22.306  0.00  0.00    +0.238 N 
ATOM     10  H   UNL     1      -5.929   3.010 -21.781  0.00  0.00    +0.203 HD
ATOM     11  C   UNL     1      -6.107   2.971 -21.636  0.00  0.00    +0.191 C 
ATOM     12  C   UNL     1      -3.800   2.653 -21.823  0.00  0.00    +0.106 C 
ATOM     13  C   UNL     1      -3.769   3.203 -22.961  0.00  0.00    +0.141 C 
ATOM     14  C   UNL     1      -4.849   3.638 -23.458  0.00  0.00    +0.017 C 
ATOM     15  C   UNL     1      -4.839   4.187 -24.585  0.00  0.00    +0.049 C 
ATOM     16  C   UNL     1      -3.756   4.309 -25.229  0.00  0.00    +0.197 C 
ATOM     17  O   UNL     1      -3.749   4.858 -26.354  0.00  0.00    -0.289 OA
ATOM     18  C   UNL     1      -2.689   3.876 -24.731  0.00  0.00    +0.257 C 
ATOM     19  O   UNL     1      -1.197   3.691 -24.893  0.00  0.00    -0.476 OA
ATOM     20  C   UNL     1      -2.738   2.220 -21.325  0.00  0.00    +0.093 C 
ATOM     21  C   UNL     1      -0.549   3.005 -23.726  0.00  0.00    +0.167 A 
ENDROOT
BRANCH   1  23
ATOM     22  C   UNL     1       2.439   3.552 -23.506  0.00  0.00    +0.277 C 
ATOM     23  O   UNL     1       1.607   2.680 -23.844  0.00  0.00    -0.491 OA
ENDBRANCH   1  23
BRANCH  13  24
ATOM     24  O   UNL     1      -2.709   2.768 -22.456  0.00  0.00    -0.378 OA
ATOM     25  H   UNL     1      -2.408   3.377 -21.763  0.00  0.00    +0.211 HD
ENDBRANCH  13  24
TORSDOF 2
ENDMDL
