MODEL 1
REMARK VINA RESULT:    -8.384      0.000      0.000
REMARK INTER + INTRA:          -9.370
REMARK INTER:                  -9.488
REMARK INTRA:                   0.118
REMARK UNBOUND:                 0.485
REMARK  Name = ZINC000000900216
REMARK  6 active torsions:
REMARK  status: ('A' for Active; 'I' for Inactive)
REMARK    1  A    between atoms: C_1  and  O_2
REMARK    2  A    between atoms: O_2  and  C_3
REMARK    3  A    between atoms: C_12  and  O_13
REMARK    4  A    between atoms: O_13  and  C_14
REMARK    5  A    between atoms: C_17  and  O_18
REMARK    6  A    between atoms: O_18  and  C_19
REMARK                            x       y       z     vdW  Elec       q    Type
REMARK                         _______ _______ _______ _____ _____    ______ ____
ROOT
ATOM      1  C   UNL     1       0.770   1.631 -22.167  0.00  0.00    +0.164 A 
ATOM      2  C   UNL     1      -0.353   1.556 -21.515  0.00  0.00    +0.078 A 
ATOM      3  C   UNL     1      -1.423   2.116 -21.996  0.00  0.00    +0.082 A 
ATOM      4  N   UNL     1      -2.545   2.042 -21.344  0.00  0.00    -0.212 NA
ATOM      5  C   UNL     1      -3.615   2.602 -21.825  0.00  0.00    +0.231 A 
ATOM      6  O   UNL     1      -4.835   2.672 -21.381  0.00  0.00    -0.445 OA
ATOM      7  C   UNL     1      -5.536   3.351 -22.240  0.00  0.00    +0.198 A 
ATOM      8  C   UNL     1      -4.751   3.699 -23.214  0.00  0.00    +0.055 A 
ATOM      9  C   UNL     1      -3.563   3.237 -22.957  0.00  0.00    +0.082 A 
ATOM     10  C   UNL     1      -2.441   3.312 -23.610  0.00  0.00    +0.142 A 
ATOM     11  C   UNL     1      -1.371   2.752 -23.129  0.00  0.00    +0.047 A 
ATOM     12  C   UNL     1      -0.249   2.826 -23.781  0.00  0.00    +0.063 A 
ATOM     13  C   UNL     1       0.821   2.266 -23.300  0.00  0.00    +0.162 A 
ENDROOT
BRANCH   1  15
ATOM     14  C   UNL     1       2.388   1.540 -20.605  0.00  0.00    +0.277 C 
ATOM     15  O   UNL     1       1.839   1.071 -21.686  0.00  0.00    -0.491 OA
ENDBRANCH   1  15
BRANCH  10  16
ATOM     16  O   UNL     1      -2.388   3.946 -24.743  0.00  0.00    -0.494 OA
ATOM     17  C   UNL     1      -2.741   3.346 -25.841  0.00  0.00    +0.277 C 
ENDBRANCH  10  16
BRANCH  13  18
ATOM     18  O   UNL     1       1.944   2.341 -23.952  0.00  0.00    -0.491 OA
ATOM     19  C   UNL     1       1.936   2.470 -25.246  0.00  0.00    +0.277 C 
ENDBRANCH  13  18
TORSDOF 3
ENDMDL
