MODEL 1
REMARK VINA RESULT:    -5.921      0.000      0.000
REMARK INTER + INTRA:          -6.567
REMARK INTER:                  -6.397
REMARK INTRA:                  -0.170
REMARK UNBOUND:                -0.126
REMARK  Name = ZINC000000001712
REMARK  4 active torsions:
REMARK  status: ('A' for Active; 'I' for Inactive)
REMARK    1  A    between atoms: C_1  and  O_2
REMARK    2  A    between atoms: O_2  and  C_3
REMARK    3  A    between atoms: C_3  and  C_5
REMARK    4  A    between atoms: C_8  and  O_9
REMARK                            x       y       z     vdW  Elec       q    Type
REMARK                         _______ _______ _______ _____ _____    ______ ____
ROOT
ATOM      1  C   UNL     1      -1.422   2.984 -23.016  0.00  0.00    +0.059 A 
ATOM      2  C   UNL     1      -2.473   3.550 -24.278  0.00  0.00    +0.018 A 
ATOM      3  C   UNL     1      -4.179   3.721 -23.988  0.00  0.00    +0.046 A 
ATOM      4  C   UNL     1      -4.828   3.383 -22.397  0.00  0.00    +0.117 A 
ATOM      5  C   UNL     1      -3.776   2.904 -21.110  0.00  0.00    +0.046 A 
ATOM      6  C   UNL     1      -2.077   2.656 -21.427  0.00  0.00    +0.018 A 
ENDROOT
BRANCH   1   7
ATOM      7  C   UNL     1       0.039   2.860 -23.249  0.00  0.00    +0.339 C 
ATOM      8  O   UNL     1       0.577   1.821 -23.625  0.00  0.00    -0.245 OA
BRANCH   7  10
ATOM      9  C   UNL     1       1.306   4.662 -24.140  0.00  0.00    +0.280 C 
ATOM     10  O   UNL     1       0.673   4.017 -23.050  0.00  0.00    -0.464 OA
ENDBRANCH   7  10
ENDBRANCH   1   7
BRANCH   4  11
ATOM     11  O   UNL     1      -6.161   3.548 -22.166  0.00  0.00    -0.507 OA
ATOM     12  H   UNL     1      -6.704   3.946 -22.818  0.00  0.00    +0.292 HD
ENDBRANCH   4  11
TORSDOF 3
ENDMDL
