MODEL 1
REMARK VINA RESULT:    -9.775      0.000      0.000
REMARK INTER + INTRA:         -10.060
REMARK INTER:                 -10.060
REMARK INTRA:                   0.000
REMARK UNBOUND:                 0.000
REMARK  Name = ZINC000004104715
REMARK  5 active torsions:
REMARK  status: ('A' for Active; 'I' for Inactive)
REMARK    1  A    between atoms: C_1  and  C_2
REMARK    2  A    between atoms: C_2  and  C_3
REMARK    3  A    between atoms: C_9  and  C_10
REMARK    4  A    between atoms: C_13  and  C_14
REMARK    5  A    between atoms: C_13  and  O_15
REMARK                            x       y       z     vdW  Elec       q    Type
REMARK                         _______ _______ _______ _____ _____    ______ ____
ROOT
ATOM      1  C   UNL     1      -0.085   1.871 -21.382  0.00  0.00    +0.011 C 
ATOM      2  C   UNL     1      -0.867   2.281 -22.336  0.00  0.00    -0.028 C 
ATOM      3  C   UNL     1      -1.971   2.445 -21.670  0.00  0.00    -0.001 C 
ATOM      4  C   UNL     1      -2.973   2.549 -20.849  0.00  0.00    +0.012 C 
ATOM      5  C   UNL     1      -4.189   2.932 -21.100  0.00  0.00    +0.075 C 
ATOM      6  C   UNL     1      -4.704   3.307 -22.233  0.00  0.00    +0.140 C 
ATOM      7  C   UNL     1      -4.130   3.390 -23.396  0.00  0.00    +0.032 C 
ATOM      8  C   UNL     1      -4.744   3.780 -24.473  0.00  0.00    +0.017 C 
ATOM      9  C   UNL     1      -3.892   3.750 -25.455  0.00  0.00    +0.036 C 
ATOM     10  C   UNL     1      -2.751   3.342 -24.985  0.00  0.00    +0.067 C 
ATOM     11  C   UNL     1      -2.350   3.486 -26.214  0.00  0.00    +0.041 C 
ATOM     12  C   UNL     1      -5.384   3.713 -23.305  0.00  0.00    +0.019 C 
ATOM     13  C   UNL     1      -2.897   3.119 -23.713  0.00  0.00    +0.037 C 
ATOM     14  O   UNL     1      -5.960   3.642 -22.199  0.00  0.00    -0.297 OA
ATOM     15  C   UNL     1      -0.034   2.260 -23.334  0.00  0.00    +0.011 C 
ATOM     16  C   UNL     1      -1.937   2.698 -22.945  0.00  0.00    +0.005 C 
ENDROOT
BRANCH  10  17
ATOM     17  O   UNL     1      -1.526   2.963 -24.772  0.00  0.00    -0.389 OA
ATOM     18  H   UNL     1      -0.943   3.738 -24.779  0.00  0.00    +0.210 HD
ENDBRANCH  10  17
TORSDOF 1
ENDMDL
