MODEL 1
REMARK VINA RESULT:    -9.181      0.000      0.000
REMARK INTER + INTRA:         -15.952
REMARK INTER:                 -14.362
REMARK INTRA:                  -1.590
REMARK UNBOUND:                -0.330
REMARK  Name = CCCCCCCCCCCC1=C(O)C(=O)C=C(Nc2ccccc2C)C1=O                           ZINC000100393197
REMARK  14 active torsions:
REMARK  status: ('A' for Active; 'I' for Inactive)
REMARK    1  A    between atoms: C_1  and  C_2
REMARK    2  A    between atoms: C_2  and  C_3
REMARK    3  A    between atoms: C_3  and  C_4
REMARK    4  A    between atoms: C_4  and  C_5
REMARK    5  A    between atoms: C_5  and  C_6
REMARK    6  A    between atoms: C_6  and  C_7
REMARK    7  A    between atoms: C_7  and  C_8
REMARK    8  A    between atoms: C_8  and  C_9
REMARK    9  A    between atoms: C_9  and  C_10
REMARK   10  A    between atoms: C_10  and  C_11
REMARK   11  A    between atoms: C_11  and  C_12
REMARK   12  A    between atoms: C_18  and  N_19
REMARK   13  A    between atoms: N_19  and  C_20
REMARK   14  A    between atoms: C_25  and  C_26
REMARK                            x       y       z     vdW  Elec       q    Type
REMARK                         _______ _______ _______ _____ _____    ______ ____
ROOT
ATOM      1  C   UNL     1      -0.621   2.873 -22.577  0.00  0.00    -0.008 C 
ATOM      2  C   UNL     1      -0.457   4.077 -23.038  0.00  0.00    +0.228 C 
ATOM      3  C   UNL     1       0.697   4.437 -23.518  0.00  0.00    +0.227 C 
ATOM      4  C   UNL     1       1.686   3.594 -23.536  0.00  0.00    +0.077 C 
ATOM      5  C   UNL     1       1.521   2.390 -23.075  0.00  0.00    +0.022 C 
ATOM      6  O   UNL     1       0.862   5.642 -23.979  0.00  0.00    -0.284 OA
ATOM      7  O   UNL     1      -1.445   4.921 -23.020  0.00  0.00    -0.284 OA
ATOM      8  C   UNL     1       0.369   2.029 -22.595  0.00  0.00    -0.112 C 
ATOM      9  O   UNL     1       0.204   0.825 -22.134  0.00  0.00    -0.828 OA
ENDROOT
BRANCH   5  10
ATOM     10  N   UNL     1       2.510   1.546 -23.093  0.00  0.00    -0.315 N 
ATOM     11  H   UNL     1       2.360   0.617 -23.383  0.00  0.00    +0.152 HD
BRANCH  10  12
ATOM     12  C   UNL     1       3.698   1.928 -22.729  0.00  0.00    +0.034 A 
ATOM     13  C   UNL     1       4.416   2.665 -23.524  0.00  0.00    +0.023 A 
ATOM     14  C   UNL     1       5.603   3.048 -23.160  0.00  0.00    +0.002 A 
ATOM     15  C   UNL     1       6.074   2.693 -22.001  0.00  0.00    +0.000 A 
ATOM     16  C   UNL     1       5.356   1.956 -21.206  0.00  0.00    +0.005 A 
ATOM     17  C   UNL     1       4.169   1.574 -21.570  0.00  0.00    -0.029 A 
ATOM     18  C   UNL     1       3.451   0.837 -20.775  0.00  0.00    +0.045 C 
ENDBRANCH  10  12
ENDBRANCH   5  10
BRANCH   1  19
ATOM     19  C   UNL     1      -1.774   2.512 -22.097  0.00  0.00    +0.038 C 
BRANCH  19  20
ATOM     20  C   UNL     1      -2.129   2.891 -20.906  0.00  0.00    +0.005 C 
BRANCH  20  21
ATOM     21  C   UNL     1      -3.370   3.200 -20.665  0.00  0.00    +0.000 C 
BRANCH  21  22
ATOM     22  C   UNL     1      -4.324   2.615 -21.325  0.00  0.00    +0.000 C 
BRANCH  22  23
ATOM     23  C   UNL     1      -5.324   3.312 -21.776  0.00  0.00    +0.000 C 
BRANCH  23  24
ATOM     24  C   UNL     1      -5.544   3.380 -23.056  0.00  0.00    +0.000 C 
BRANCH  24  25
ATOM     25  C   UNL     1      -4.955   4.293 -23.769  0.00  0.00    -0.000 C 
BRANCH  25  26
ATOM     26  C   UNL     1      -4.564   4.022 -24.979  0.00  0.00    -0.000 C 
BRANCH  26  27
ATOM     27  C   UNL     1      -3.572   3.204 -25.173  0.00  0.00    -0.000 C 
BRANCH  27  29
ATOM     28  C   UNL     1      -3.148   3.463 -27.369  0.00  0.00    +0.004 C 
ATOM     29  C   UNL     1      -2.730   3.422 -26.139  0.00  0.00    -0.003 C 
ENDBRANCH  27  29
ENDBRANCH  26  27
ENDBRANCH  25  26
ENDBRANCH  24  25
ENDBRANCH  23  24
ENDBRANCH  22  23
ENDBRANCH  21  22
ENDBRANCH  20  21
ENDBRANCH  19  20
ENDBRANCH   1  19
TORSDOF 12
ENDMDL
