MODEL 1
REMARK VINA RESULT:   -10.744      0.000      0.000
REMARK INTER + INTRA:         -12.113
REMARK INTER:                 -11.969
REMARK INTRA:                  -0.143
REMARK UNBOUND:                -0.112
REMARK  Name = ZINC000035780661
REMARK  4 active torsions:
REMARK  status: ('A' for Active; 'I' for Inactive)
REMARK    1  A    between atoms: C_1  and  O_2
REMARK    2  A    between atoms: O_2  and  C_3
REMARK    3  A    between atoms: C_15  and  O_16
REMARK    4  A    between atoms: N_19  and  C_20
REMARK                            x       y       z     vdW  Elec       q    Type
REMARK                         _______ _______ _______ _____ _____    ______ ____
ROOT
ATOM      1  C   UNL     1       0.515   2.550 -23.230  0.00  0.00    +0.162 A 
ATOM      2  C   UNL     1       0.493   2.001 -22.090  0.00  0.00    +0.050 A 
ATOM      3  C   UNL     1      -0.582   1.890 -21.460  0.00  0.00    +0.008 A 
ATOM      4  C   UNL     1      -1.644   2.324 -21.958  0.00  0.00    -0.034 A 
ATOM      5  C   UNL     1      -1.646   2.875 -23.094  0.00  0.00    +0.015 A 
ATOM      6  C   UNL     1      -2.709   3.307 -23.589  0.00  0.00    +0.086 C 
ATOM      7  C   UNL     1      -3.855   3.836 -24.253  0.00  0.00    +0.070 C 
ATOM      8  C   UNL     1      -5.082   3.725 -23.566  0.00  0.00    +0.132 C 
ATOM      9  N   UNL     1      -5.069   3.109 -22.300  0.00  0.00    +0.238 N 
ATOM     10  H   UNL     1      -5.936   3.010 -21.772  0.00  0.00    +0.203 HD
ATOM     11  C   UNL     1      -6.114   2.972 -21.627  0.00  0.00    +0.191 C 
ATOM     12  C   UNL     1      -3.808   2.648 -21.820  0.00  0.00    +0.106 C 
ATOM     13  C   UNL     1      -3.780   3.195 -22.959  0.00  0.00    +0.141 C 
ATOM     14  C   UNL     1      -4.860   3.631 -23.454  0.00  0.00    +0.017 C 
ATOM     15  C   UNL     1      -4.853   4.176 -24.583  0.00  0.00    +0.049 C 
ATOM     16  C   UNL     1      -3.772   4.295 -25.231  0.00  0.00    +0.197 C 
ATOM     17  O   UNL     1      -3.767   4.840 -26.357  0.00  0.00    -0.289 OA
ATOM     18  C   UNL     1      -2.703   3.861 -24.734  0.00  0.00    +0.257 C 
ATOM     19  O   UNL     1      -1.212   3.672 -24.900  0.00  0.00    -0.476 OA
ATOM     20  C   UNL     1      -2.745   2.215 -21.323  0.00  0.00    +0.093 C 
ATOM     21  C   UNL     1      -0.563   2.989 -23.733  0.00  0.00    +0.167 A 
ENDROOT
BRANCH   1  23
ATOM     22  C   UNL     1       2.409   3.557 -23.551  0.00  0.00    +0.277 C 
ATOM     23  O   UNL     1       1.592   2.659 -23.857  0.00  0.00    -0.491 OA
ENDBRANCH   1  23
BRANCH  13  24
ATOM     24  O   UNL     1      -2.719   2.760 -22.456  0.00  0.00    -0.378 OA
ATOM     25  H   UNL     1      -2.734   2.903 -21.497  0.00  0.00    +0.211 HD
ENDBRANCH  13  24
TORSDOF 2
ENDMDL
