MODEL 1
REMARK VINA RESULT:    -7.928      0.000      0.000
REMARK INTER + INTRA:          -8.698
REMARK INTER:                  -8.627
REMARK INTRA:                  -0.071
REMARK UNBOUND:                -0.074
REMARK  Name = ZINC000000001785
REMARK  4 active torsions:
REMARK  status: ('A' for Active; 'I' for Inactive)
REMARK    1  A    between atoms: C_4  and  C_5
REMARK    2  A    between atoms: C_8  and  O_9
REMARK    3  A    between atoms: C_15  and  O_16
REMARK    4  A    between atoms: C_18  and  O_19
REMARK                            x       y       z     vdW  Elec       q    Type
REMARK                         _______ _______ _______ _____ _____    ______ ____
ROOT
ATOM      1  O   UNL     1       3.557   0.287 -20.240  0.00  0.00    -0.292 OA
ATOM      2  C   UNL     1       3.191   1.118 -21.075  0.00  0.00    +0.174 C 
ATOM      3  C   UNL     1       1.369   1.035 -21.880  0.00  0.00    +0.129 C 
ATOM      4  C   UNL     1       0.825   2.464 -23.420  0.00  0.00    +0.211 C 
ATOM      5  O   UNL     1       2.302   3.785 -23.635  0.00  0.00    -0.483 OA
ATOM      6  C   UNL     1       3.873   3.781 -22.842  0.00  0.00    +0.139 A 
ATOM      7  C   UNL     1       4.850   4.726 -23.196  0.00  0.00    +0.092 A 
ATOM      8  C   UNL     1       6.113   4.718 -22.575  0.00  0.00    +0.124 A 
ATOM      9  C   UNL     1       6.468   3.776 -21.581  0.00  0.00    +0.091 A 
ATOM     10  C   UNL     1       5.611   2.750 -21.132  0.00  0.00    +0.134 A 
ATOM     11  C   UNL     1       4.315   2.615 -21.662  0.00  0.00    +0.101 A 
ENDROOT
BRANCH   4  12
ATOM     12  C   UNL     1      -2.019   3.163 -24.416  0.00  0.00    -0.007 A 
ATOM     13  C   UNL     1      -2.497   3.337 -25.808  0.00  0.00    +0.011 A 
ATOM     14  C   UNL     1      -3.789   3.653 -26.268  0.00  0.00    +0.046 A 
ATOM     15  C   UNL     1      -4.838   3.827 -25.379  0.00  0.00    +0.117 A 
ATOM     16  C   UNL     1      -4.548   3.706 -24.026  0.00  0.00    +0.046 A 
ATOM     17  C   UNL     1      -3.237   3.410 -23.604  0.00  0.00    +0.011 A 
BRANCH  15  18
ATOM     18  O   UNL     1      -6.095   4.108 -25.824  0.00  0.00    -0.507 OA
ATOM     19  H   UNL     1      -6.425   4.984 -25.776  0.00  0.00    +0.292 HD
ENDBRANCH  15  18
ENDBRANCH   4  12
BRANCH  10  20
ATOM     20  O   UNL     1       6.074   1.888 -20.177  0.00  0.00    -0.506 OA
ATOM     21  H   UNL     1       5.933   0.966 -20.270  0.00  0.00    +0.292 HD
ENDBRANCH  10  20
BRANCH   8  22
ATOM     22  O   UNL     1       7.021   5.661 -22.956  0.00  0.00    -0.507 OA
ATOM     23  H   UNL     1       6.816   6.572 -22.867  0.00  0.00    +0.292 HD
ENDBRANCH   8  22
TORSDOF 4
ENDMDL
