MODEL 1
REMARK VINA RESULT:   -10.905      0.000      0.000
REMARK INTER + INTRA:         -14.117
REMARK INTER:                 -13.289
REMARK INTRA:                  -0.828
REMARK UNBOUND:                 0.294
REMARK  Name = ZINC000000019968
REMARK  8 active torsions:
REMARK  status: ('A' for Active; 'I' for Inactive)
REMARK    1  A    between atoms: C_7  and  O_8
REMARK    2  A    between atoms: O_8  and  C_9
REMARK    3  A    between atoms: C_11  and  C_12
REMARK    4  A    between atoms: C_12  and  O_13
REMARK    5  A    between atoms: C_14  and  O_15
REMARK    6  A    between atoms: C_16  and  O_17
REMARK    7  A    between atoms: C_18  and  O_19
REMARK    8  A    between atoms: C_20  and  O_21
REMARK                            x       y       z     vdW  Elec       q    Type
REMARK                         _______ _______ _______ _____ _____    ______ ____
ROOT
ATOM      1  C   UNL     1       1.491   2.921 -23.946  0.00  0.00    +0.339 C 
ATOM      2  O   UNL     1       1.809   2.831 -22.689  0.00  0.00    -0.331 OA
ATOM      3  C   UNL     1       2.656   1.926 -22.296  0.00  0.00    +0.179 C 
ATOM      4  C   UNL     1       3.185   1.111 -23.160  0.00  0.00    +0.177 C 
ATOM      5  C   UNL     1       2.867   1.201 -24.418  0.00  0.00    +0.180 C 
ATOM      6  C   UNL     1       2.020   2.106 -24.811  0.00  0.00    +0.214 C 
ENDROOT
BRANCH   5   7
ATOM      7  O   UNL     1       3.395   0.387 -25.282  0.00  0.00    -0.386 OA
ATOM      8  H   UNL     1       2.698  -0.155 -25.684  0.00  0.00    +0.210 HD
ENDBRANCH   5   7
BRANCH   4   9
ATOM      9  O   UNL     1       4.031   0.207 -22.767  0.00  0.00    -0.386 OA
ATOM     10  H   UNL     1       3.861  -0.623 -23.241  0.00  0.00    +0.210 HD
ENDBRANCH   4   9
BRANCH   6  11
ATOM     11  O   UNL     1       1.702   2.196 -26.068  0.00  0.00    -0.383 OA
ATOM     12  H   UNL     1       0.772   1.945 -26.184  0.00  0.00    +0.210 HD
ENDBRANCH   6  11
BRANCH   1  13
ATOM     13  O   UNL     1       0.644   3.826 -24.339  0.00  0.00    -0.457 OA
BRANCH  13  20
ATOM     14  O   UNL     1      -6.103   3.224 -21.789  0.00  0.00    -0.245 OA
ATOM     15  C   UNL     1      -4.837   3.361 -22.053  0.00  0.00    +0.337 A 
ATOM     16  C   UNL     1      -3.991   3.574 -21.089  0.00  0.00    +0.092 A 
ATOM     17  C   UNL     1      -2.726   3.710 -21.353  0.00  0.00    +0.018 A 
ATOM     18  C   UNL     1      -2.306   3.632 -22.582  0.00  0.00    +0.021 A 
ATOM     19  C   UNL     1      -1.041   3.768 -22.846  0.00  0.00    +0.061 A 
ATOM     20  C   UNL     1      -0.622   3.690 -24.074  0.00  0.00    +0.166 A 
ATOM     21  C   UNL     1      -1.468   3.476 -25.038  0.00  0.00    +0.162 A 
ATOM     22  C   UNL     1      -2.733   3.340 -24.773  0.00  0.00    +0.096 A 
ATOM     23  C   UNL     1      -3.152   3.418 -23.545  0.00  0.00    +0.143 A 
ATOM     24  O   UNL     1      -4.418   3.282 -23.280  0.00  0.00    -0.422 OA
BRANCH  21  25
ATOM     25  O   UNL     1      -1.048   3.398 -26.265  0.00  0.00    -0.503 OA
ATOM     26  H   UNL     1      -1.463   2.810 -26.865  0.00  0.00    +0.292 HD
ENDBRANCH  21  25
ENDBRANCH  13  20
ENDBRANCH   1  13
BRANCH   3  27
ATOM     27  C   UNL     1       2.975   1.835 -21.039  0.00  0.00    +0.190 C 
BRANCH  27  28
ATOM     28  O   UNL     1       4.151   2.211 -20.638  0.00  0.00    -0.392 OA
ATOM     29  H   UNL     1       4.640   2.596 -21.382  0.00  0.00    +0.210 HD
ENDBRANCH  27  28
ENDBRANCH   3  27
TORSDOF 8
ENDMDL
