MODEL 1
REMARK VINA RESULT:    -9.246      0.000      0.000
REMARK INTER + INTRA:         -10.979
REMARK INTER:                 -11.352
REMARK INTRA:                   0.373
REMARK UNBOUND:                 0.429
REMARK  Name = ZINC000000689936
REMARK  8 active torsions:
REMARK  status: ('A' for Active; 'I' for Inactive)
REMARK    1  A    between atoms: C_1  and  O_2
REMARK    2  A    between atoms: O_2  and  C_3
REMARK    3  A    between atoms: C_8  and  O_9
REMARK    4  A    between atoms: O_9  and  C_10
REMARK    5  A    between atoms: C_18  and  O_19
REMARK    6  A    between atoms: O_19  and  C_20
REMARK    7  A    between atoms: C_21  and  O_22
REMARK    8  A    between atoms: O_22  and  C_23
REMARK                            x       y       z     vdW  Elec       q    Type
REMARK                         _______ _______ _______ _____ _____    ______ ____
ROOT
ATOM      1  C   UNL     1       3.667   2.281 -22.052  0.00  0.00    +0.162 A 
ATOM      2  C   UNL     1       2.400   2.414 -21.793  0.00  0.00    +0.053 A 
ATOM      3  C   UNL     1       1.564   2.675 -22.754  0.00  0.00    -0.030 A 
ATOM      4  C   UNL     1       1.995   2.804 -23.974  0.00  0.00    +0.044 A 
ATOM      5  C   UNL     1       1.159   3.066 -24.934  0.00  0.00    +0.248 C 
ATOM      6  N   UNL     1      -0.107   3.199 -24.675  0.00  0.00    -0.290 N 
ATOM      7  C   UNL     1      -0.944   3.461 -25.636  0.00  0.00    +0.113 C 
ATOM      8  C   UNL     1      -2.210   3.594 -25.377  0.00  0.00    +0.054 C 
ATOM      9  C   UNL     1      -2.641   3.465 -24.157  0.00  0.00    -0.037 A 
ATOM     10  C   UNL     1      -3.909   3.598 -23.898  0.00  0.00    +0.053 A 
ATOM     11  C   UNL     1      -4.340   3.469 -22.678  0.00  0.00    +0.162 A 
ATOM     12  C   UNL     1      -3.503   3.207 -21.718  0.00  0.00    +0.162 A 
ATOM     13  C   UNL     1      -2.237   3.074 -21.977  0.00  0.00    +0.055 A 
ATOM     14  C   UNL     1      -1.806   3.203 -23.196  0.00  0.00    -0.020 A 
ATOM     15  C   UNL     1      -0.538   3.070 -23.456  0.00  0.00    +0.111 C 
ATOM     16  O   UNL     1       1.591   3.195 -26.154  0.00  0.00    -0.270 OA
ATOM     17  C   UNL     1       3.262   2.671 -24.233  0.00  0.00    +0.062 A 
ATOM     18  C   UNL     1       0.297   2.808 -22.495  0.00  0.00    +0.063 C 
ATOM     19  C   UNL     1       4.098   2.410 -23.272  0.00  0.00    +0.162 A 
ENDROOT
BRANCH   1  21
ATOM     20  C   UNL     1       4.643   0.798 -20.667  0.00  0.00    +0.277 C 
ATOM     21  O   UNL     1       4.503   2.019 -21.092  0.00  0.00    -0.491 OA
ENDBRANCH   1  21
BRANCH  12  22
ATOM     22  O   UNL     1      -3.935   3.078 -20.498  0.00  0.00    -0.491 OA
ATOM     23  C   UNL     1      -3.330   3.693 -19.526  0.00  0.00    +0.277 C 
ENDBRANCH  12  22
BRANCH  11  24
ATOM     24  O   UNL     1      -5.606   3.602 -22.420  0.00  0.00    -0.491 OA
ATOM     25  C   UNL     1      -6.256   2.638 -21.838  0.00  0.00    +0.277 C 
ENDBRANCH  11  24
BRANCH  19  26
ATOM     26  O   UNL     1       5.365   2.277 -23.531  0.00  0.00    -0.491 OA
ATOM     27  C   UNL     1       6.127   3.327 -23.603  0.00  0.00    +0.277 C 
ENDBRANCH  19  26
TORSDOF 4
ENDMDL
