MODEL 1
REMARK VINA RESULT:    -9.589      0.000      0.000
REMARK INTER + INTRA:         -11.054
REMARK INTER:                 -10.987
REMARK INTRA:                  -0.067
REMARK UNBOUND:                -0.064
REMARK  Name = ZINC000004098644
REMARK  4 active torsions:
REMARK  status: ('A' for Active; 'I' for Inactive)
REMARK    1  A    between atoms: C_7  and  O_8
REMARK    2  A    between atoms: C_13  and  O_14
REMARK    3  A    between atoms: C_16  and  C_17
REMARK    4  A    between atoms: C_17  and  O_18
REMARK                            x       y       z     vdW  Elec       q    Type
REMARK                         _______ _______ _______ _____ _____    ______ ____
ROOT
ATOM      1  O   UNL     1      -2.524   2.535 -20.991  0.00  0.00    -0.287 OA
ATOM      2  C   UNL     1      -2.370   2.824 -22.249  0.00  0.00    +0.195 C 
ATOM      3  C   UNL     1      -3.388   3.217 -22.955  0.00  0.00    +0.037 A 
ATOM      4  C   UNL     1      -4.561   3.322 -22.403  0.00  0.00    +0.012 A 
ATOM      5  C   UNL     1      -5.579   3.716 -23.109  0.00  0.00    +0.004 A 
ATOM      6  C   UNL     1      -5.425   4.005 -24.367  0.00  0.00    +0.046 A 
ATOM      7  C   UNL     1      -4.253   3.900 -24.919  0.00  0.00    +0.128 A 
ATOM      8  C   UNL     1      -3.234   3.506 -24.213  0.00  0.00    +0.075 A 
ATOM      9  C   UNL     1      -2.062   3.402 -24.765  0.00  0.00    +0.202 C 
ATOM     10  C   UNL     1      -1.044   3.008 -24.059  0.00  0.00    +0.075 A 
ATOM     11  C   UNL     1       0.128   2.903 -24.611  0.00  0.00    +0.129 A 
ATOM     12  C   UNL     1       1.147   2.510 -23.905  0.00  0.00    +0.052 A 
ATOM     13  C   UNL     1       0.993   2.221 -22.647  0.00  0.00    -0.018 A 
ATOM     14  C   UNL     1      -0.180   2.325 -22.095  0.00  0.00    +0.018 A 
ATOM     15  O   UNL     1      -1.908   3.691 -26.023  0.00  0.00    -0.286 OA
ATOM     16  C   UNL     1      -1.198   2.719 -22.801  0.00  0.00    +0.037 A 
ENDROOT
BRANCH   7  17
ATOM     17  O   UNL     1      -4.099   4.189 -26.177  0.00  0.00    -0.506 OA
ATOM     18  H   UNL     1      -3.348   3.875 -26.642  0.00  0.00    +0.292 HD
ENDBRANCH   7  17
BRANCH  11  19
ATOM     19  O   UNL     1       0.283   3.192 -25.869  0.00  0.00    -0.506 OA
ATOM     20  H   UNL     1       0.942   2.756 -26.372  0.00  0.00    +0.292 HD
ENDBRANCH  11  19
BRANCH  13  21
ATOM     21  C   UNL     1       2.010   1.827 -21.941  0.00  0.00    +0.191 C 
BRANCH  21  22
ATOM     22  O   UNL     1       1.822   1.121 -20.866  0.00  0.00    -0.390 OA
ATOM     23  H   UNL     1       2.679   0.921 -20.456  0.00  0.00    +0.210 HD
ENDBRANCH  21  22
ENDBRANCH  13  21
TORSDOF 4
ENDMDL
