MODEL 1
REMARK VINA RESULT:    -9.990      0.000      0.000
REMARK INTER + INTRA:         -10.646
REMARK INTER:                 -10.574
REMARK INTRA:                  -0.073
REMARK UNBOUND:                -0.073
REMARK  Name = ZINC000002048856
REMARK  2 active torsions:
REMARK  status: ('A' for Active; 'I' for Inactive)
REMARK    1  A    between atoms: C_1  and  O_2
REMARK    2  A    between atoms: O_2  and  C_3
REMARK                            x       y       z     vdW  Elec       q    Type
REMARK                         _______ _______ _______ _____ _____    ______ ____
ROOT
ATOM      1  C   UNL     1       4.296   2.204 -22.690  0.00  0.00    +0.124 A 
ATOM      2  C   UNL     1       3.786   2.950 -23.624  0.00  0.00    +0.046 A 
ATOM      3  C   UNL     1       2.501   3.148 -23.669  0.00  0.00    +0.014 A 
ATOM      4  C   UNL     1       1.727   2.598 -22.781  0.00  0.00    +0.035 A 
ATOM      5  C   UNL     1       2.237   1.852 -21.847  0.00  0.00    +0.131 A 
ATOM      6  O   UNL     1       1.464   1.302 -20.958  0.00  0.00    -0.491 OA
ATOM      7  C   UNL     1       0.180   1.500 -21.003  0.00  0.00    +0.241 C 
ATOM      8  C   UNL     1      -0.331   2.246 -21.937  0.00  0.00    +0.105 C 
ATOM      9  C   UNL     1      -1.556   2.595 -22.201  0.00  0.00    +0.008 A 
ATOM     10  C   UNL     1      -2.683   2.314 -21.618  0.00  0.00    +0.057 A 
ATOM     11  C   UNL     1      -3.795   2.799 -22.088  0.00  0.00    +0.167 A 
ATOM     12  C   UNL     1      -3.777   3.564 -23.139  0.00  0.00    +0.170 A 
ATOM     13  O   UNL     1      -5.002   3.913 -23.403  0.00  0.00    -0.452 OA
ATOM     14  C   UNL     1      -5.776   3.363 -22.514  0.00  0.00    +0.466 C 
ATOM     15  C   UNL     1      -2.650   3.844 -23.721  0.00  0.00    +0.095 A 
ATOM     16  O   UNL     1      -5.030   2.675 -21.701  0.00  0.00    -0.453 OA
ATOM     17  C   UNL     1      -1.539   3.360 -23.252  0.00  0.00    +0.129 A 
ATOM     18  O   UNL     1      -0.303   3.484 -23.638  0.00  0.00    -0.483 OA
ATOM     19  C   UNL     1       0.443   2.795 -22.826  0.00  0.00    +0.218 C 
ATOM     20  C   UNL     1       3.522   1.654 -21.801  0.00  0.00    +0.091 A 
ENDROOT
BRANCH   1  22
ATOM     21  C   UNL     1       6.377   2.988 -22.344  0.00  0.00    +0.277 C 
ATOM     22  O   UNL     1       5.579   2.006 -22.644  0.00  0.00    -0.495 OA
ENDBRANCH   1  22
TORSDOF 1
ENDMDL
