MODEL 1
REMARK VINA RESULT:    -6.663      0.000      0.000
REMARK INTER + INTRA:          -8.019
REMARK INTER:                  -8.393
REMARK INTRA:                   0.374
REMARK UNBOUND:                 0.397
REMARK  Name = ZINC000004104919
REMARK  7 active torsions:
REMARK  status: ('A' for Active; 'I' for Inactive)
REMARK    1  A    between atoms: C_1  and  O_2
REMARK    2  A    between atoms: O_2  and  C_3
REMARK    3  A    between atoms: C_4  and  C_5
REMARK    4  A    between atoms: C_5  and  S_6
REMARK    5  A    between atoms: C_11  and  O_12
REMARK    6  A    between atoms: C_13  and  O_14
REMARK    7  A    between atoms: C_15  and  O_16
REMARK                            x       y       z     vdW  Elec       q    Type
REMARK                         _______ _______ _______ _____ _____    ______ ____
ROOT
ATOM      1  C   UNL     1      -3.245   3.590 -23.151  0.00  0.00    +0.179 C 
ATOM      2  C   UNL     1      -2.047   3.369 -23.605  0.00  0.00    +0.173 C 
ATOM      3  O   UNL     1      -1.834   3.337 -24.887  0.00  0.00    -0.341 OA
ATOM      4  C   UNL     1      -2.819   3.526 -25.715  0.00  0.00    +0.279 C 
ATOM      5  C   UNL     1      -4.016   3.746 -25.261  0.00  0.00    +0.201 C 
ATOM      6  C   UNL     1      -4.230   3.779 -23.979  0.00  0.00    +0.179 C 
ENDROOT
BRANCH   5   7
ATOM      7  O   UNL     1      -5.001   3.935 -26.088  0.00  0.00    -0.384 OA
ATOM      8  H   UNL     1      -4.849   3.418 -26.895  0.00  0.00    +0.210 HD
ENDBRANCH   5   7
BRANCH   4   9
ATOM      9  O   UNL     1      -2.605   3.493 -26.997  0.00  0.00    -0.365 OA
ATOM     10  H   UNL     1      -3.442   3.630 -27.468  0.00  0.00    +0.213 HD
ENDBRANCH   4   9
BRANCH   1  12
ATOM     11  C   UNL     1      -3.866   2.554 -21.251  0.00  0.00    +0.194 C 
ATOM     12  O   UNL     1      -3.459   3.623 -21.869  0.00  0.00    -0.375 OA
ENDBRANCH   1  12
BRANCH   6  13
ATOM     13  O   UNL     1      -5.428   3.999 -23.525  0.00  0.00    -0.386 OA
ATOM     14  H   UNL     1      -5.471   4.893 -23.149  0.00  0.00    +0.210 HD
ENDBRANCH   6  13
BRANCH   2  15
ATOM     15  C   UNL     1      -1.063   3.181 -22.778  0.00  0.00    +0.187 C 
BRANCH  15  16
ATOM     16  S   UNL     1      -0.010   2.520 -23.159  0.00  0.00    -0.078 S 
ATOM     17  O   UNL     1       1.042   1.860 -23.541  0.00  0.00    -0.724 OA
ATOM     18  O   UNL     1      -0.648   1.402 -22.980  0.00  0.00    -0.185 OA
ATOM     19  O   UNL     1       0.627   3.639 -23.339  0.00  0.00    -0.185 OA
ENDBRANCH  15  16
ENDBRANCH   2  15
TORSDOF 6
ENDMDL
