MODEL 1
REMARK VINA RESULT:    -8.729      0.000      0.000
REMARK INTER + INTRA:         -13.016
REMARK INTER:                 -14.132
REMARK INTRA:                   1.116
REMARK UNBOUND:                 1.581
REMARK  Name = ZINC000085340942
REMARK  13 active torsions:
REMARK  status: ('A' for Active; 'I' for Inactive)
REMARK    1  A    between atoms: C_1  and  C_2
REMARK    2  A    between atoms: C_2  and  C_3
REMARK    3  A    between atoms: C_3  and  C_4
REMARK    4  A    between atoms: C_4  and  C_5
REMARK    5  A    between atoms: C_5  and  C_6
REMARK    6  A    between atoms: C_6  and  C_7
REMARK    7  A    between atoms: C_7  and  C_8
REMARK    8  A    between atoms: C_8  and  C_9
REMARK    9  A    between atoms: C_9  and  C_10
REMARK   10  A    between atoms: C_10  and  C_11
REMARK   11  A    between atoms: C_11  and  C_12
REMARK   12  A    between atoms: N_16  and  C_17
REMARK   13  A    between atoms: C_26  and  O_27
REMARK                            x       y       z     vdW  Elec       q    Type
REMARK                         _______ _______ _______ _____ _____    ______ ____
ROOT
ATOM      1  C   UNL     1       2.826   3.028 -23.639  0.00  0.00    -0.008 C 
ATOM      2  C   UNL     1       4.090   3.160 -23.363  0.00  0.00    +0.207 C 
ATOM      3  C   UNL     1       4.768   2.144 -22.918  0.00  0.00    +0.115 C 
ATOM      4  C   UNL     1       4.182   0.995 -22.749  0.00  0.00    +0.076 C 
ATOM      5  C   UNL     1       2.918   0.863 -23.024  0.00  0.00    +0.106 C 
ATOM      6  N   UNL     1       6.031   2.276 -22.643  0.00  0.00    -0.242 NA
ATOM      7  O   UNL     1       4.676   4.308 -23.532  0.00  0.00    -0.285 OA
ATOM      8  C   UNL     1       2.241   1.880 -23.469  0.00  0.00    -0.091 C 
ATOM      9  O   UNL     1       0.977   1.748 -23.745  0.00  0.00    -0.826 OA
ENDROOT
BRANCH   6  10
ATOM     10  C   UNL     1       6.617   3.424 -22.812  0.00  0.00    +0.083 A 
ATOM     11  C   UNL     1       7.000   3.789 -23.999  0.00  0.00    +0.030 A 
ATOM     12  C   UNL     1       7.586   4.938 -24.169  0.00  0.00    +0.022 A 
ATOM     13  C   UNL     1       7.789   5.721 -23.151  0.00  0.00    +0.042 A 
ATOM     14  C   UNL     1       7.406   5.355 -21.963  0.00  0.00    +0.042 A 
ATOM     15 CL   UNL     1       8.375   6.868 -23.320  0.00  0.00    -0.083 Cl
ATOM     16  C   UNL     1       6.820   4.207 -21.794  0.00  0.00    +0.068 A 
ATOM     17 CL   UNL     1       6.438   3.842 -20.607  0.00  0.00    -0.081 Cl
ENDBRANCH   6  10
BRANCH   5  18
ATOM     18  O   UNL     1       2.332  -0.284 -22.855  0.00  0.00    -0.508 OA
ATOM     19  H   UNL     1       2.552  -1.008 -23.408  0.00  0.00    +0.292 HD
ENDBRANCH   5  18
BRANCH   1  20
ATOM     20  C   UNL     1       2.149   4.045 -24.084  0.00  0.00    +0.038 C 
BRANCH  20  21
ATOM     21  C   UNL     1       1.481   4.793 -23.257  0.00  0.00    +0.005 C 
BRANCH  21  22
ATOM     22  C   UNL     1       0.238   5.082 -23.500  0.00  0.00    +0.000 C 
BRANCH  22  23
ATOM     23  C   UNL     1      -0.651   4.975 -22.557  0.00  0.00    +0.000 C 
BRANCH  23  24
ATOM     24  C   UNL     1      -1.576   4.065 -22.635  0.00  0.00    +0.000 C 
BRANCH  24  25
ATOM     25  C   UNL     1      -1.656   3.139 -21.727  0.00  0.00    +0.000 C 
BRANCH  25  26
ATOM     26  C   UNL     1      -2.601   3.182 -20.836  0.00  0.00    -0.000 C 
BRANCH  26  27
ATOM     27  C   UNL     1      -3.750   3.715 -21.131  0.00  0.00    -0.000 C 
BRANCH  27  28
ATOM     28  C   UNL     1      -4.732   2.963 -21.531  0.00  0.00    -0.000 C 
BRANCH  28  30
ATOM     29  C   UNL     1      -5.216   3.799 -23.565  0.00  0.00    +0.004 C 
ATOM     30  C   UNL     1      -5.600   3.425 -22.381  0.00  0.00    -0.003 C 
ENDBRANCH  28  30
ENDBRANCH  27  28
ENDBRANCH  26  27
ENDBRANCH  25  26
ENDBRANCH  24  25
ENDBRANCH  23  24
ENDBRANCH  22  23
ENDBRANCH  21  22
ENDBRANCH  20  21
ENDBRANCH   1  20
TORSDOF 12
ENDMDL
