MODEL 1
REMARK VINA RESULT:   -10.924      0.000      0.000
REMARK INTER + INTRA:         -11.671
REMARK INTER:                 -11.523
REMARK INTRA:                  -0.148
REMARK UNBOUND:                -0.108
REMARK  Name = COc1ccc2c3c1O[C@@H]1[C@H](Cl)C=C[C@@H]4[C@H](C2)N(C)CC[C@@]341       ZINC000100393525
REMARK  3 active torsions:
REMARK  status: ('A' for Active; 'I' for Inactive)
REMARK    1  A    between atoms: C_1  and  O_2
REMARK    2  A    between atoms: O_2  and  C_3
REMARK    3  A    between atoms: N_18  and  C_19
REMARK                            x       y       z     vdW  Elec       q    Type
REMARK                         _______ _______ _______ _____ _____    ______ ____
ROOT
ATOM      1  C   UNL     1       0.904   2.250 -23.244  0.00  0.00    +0.162 A 
ATOM      2  C   UNL     1       0.858   1.884 -22.036  0.00  0.00    +0.050 A 
ATOM      3  C   UNL     1      -0.221   1.907 -21.407  0.00  0.00    +0.008 A 
ATOM      4  C   UNL     1      -1.264   2.295 -21.978  0.00  0.00    -0.034 A 
ATOM      5  C   UNL     1      -1.242   2.664 -23.181  0.00  0.00    +0.012 A 
ATOM      6  C   UNL     1      -2.285   3.051 -23.746  0.00  0.00    +0.054 C 
ATOM      7  C   UNL     1      -3.406   3.510 -24.495  0.00  0.00    +0.067 C 
ATOM      8  C   UNL     1      -4.638   3.548 -23.813  0.00  0.00    +0.132 C 
ATOM      9  N   UNL     1      -4.652   3.133 -22.467  0.00  0.00    +0.236 N 
ATOM     10  H   UNL     1      -5.516   3.140 -21.926  0.00  0.00    +0.203 HD
ATOM     11  C   UNL     1      -5.702   3.135 -21.791  0.00  0.00    +0.190 C 
ATOM     12  C   UNL     1      -3.411   2.709 -21.912  0.00  0.00    +0.076 C 
ATOM     13  C   UNL     1      -3.367   3.076 -23.121  0.00  0.00    +0.075 C 
ATOM     14  C   UNL     1      -4.423   3.467 -23.695  0.00  0.00    -0.020 C 
ATOM     15  C   UNL     1      -4.383   3.830 -24.889  0.00  0.00    -0.008 C 
ATOM     16  C   UNL     1      -3.297   3.810 -25.531  0.00  0.00    +0.144 C 
ATOM     17 CL   UNL     1      -3.263   4.173 -26.725  0.00  0.00    -0.113 Cl
ATOM     18  C   UNL     1      -2.254   3.421 -24.959  0.00  0.00    +0.207 C 
ATOM     19  O   UNL     1      -0.772   3.159 -25.081  0.00  0.00    -0.482 OA
ATOM     20  C   UNL     1      -2.368   2.322 -21.343  0.00  0.00    +0.090 C 
ATOM     21  C   UNL     1      -0.154   2.642 -23.818  0.00  0.00    +0.167 A 
ENDROOT
BRANCH   1  23
ATOM     22  C   UNL     1       2.714   3.241 -23.900  0.00  0.00    +0.277 C 
ATOM     23  O   UNL     1       1.986   2.225 -23.869  0.00  0.00    -0.491 OA
ENDBRANCH   1  23
TORSDOF 1
ENDMDL
