MODEL 1
REMARK VINA RESULT:   -10.112      0.000      0.000
REMARK INTER + INTRA:         -10.112
REMARK INTER:                 -10.112
REMARK INTRA:                   0.000
REMARK UNBOUND:                 0.000
REMARK  Name = ZINC000004832997
REMARK  2 active torsions:
REMARK  status: ('A' for Active; 'I' for Inactive)
REMARK    1  A    between atoms: C_8  and  C_9
REMARK    2  A    between atoms: C_13  and  C_14
REMARK                            x       y       z     vdW  Elec       q    Type
REMARK                         _______ _______ _______ _____ _____    ______ ____
ROOT
ATOM      1  C   UNL     1       0.463   1.522 -21.113  0.00  0.00    +0.020 C 
ATOM      2  C   UNL     1       0.150   2.062 -22.253  0.00  0.00    +0.040 C 
ATOM      3  C   UNL     1       0.964   2.290 -23.240  0.00  0.00    +0.336 C 
ATOM      4  O   UNL     1       0.283   2.838 -24.203  0.00  0.00    -0.457 OA
ATOM      5  C   UNL     1      -0.951   2.948 -23.810  0.00  0.00    +0.189 C 
ATOM      6  C   UNL     1      -2.010   3.424 -24.395  0.00  0.00    +0.056 C 
ATOM      7  C   UNL     1      -3.153   3.420 -23.775  0.00  0.00    -0.007 C 
ATOM      8  C   UNL     1      -4.212   3.896 -24.359  0.00  0.00    +0.011 C 
ATOM      9  C   UNL     1      -5.353   3.892 -23.738  0.00  0.00    +0.001 C 
ATOM     10  C   UNL     1      -5.436   3.412 -22.533  0.00  0.00    +0.007 C 
ATOM     11  C   UNL     1      -4.377   2.936 -21.947  0.00  0.00    +0.012 C 
ATOM     12  C   UNL     1      -4.460   2.457 -20.742  0.00  0.00    +0.012 C 
ATOM     13  C   UNL     1      -3.070   3.900 -24.980  0.00  0.00    +0.016 C 
ATOM     14  C   UNL     1      -3.235   2.940 -22.568  0.00  0.00    -0.064 C 
ATOM     15  C   UNL     1      -2.176   2.465 -21.984  0.00  0.00    -0.015 C 
ATOM     16  O   UNL     1       2.235   2.018 -23.261  0.00  0.00    -0.245 OA
ATOM     17  C   UNL     1      -1.034   2.469 -22.605  0.00  0.00    +0.089 C 
ENDROOT
TORSDOF 0
ENDMDL
