MODEL 1
REMARK VINA RESULT:   -11.631      0.000      0.000
REMARK INTER + INTRA:         -12.343
REMARK INTER:                 -12.194
REMARK INTRA:                  -0.149
REMARK UNBOUND:                 0.308
REMARK  Name = COc1ccc2c3c1O[C@]1(C)[C@@H](O)C=C[C@H]4[C@@H](C2)N(C)CC[C@]341       ZINC000100393601
REMARK  5 active torsions:
REMARK  status: ('A' for Active; 'I' for Inactive)
REMARK    1  A    between atoms: C_1  and  O_2
REMARK    2  A    between atoms: O_2  and  C_3
REMARK    3  A    between atoms: C_10  and  C_11
REMARK    4  A    between atoms: C_12  and  O_13
REMARK    5  A    between atoms: N_19  and  C_20
REMARK                            x       y       z     vdW  Elec       q    Type
REMARK                         _______ _______ _______ _____ _____    ______ ____
ROOT
ATOM      1  C   UNL     1       0.441   2.244 -23.339  0.00  0.00    +0.162 A 
ATOM      2  C   UNL     1       0.413   1.878 -22.128  0.00  0.00    +0.050 A 
ATOM      3  C   UNL     1      -0.655   1.922 -21.476  0.00  0.00    +0.008 A 
ATOM      4  C   UNL     1      -1.707   2.331 -22.026  0.00  0.00    -0.034 A 
ATOM      5  C   UNL     1      -1.698   2.699 -23.231  0.00  0.00    +0.012 A 
ATOM      6  C   UNL     1      -2.747   3.106 -23.776  0.00  0.00    +0.058 C 
ATOM      7  C   UNL     1      -3.876   3.586 -24.501  0.00  0.00    +0.067 C 
ATOM      8  C   UNL     1      -5.095   3.646 -23.791  0.00  0.00    +0.132 C 
ATOM      9  N   UNL     1      -5.087   3.231 -22.444  0.00  0.00    +0.236 N 
ATOM     10  H   UNL     1      -5.939   3.253 -21.882  0.00  0.00    +0.203 HD
ATOM     11  C   UNL     1      -6.124   3.253 -21.744  0.00  0.00    +0.190 C 
ATOM     12  C   UNL     1      -3.841   2.784 -21.915  0.00  0.00    +0.076 C 
ATOM     13  C   UNL     1      -3.816   3.150 -23.126  0.00  0.00    +0.075 C 
ATOM     14  C   UNL     1      -4.875   3.562 -23.679  0.00  0.00    -0.019 C 
ATOM     15  C   UNL     1      -4.858   3.926 -24.877  0.00  0.00    +0.004 C 
ATOM     16  C   UNL     1      -3.783   3.884 -25.540  0.00  0.00    +0.181 C 
ATOM     17  C   UNL     1      -2.733   3.477 -24.995  0.00  0.00    +0.148 C 
ATOM     18  C   UNL     1      -2.430   3.770 -26.174  0.00  0.00    +0.060 C 
ATOM     19  O   UNL     1      -1.259   3.186 -25.144  0.00  0.00    -0.478 OA
ATOM     20  C   UNL     1      -2.794   2.376 -21.366  0.00  0.00    +0.090 C 
ATOM     21  C   UNL     1      -0.623   2.656 -23.892  0.00  0.00    +0.167 A 
ENDROOT
BRANCH   1  23
ATOM     22  C   UNL     1       2.175   3.242 -24.176  0.00  0.00    +0.277 C 
ATOM     23  O   UNL     1       1.511   2.198 -23.987  0.00  0.00    -0.491 OA
ENDBRANCH   1  23
BRANCH  16  24
ATOM     24  O   UNL     1      -3.767   4.248 -26.738  0.00  0.00    -0.384 OA
ATOM     25  H   UNL     1      -4.300   3.635 -27.269  0.00  0.00    +0.210 HD
ENDBRANCH  16  24
TORSDOF 2
ENDMDL
