MODEL 1
REMARK VINA RESULT:   -11.108      0.000      0.000
REMARK INTER + INTRA:         -11.757
REMARK INTER:                 -11.757
REMARK INTRA:                   0.000
REMARK UNBOUND:                 0.000
REMARK  Name = ZINC000004946195
REMARK  3 active torsions:
REMARK  status: ('A' for Active; 'I' for Inactive)
REMARK    1  A    between atoms: C_1  and  C_2
REMARK    2  A    between atoms: C_10  and  O_11
REMARK    3  A    between atoms: C_21  and  O_22
REMARK                            x       y       z     vdW  Elec       q    Type
REMARK                         _______ _______ _______ _____ _____    ______ ____
ROOT
ATOM      1  C   UNL     1       2.761   2.340 -24.781  0.00  0.00    +0.014 C 
ATOM      2  C   UNL     1       2.027   2.075 -23.740  0.00  0.00    -0.003 C 
ATOM      3  C   UNL     1       1.389   2.678 -24.699  0.00  0.00    +0.010 C 
ATOM      4  C   UNL     1       0.127   2.961 -24.561  0.00  0.00    +0.009 C 
ATOM      5  C   UNL     1      -0.496   2.641 -23.466  0.00  0.00    +0.023 C 
ATOM      6  C   UNL     1      -1.757   2.923 -23.328  0.00  0.00    -0.039 A 
ATOM      7  C   UNL     1      -2.396   3.527 -24.287  0.00  0.00    +0.023 A 
ATOM      8  C   UNL     1      -3.658   3.810 -24.149  0.00  0.00    +0.061 A 
ATOM      9  C   UNL     1      -4.280   3.489 -23.054  0.00  0.00    +0.145 A 
ATOM     10  C   UNL     1      -3.641   2.885 -22.096  0.00  0.00    +0.064 A 
ATOM     11 BR   UNL     1      -4.264   2.565 -21.001  0.00  0.00    -0.046 Br
ATOM     12 BR   UNL     1      -4.296   4.413 -25.107  0.00  0.00    -0.046 Br
ATOM     13  C   UNL     1      -2.380   2.602 -22.233  0.00  0.00    -0.026 A 
ATOM     14  C   UNL     1      -1.741   1.999 -21.275  0.00  0.00    +0.037 C 
ATOM     15  C   UNL     1      -0.479   1.716 -21.413  0.00  0.00    +0.009 C 
ATOM     16  C   UNL     1       0.143   2.037 -22.508  0.00  0.00    +0.000 C 
ATOM     17  C   UNL     1       3.263   1.687 -23.629  0.00  0.00    +0.121 C 
ATOM     18  C   UNL     1       3.404   1.127 -22.464  0.00  0.00    +0.032 C 
ATOM     19  C   UNL     1       2.255   1.168 -21.857  0.00  0.00    +0.007 C 
ATOM     20  C   UNL     1       1.404   1.754 -22.645  0.00  0.00    +0.001 C 
ENDROOT
BRANCH   9  21
ATOM     21  O   UNL     1      -5.542   3.772 -22.916  0.00  0.00    -0.505 OA
ATOM     22  H   UNL     1      -5.805   4.471 -22.351  0.00  0.00    +0.292 HD
ENDBRANCH   9  21
BRANCH  17  23
ATOM     23  O   UNL     1       4.194   1.834 -24.524  0.00  0.00    -0.391 OA
ATOM     24  H   UNL     1       3.816   1.702 -25.408  0.00  0.00    +0.210 HD
ENDBRANCH  17  23
TORSDOF 2
ENDMDL
