MODEL 1
REMARK VINA RESULT:    -9.269      0.000      0.000
REMARK INTER + INTRA:          -8.200
REMARK INTER:                 -11.035
REMARK INTRA:                   2.835
REMARK UNBOUND:                 2.694
REMARK  Name = COC1=CC=C2[C@H]3Cc4ccc(OC)c(Oc5ccccc5)c4[C@@]2(CCN3C)C1              ZINC000253505528
REMARK  7 active torsions:
REMARK  status: ('A' for Active; 'I' for Inactive)
REMARK    1  A    between atoms: C_1  and  O_2
REMARK    2  A    between atoms: O_2  and  C_3
REMARK    3  A    between atoms: C_12  and  O_13
REMARK    4  A    between atoms: O_13  and  C_14
REMARK    5  A    between atoms: C_15  and  O_16
REMARK    6  A    between atoms: O_16  and  C_17
REMARK    7  A    between atoms: N_27  and  C_28
REMARK                            x       y       z     vdW  Elec       q    Type
REMARK                         _______ _______ _______ _____ _____    ______ ____
ROOT
ATOM      1  C   UNL     1      -2.943   2.858 -22.157  0.00  0.00    +0.098 C 
ATOM      2  C   UNL     1      -3.976   3.024 -22.598  0.00  0.00    +0.041 C 
ATOM      3  C   UNL     1      -4.053   3.218 -23.598  0.00  0.00    +0.009 C 
ATOM      4  C   UNL     1      -2.807   3.296 -24.548  0.00  0.00    -0.011 C 
ATOM      5  C   UNL     1      -3.479   3.459 -25.131  0.00  0.00    +0.096 C 
ATOM      6  C   UNL     1      -4.160   3.376 -24.393  0.00  0.00    +0.094 C 
ATOM      7  C   UNL     1      -3.245   3.065 -23.132  0.00  0.00    -0.034 A 
ATOM      8  C   UNL     1      -3.350   2.769 -21.507  0.00  0.00    +0.008 A 
ATOM      9  C   UNL     1      -2.260   2.553 -20.825  0.00  0.00    +0.050 A 
ATOM     10  C   UNL     1      -1.079   2.569 -21.419  0.00  0.00    +0.162 A 
ATOM     11  C   UNL     1      -0.965   2.802 -22.711  0.00  0.00    +0.174 A 
ATOM     12  C   UNL     1      -2.080   3.040 -23.497  0.00  0.00    +0.013 A 
ATOM     13  N   UNL     1      -3.049   3.653 -26.351  0.00  0.00    +0.239 N 
ATOM     14  H   UNL     1      -4.065   3.744 -26.398  0.00  0.00    +0.204 HD
ATOM     15  C   UNL     1      -3.741   3.899 -27.362  0.00  0.00    +0.191 C 
ATOM     16  C   UNL     1      -1.707   3.575 -26.512  0.00  0.00    +0.133 C 
ATOM     17  C   UNL     1      -1.014   3.314 -25.419  0.00  0.00    +0.067 C 
ATOM     18  C   UNL     1      -1.716   3.176 -24.378  0.00  0.00    +0.038 C 
ATOM     19  C   UNL     1      -1.701   2.897 -22.901  0.00  0.00    +0.090 C 
ENDROOT
BRANCH   1  21
ATOM     20  C   UNL     1      -6.263   3.023 -21.957  0.00  0.00    +0.276 C 
ATOM     21  O   UNL     1      -5.094   3.026 -22.126  0.00  0.00    -0.499 OA
ENDBRANCH   1  21
BRANCH  10  22
ATOM     22  O   UNL     1       0.094   2.355 -20.778  0.00  0.00    -0.491 OA
ATOM     23  C   UNL     1       0.571   1.196 -20.535  0.00  0.00    +0.277 C 
ENDBRANCH  10  22
BRANCH  11  24
ATOM     24  O   UNL     1       0.109   2.822 -23.274  0.00  0.00    -0.452 OA
BRANCH  24  25
ATOM     25  C   UNL     1       1.113   2.703 -23.584  0.00  0.00    +0.129 A 
ATOM     26  C   UNL     1       1.527   3.864 -23.223  0.00  0.00    +0.046 A 
ATOM     27  C   UNL     1       2.752   4.197 -23.408  0.00  0.00    +0.004 A 
ATOM     28  C   UNL     1       3.567   3.367 -23.956  0.00  0.00    +0.000 A 
ATOM     29  C   UNL     1       3.159   2.204 -24.320  0.00  0.00    +0.004 A 
ATOM     30  C   UNL     1       1.930   1.874 -24.133  0.00  0.00    +0.046 A 
ENDBRANCH  24  25
ENDBRANCH  11  24
TORSDOF 4
ENDMDL
