MODEL 1
REMARK VINA RESULT:    -8.685      0.000      0.000
REMARK INTER + INTRA:         -11.455
REMARK INTER:                 -10.655
REMARK INTRA:                  -0.800
REMARK UNBOUND:                -0.231
REMARK  Name = ZINC000000338303
REMARK  8 active torsions:
REMARK  status: ('A' for Active; 'I' for Inactive)
REMARK    1  A    between atoms: C_1  and  O_2
REMARK    2  A    between atoms: O_2  and  C_3
REMARK    3  A    between atoms: C_6  and  C_7
REMARK    4  A    between atoms: C_7  and  C_8
REMARK    5  A    between atoms: C_7  and  C_9
REMARK    6  A    between atoms: C_9  and  C_11
REMARK    7  A    between atoms: C_14  and  O_15
REMARK    8  A    between atoms: C_17  and  O_18
REMARK                            x       y       z     vdW  Elec       q    Type
REMARK                         _______ _______ _______ _____ _____    ______ ____
ROOT
ATOM      1  C   UNL     1      -1.714   3.720 -24.454  0.00  0.00    +0.174 C 
ATOM      2  O   UNL     1      -1.590   3.361 -25.697  0.00  0.00    -0.291 OA
ENDROOT
BRANCH   1   3
ATOM      3  C   UNL     1      -2.871   3.640 -23.867  0.00  0.00    +0.060 A 
ATOM      4  C   UNL     1      -2.989   2.986 -22.749  0.00  0.00    +0.018 A 
ATOM      5  C   UNL     1      -4.147   2.906 -22.162  0.00  0.00    +0.046 A 
ATOM      6  C   UNL     1      -5.186   3.480 -22.693  0.00  0.00    +0.120 A 
ATOM      7  C   UNL     1      -5.067   4.133 -23.811  0.00  0.00    +0.091 A 
ATOM      8  C   UNL     1      -3.910   4.213 -24.397  0.00  0.00    +0.131 A 
BRANCH   6   9
ATOM      9  O   UNL     1      -6.342   3.399 -22.106  0.00  0.00    -0.507 OA
ATOM     10  H   UNL     1      -6.417   2.979 -21.272  0.00  0.00    +0.292 HD
ENDBRANCH   6   9
BRANCH   8  11
ATOM     11  O   UNL     1      -3.792   4.867 -25.515  0.00  0.00    -0.506 OA
ATOM     12  H   UNL     1      -3.671   4.401 -26.319  0.00  0.00    +0.292 HD
ENDBRANCH   8  11
ENDBRANCH   1   3
BRANCH   1  13
ATOM     13  C   UNL     1      -0.681   4.158 -23.798  0.00  0.00    +0.087 C 
ATOM     14  C   UNL     1      -0.708   5.340 -23.257  0.00  0.00    +0.021 C 
BRANCH  13  18
ATOM     15  C   UNL     1       2.501   1.928 -23.452  0.00  0.00    +0.120 A 
ATOM     16  C   UNL     1       2.446   2.846 -24.372  0.00  0.00    +0.046 A 
ATOM     17  C   UNL     1       1.386   3.589 -24.487  0.00  0.00    +0.008 A 
ATOM     18  C   UNL     1       0.379   3.415 -23.682  0.00  0.00    -0.037 A 
ATOM     19  C   UNL     1       0.434   2.498 -22.763  0.00  0.00    +0.008 A 
ATOM     20  C   UNL     1       1.494   1.755 -22.647  0.00  0.00    +0.046 A 
BRANCH  15  22
ATOM     21  C   UNL     1       3.913   0.733 -22.170  0.00  0.00    +0.277 C 
ATOM     22  O   UNL     1       3.560   1.185 -23.337  0.00  0.00    -0.495 OA
ENDBRANCH  15  22
ENDBRANCH  13  18
ENDBRANCH   1  13
TORSDOF 6
ENDMDL
