MODEL 1
REMARK VINA RESULT:   -10.728      0.000      0.000
REMARK INTER + INTRA:         -12.132
REMARK INTER:                 -11.981
REMARK INTRA:                  -0.151
REMARK UNBOUND:                -0.150
REMARK  Name = COc1ccc2c3c1O[C@@H]1C(=O)C=C[C@]4(O)[C@H](C2)N(C)CC[C@]314           ZINC000100393504
REMARK  4 active torsions:
REMARK  status: ('A' for Active; 'I' for Inactive)
REMARK    1  A    between atoms: C_1  and  O_2
REMARK    2  A    between atoms: O_2  and  C_3
REMARK    3  A    between atoms: C_15  and  O_16
REMARK    4  A    between atoms: N_19  and  C_20
REMARK                            x       y       z     vdW  Elec       q    Type
REMARK                         _______ _______ _______ _____ _____    ______ ____
ROOT
ATOM      1  C   UNL     1       0.527   2.565 -23.227  0.00  0.00    +0.162 A 
ATOM      2  C   UNL     1       0.510   2.012 -22.089  0.00  0.00    +0.050 A 
ATOM      3  C   UNL     1      -0.564   1.894 -21.457  0.00  0.00    +0.008 A 
ATOM      4  C   UNL     1      -1.629   2.326 -21.951  0.00  0.00    -0.034 A 
ATOM      5  C   UNL     1      -1.635   2.882 -23.085  0.00  0.00    +0.015 A 
ATOM      6  C   UNL     1      -2.700   3.312 -23.576  0.00  0.00    +0.086 C 
ATOM      7  C   UNL     1      -3.849   3.840 -24.235  0.00  0.00    +0.070 C 
ATOM      8  C   UNL     1      -5.074   3.722 -23.546  0.00  0.00    +0.132 C 
ATOM      9  N   UNL     1      -5.057   3.101 -22.283  0.00  0.00    +0.238 N 
ATOM     10  H   UNL     1      -5.923   2.996 -21.753  0.00  0.00    +0.203 HD
ATOM     11  C   UNL     1      -6.101   2.957 -21.608  0.00  0.00    +0.191 C 
ATOM     12  C   UNL     1      -3.793   2.642 -21.807  0.00  0.00    +0.106 C 
ATOM     13  C   UNL     1      -3.769   3.194 -22.944  0.00  0.00    +0.141 C 
ATOM     14  C   UNL     1      -4.853   3.628 -23.435  0.00  0.00    +0.017 C 
ATOM     15  C   UNL     1      -4.849   4.178 -24.562  0.00  0.00    +0.049 C 
ATOM     16  C   UNL     1      -3.770   4.303 -25.211  0.00  0.00    +0.197 C 
ATOM     17  O   UNL     1      -3.769   4.853 -26.335  0.00  0.00    -0.289 OA
ATOM     18  C   UNL     1      -2.699   3.871 -24.719  0.00  0.00    +0.257 C 
ATOM     19  O   UNL     1      -1.208   3.688 -24.889  0.00  0.00    -0.476 OA
ATOM     20  C   UNL     1      -2.728   2.211 -21.314  0.00  0.00    +0.093 C 
ATOM     21  C   UNL     1      -0.553   3.002 -23.726  0.00  0.00    +0.167 A 
ENDROOT
BRANCH   1  23
ATOM     22  C   UNL     1       2.225   3.766 -23.841  0.00  0.00    +0.277 C 
ATOM     23  O   UNL     1       1.602   2.680 -23.855  0.00  0.00    -0.491 OA
ENDBRANCH   1  23
BRANCH  13  24
ATOM     24  O   UNL     1      -2.707   2.761 -22.445  0.00  0.00    -0.378 OA
ATOM     25  H   UNL     1      -2.384   2.014 -22.974  0.00  0.00    +0.211 HD
ENDBRANCH  13  24
TORSDOF 2
ENDMDL
