MODEL 1
REMARK VINA RESULT:   -10.196      0.000      0.000
REMARK INTER + INTRA:         -11.835
REMARK INTER:                 -11.594
REMARK INTRA:                  -0.241
REMARK UNBOUND:                -0.149
REMARK  Name = COC1=C[C@]23CCN(C)[C@@H](Cc4ccc(OC)c(O)c42)C3=CC1                    ZINC000100393719
REMARK  6 active torsions:
REMARK  status: ('A' for Active; 'I' for Inactive)
REMARK    1  A    between atoms: C_1  and  O_2
REMARK    2  A    between atoms: O_2  and  C_3
REMARK    3  A    between atoms: N_8  and  C_9
REMARK    4  A    between atoms: C_15  and  O_16
REMARK    5  A    between atoms: O_16  and  C_17
REMARK    6  A    between atoms: C_18  and  O_19
REMARK                            x       y       z     vdW  Elec       q    Type
REMARK                         _______ _______ _______ _____ _____    ______ ____
ROOT
ATOM      1  C   UNL     1      -4.038   3.914 -25.421  0.00  0.00    +0.098 C 
ATOM      2  C   UNL     1      -2.918   3.471 -24.936  0.00  0.00    +0.030 C 
ATOM      3  C   UNL     1      -2.830   3.179 -23.709  0.00  0.00    +0.052 C 
ATOM      4  C   UNL     1      -2.040   2.850 -23.290  0.00  0.00    +0.071 C 
ATOM      5  C   UNL     1      -2.053   2.596 -22.094  0.00  0.00    +0.133 C 
ATOM      6  N   UNL     1      -2.967   2.709 -21.343  0.00  0.00    +0.239 N 
ATOM      7  H   UNL     1      -2.029   2.377 -21.115  0.00  0.00    +0.204 HD
ATOM      8  C   UNL     1      -3.760   2.998 -21.570  0.00  0.00    +0.096 C 
ATOM      9  C   UNL     1      -2.395   2.437 -20.882  0.00  0.00    +0.094 C 
ATOM     10  C   UNL     1      -1.412   2.289 -21.572  0.00  0.00    -0.034 A 
ATOM     11  C   UNL     1      -0.306   1.852 -21.095  0.00  0.00    +0.008 A 
ATOM     12  C   UNL     1       0.722   1.710 -21.873  0.00  0.00    +0.050 A 
ATOM     13  C   UNL     1       0.640   2.007 -23.129  0.00  0.00    +0.162 A 
ATOM     14  C   UNL     1      -0.465   2.444 -23.609  0.00  0.00    +0.163 A 
ATOM     15  C   UNL     1      -4.093   2.821 -20.287  0.00  0.00    +0.191 C 
ATOM     16  C   UNL     1      -3.977   3.342 -22.862  0.00  0.00    -0.011 C 
ATOM     17  C   UNL     1      -5.052   3.777 -23.370  0.00  0.00    -0.013 C 
ATOM     18  C   UNL     1      -1.493   2.588 -22.841  0.00  0.00    +0.015 A 
ATOM     19  C   UNL     1      -5.096   4.065 -24.645  0.00  0.00    +0.100 C 
ENDROOT
BRANCH   1  21
ATOM     20  C   UNL     1      -3.238   3.528 -27.566  0.00  0.00    +0.276 C 
ATOM     21  O   UNL     1      -3.906   4.158 -26.734  0.00  0.00    -0.499 OA
ENDBRANCH   1  21
BRANCH  14  22
ATOM     22  O   UNL     1      -0.566   2.746 -24.869  0.00  0.00    -0.503 OA
ATOM     23  H   UNL     1      -1.167   3.410 -25.145  0.00  0.00    +0.292 HD
ENDBRANCH  14  22
BRANCH  13  24
ATOM     24  O   UNL     1       1.579   1.933 -24.100  0.00  0.00    -0.491 OA
ATOM     25  C   UNL     1       2.803   1.754 -23.978  0.00  0.00    +0.277 C 
ENDBRANCH  13  24
TORSDOF 3
ENDMDL
