MODEL 1
REMARK VINA RESULT:    -9.632      0.000      0.000
REMARK INTER + INTRA:         -10.891
REMARK INTER:                 -11.427
REMARK INTRA:                   0.536
REMARK UNBOUND:                 0.993
REMARK  Name = ZINC000001630835
REMARK  9 active torsions:
REMARK  status: ('A' for Active; 'I' for Inactive)
REMARK    1  A    between atoms: C_1  and  C_2
REMARK    2  A    between atoms: C_2  and  C_3
REMARK    3  A    between atoms: C_4  and  C_5
REMARK    4  A    between atoms: C_5  and  C_6
REMARK    5  A    between atoms: C_6  and  C_7
REMARK    6  A    between atoms: C_8  and  C_9
REMARK    7  A    between atoms: C_18  and  C_19
REMARK    8  A    between atoms: C_19  and  C_20
REMARK    9  A    between atoms: C_19  and  C_21
REMARK                            x       y       z     vdW  Elec       q    Type
REMARK                         _______ _______ _______ _____ _____    ______ ____
ROOT
ATOM      1  C   UNL     1      -0.048   2.728 -23.556  0.00  0.00    -0.033 A 
ATOM      2  C   UNL     1      -0.204   3.501 -24.591  0.00  0.00    -0.047 A 
ATOM      3  C   UNL     1       0.832   4.048 -25.155  0.00  0.00    +0.004 A 
ATOM      4  C   UNL     1       2.023   3.822 -24.685  0.00  0.00    +0.009 A 
ATOM      5  C   UNL     1       2.179   3.049 -23.652  0.00  0.00    -0.013 A 
ATOM      6  C   UNL     1       3.369   2.823 -23.183  0.00  0.00    +0.016 C 
ATOM      7  C   UNL     1       3.525   2.050 -22.149  0.00  0.00    +0.006 C 
ATOM      8  C   UNL     1       2.490   1.503 -21.584  0.00  0.00    +0.229 C 
ATOM      9  O   UNL     1       2.645   0.730 -20.551  0.00  0.00    -0.284 OA
ATOM     10  C   UNL     1       1.298   1.729 -22.054  0.00  0.00    +0.233 C 
ATOM     11  O   UNL     1       0.263   1.183 -21.489  0.00  0.00    -0.283 OA
ATOM     12  C   UNL     1      -1.394   3.727 -25.060  0.00  0.00    +0.044 C 
ATOM     13  C   UNL     1       1.143   2.502 -23.087  0.00  0.00    +0.036 A 
ENDROOT
BRANCH   7  14
ATOM     14  C   UNL     1       4.716   1.824 -21.679  0.00  0.00    +0.017 C 
ATOM     15  C   UNL     1       5.354   0.744 -22.019  0.00  0.00    +0.012 C 
ATOM     16  C   UNL     1       5.269   2.678 -20.870  0.00  0.00    +0.012 C 
ENDBRANCH   7  14
BRANCH   1  17
ATOM     17  C   UNL     1      -1.083   2.181 -22.992  0.00  0.00    +0.040 C 
BRANCH  17  18
ATOM     18  C   UNL     1      -1.891   2.906 -22.275  0.00  0.00    +0.032 C 
BRANCH  18  21
ATOM     19  C   UNL     1      -5.238   2.946 -21.486  0.00  0.00    +0.038 C 
ATOM     20  C   UNL     1      -3.954   3.127 -21.400  0.00  0.00    -0.080 C 
ATOM     21  C   UNL     1      -3.175   2.725 -22.361  0.00  0.00    -0.028 C 
ATOM     22  C   UNL     1      -3.448   3.708 -20.354  0.00  0.00    +0.038 C 
ENDBRANCH  18  21
ENDBRANCH  17  18
ENDBRANCH   1  17
TORSDOF 4
ENDMDL
