MODEL 1
REMARK VINA RESULT:   -10.480      0.000      0.000
REMARK INTER + INTRA:          -9.489
REMARK INTER:                 -11.811
REMARK INTRA:                   2.322
REMARK UNBOUND:                 2.216
REMARK  Name = COC1=CC=C2[C@H]3Cc4ccc(OC)c5c4[C@]2(CCN3C)[C@@]1(C)O5                ZINC000100393542
REMARK  6 active torsions:
REMARK  status: ('A' for Active; 'I' for Inactive)
REMARK    1  A    between atoms: C_1  and  O_2
REMARK    2  A    between atoms: O_2  and  C_3
REMARK    3  A    between atoms: C_12  and  O_13
REMARK    4  A    between atoms: O_13  and  C_14
REMARK    5  A    between atoms: N_20  and  C_21
REMARK    6  A    between atoms: C_22  and  C_23
REMARK                            x       y       z     vdW  Elec       q    Type
REMARK                         _______ _______ _______ _____ _____    ______ ____
ROOT
ATOM      1  C   UNL     1      -2.730   3.615 -25.357  0.00  0.00    +0.142 C 
ATOM      2  C   UNL     1      -3.867   3.723 -24.810  0.00  0.00    +0.045 C 
ATOM      3  C   UNL     1      -4.023   3.405 -23.608  0.00  0.00    +0.009 C 
ATOM      4  C   UNL     1      -3.041   2.974 -22.933  0.00  0.00    -0.007 C 
ATOM      5  C   UNL     1      -3.207   2.654 -21.718  0.00  0.00    +0.096 C 
ATOM      6  C   UNL     1      -2.237   2.228 -21.049  0.00  0.00    +0.094 C 
ATOM      7  C   UNL     1      -1.089   2.116 -21.590  0.00  0.00    -0.034 A 
ATOM      8  C   UNL     1      -0.117   1.688 -20.921  0.00  0.00    +0.008 A 
ATOM      9  C   UNL     1       1.011   1.579 -21.457  0.00  0.00    +0.050 A 
ATOM     10  C   UNL     1       1.179   1.898 -22.672  0.00  0.00    +0.162 A 
ATOM     11  C   UNL     1       0.195   2.330 -23.347  0.00  0.00    +0.168 A 
ATOM     12  O   UNL     1      -0.288   2.837 -24.677  0.00  0.00    -0.473 OA
ATOM     13  C   UNL     1      -0.942   2.438 -22.802  0.00  0.00    +0.016 A 
ATOM     14  N   UNL     1      -4.374   3.129 -22.389  0.00  0.00    +0.239 N 
ATOM     15  H   UNL     1      -5.279   3.206 -21.925  0.00  0.00    +0.204 HD
ATOM     16  C   UNL     1      -5.477   3.217 -21.802  0.00  0.00    +0.191 C 
ATOM     17  C   UNL     1      -4.226   3.494 -23.745  0.00  0.00    +0.133 C 
ATOM     18  C   UNL     1      -2.942   3.361 -24.322  0.00  0.00    +0.071 C 
ATOM     19  C   UNL     1      -1.913   2.865 -23.467  0.00  0.00    +0.077 C 
ATOM     20  C   UNL     1      -1.759   3.189 -24.691  0.00  0.00    +0.178 C 
ATOM     21  C   UNL     1      -1.324   3.426 -25.843  0.00  0.00    +0.065 C 
ENDROOT
BRANCH   1  23
ATOM     22  C   UNL     1      -3.383   3.520 -27.425  0.00  0.00    +0.276 C 
ATOM     23  O   UNL     1      -2.578   3.934 -26.560  0.00  0.00    -0.495 OA
ENDBRANCH   1  23
BRANCH  10  24
ATOM     24  O   UNL     1       2.308   1.788 -23.204  0.00  0.00    -0.491 OA
ATOM     25  C   UNL     1       2.992   0.755 -23.017  0.00  0.00    +0.277 C 
ENDBRANCH  10  24
TORSDOF 2
ENDMDL
