MODEL 1
REMARK VINA RESULT:    -7.261      0.000      0.000
REMARK INTER + INTRA:          -8.796
REMARK INTER:                  -8.510
REMARK INTRA:                  -0.285
REMARK UNBOUND:                -0.262
REMARK  Name = ZINC000014684899
REMARK  6 active torsions:
REMARK  status: ('A' for Active; 'I' for Inactive)
REMARK    1  A    between atoms: C_1  and  O_2
REMARK    2  A    between atoms: O_2  and  C_3
REMARK    3  A    between atoms: C_5  and  O_6
REMARK    4  A    between atoms: O_6  and  C_7
REMARK    5  A    between atoms: C_13  and  O_14
REMARK    6  A    between atoms: O_14  and  C_15
REMARK                            x       y       z     vdW  Elec       q    Type
REMARK                         _______ _______ _______ _____ _____    ______ ____
ROOT
ATOM      1  C   UNL     1      -0.516   2.132 -22.221  0.00  0.00    +0.124 A 
ATOM      2  C   UNL     1       0.052   2.616 -23.285  0.00  0.00    +0.093 A 
ATOM      3  C   UNL     1      -0.654   3.272 -24.157  0.00  0.00    +0.148 A 
ATOM      4  C   UNL     1      -1.928   3.444 -23.965  0.00  0.00    +0.095 A 
ATOM      5  N   UNL     1      -2.635   4.100 -24.838  0.00  0.00    -0.319 N 
ATOM      6  H   UNL     1      -2.204   4.467 -25.643  0.00  0.00    +0.169 HD
ATOM      7  C   UNL     1      -3.908   4.272 -24.646  0.00  0.00    +0.253 A 
ATOM      8  C   UNL     1      -4.477   3.788 -23.582  0.00  0.00    +0.116 A 
ATOM      9  C   UNL     1      -3.771   3.132 -22.709  0.00  0.00    +0.135 A 
ATOM     10  O   UNL     1      -4.614   4.928 -25.518  0.00  0.00    -0.268 OA
ATOM     11  C   UNL     1      -2.497   2.960 -22.901  0.00  0.00    +0.047 A 
ATOM     12  C   UNL     1      -1.790   2.303 -22.029  0.00  0.00    +0.059 A 
ENDROOT
BRANCH   1  14
ATOM     13  C   UNL     1       1.487   1.484 -21.423  0.00  0.00    +0.277 C 
ATOM     14  O   UNL     1       0.189   1.476 -21.348  0.00  0.00    -0.495 OA
ENDBRANCH   1  14
BRANCH   9  15
ATOM     15  O   UNL     1      -4.339   2.647 -21.645  0.00  0.00    -0.494 OA
ATOM     16  C   UNL     1      -5.633   2.679 -21.527  0.00  0.00    +0.277 C 
ENDBRANCH   9  15
BRANCH   3  17
ATOM     17  O   UNL     1      -0.086   3.757 -25.221  0.00  0.00    -0.493 OA
ATOM     18  C   UNL     1       1.161   4.125 -25.183  0.00  0.00    +0.277 C 
ENDBRANCH   3  17
TORSDOF 3
ENDMDL
