MODEL 1
REMARK VINA RESULT:   -11.040      0.000      0.000
REMARK INTER + INTRA:         -12.009
REMARK INTER:                 -11.900
REMARK INTRA:                  -0.109
REMARK UNBOUND:                -0.001
REMARK  Name = ZINC000096316346
REMARK  4 active torsions:
REMARK  status: ('A' for Active; 'I' for Inactive)
REMARK    1  A    between atoms: C_1  and  O_2
REMARK    2  A    between atoms: O_2  and  C_3
REMARK    3  A    between atoms: C_11  and  O_12
REMARK    4  A    between atoms: N_19  and  C_20
REMARK                            x       y       z     vdW  Elec       q    Type
REMARK                         _______ _______ _______ _____ _____    ______ ____
ROOT
ATOM      1  C   UNL     1       1.246   1.756 -22.190  0.00  0.00    +0.162 A 
ATOM      2  C   UNL     1       1.792   2.119 -23.271  0.00  0.00    +0.050 A 
ATOM      3  C   UNL     1       1.120   2.676 -24.168  0.00  0.00    +0.008 A 
ATOM      4  C   UNL     1      -0.104   2.875 -23.992  0.00  0.00    -0.034 A 
ATOM      5  C   UNL     1      -0.669   2.523 -22.924  0.00  0.00    +0.015 A 
ATOM      6  C   UNL     1      -1.892   2.725 -22.755  0.00  0.00    +0.070 C 
ATOM      7  C   UNL     1      -3.273   2.900 -22.447  0.00  0.00    +0.071 C 
ATOM      8  C   UNL     1      -4.058   3.526 -23.439  0.00  0.00    +0.133 C 
ATOM      9  N   UNL     1      -3.414   3.918 -24.632  0.00  0.00    +0.239 N 
ATOM     10  H   UNL     1      -3.935   4.374 -25.380  0.00  0.00    +0.204 HD
ATOM     11  C   UNL     1      -4.037   4.478 -25.560  0.00  0.00    +0.191 C 
ATOM     12  C   UNL     1      -2.018   3.644 -24.729  0.00  0.00    +0.096 C 
ATOM     13  C   UNL     1      -2.568   3.282 -23.649  0.00  0.00    -0.010 C 
ATOM     14  C   UNL     1      -3.804   3.484 -23.474  0.00  0.00    +0.000 C 
ATOM     15  C   UNL     1      -4.354   3.128 -22.406  0.00  0.00    +0.135 C 
ATOM     16 CL   UNL     1      -5.577   3.330 -22.238  0.00  0.00    -0.115 Cl
ATOM     17  C   UNL     1      -3.677   2.564 -21.498  0.00  0.00    +0.178 C 
ATOM     18  C   UNL     1      -2.454   2.363 -21.668  0.00  0.00    +0.219 C 
ATOM     19  O   UNL     1      -1.169   1.814 -21.099  0.00  0.00    -0.481 OA
ATOM     20  C   UNL     1      -0.795   3.444 -24.903  0.00  0.00    +0.094 C 
ATOM     21  C   UNL     1       0.007   1.960 -22.018  0.00  0.00    +0.167 A 
ENDROOT
BRANCH   1  23
ATOM     22  C   UNL     1       3.058   0.746 -21.562  0.00  0.00    +0.277 C 
ATOM     23  O   UNL     1       1.922   1.199 -21.297  0.00  0.00    -0.491 OA
ENDBRANCH   1  23
BRANCH  17  24
ATOM     24  O   UNL     1      -4.229   2.209 -20.431  0.00  0.00    -0.386 OA
ATOM     25  H   UNL     1      -3.598   2.289 -19.699  0.00  0.00    +0.210 HD
ENDBRANCH  17  24
TORSDOF 2
ENDMDL
