MODEL 1
REMARK VINA RESULT:    -9.976      0.000      0.000
REMARK INTER + INTRA:         -11.286
REMARK INTER:                 -11.230
REMARK INTRA:                  -0.056
REMARK UNBOUND:                -0.144
REMARK  Name = ZINC000019632726
REMARK  5 active torsions:
REMARK  status: ('A' for Active; 'I' for Inactive)
REMARK    1  A    between atoms: C_1  and  O_2
REMARK    2  A    between atoms: O_2  and  C_3
REMARK    3  A    between atoms: C_8  and  O_9
REMARK    4  A    between atoms: O_9  and  C_10
REMARK    5  A    between atoms: N_21  and  C_22
REMARK                            x       y       z     vdW  Elec       q    Type
REMARK                         _______ _______ _______ _____ _____    ______ ____
ROOT
ATOM      1  C   UNL     1       4.785   1.893 -22.477  0.00  0.00    +0.162 A 
ATOM      2  C   UNL     1       4.022   2.428 -23.383  0.00  0.00    +0.054 A 
ATOM      3  C   UNL     1       2.739   2.505 -23.188  0.00  0.00    -0.028 A 
ATOM      4  C   UNL     1       2.219   2.046 -22.088  0.00  0.00    +0.025 A 
ATOM      5  C   UNL     1       0.936   2.123 -21.894  0.00  0.00    +0.168 C 
ATOM      6  C   UNL     1       0.172   2.659 -22.800  0.00  0.00    +0.115 C 
ATOM      7  C   UNL     1      -1.111   2.735 -22.605  0.00  0.00    -0.028 A 
ATOM      8  C   UNL     1      -1.630   2.276 -21.505  0.00  0.00    +0.008 A 
ATOM      9  C   UNL     1      -2.913   2.353 -21.311  0.00  0.00    +0.050 A 
ATOM     10  C   UNL     1      -3.677   2.889 -22.216  0.00  0.00    +0.167 A 
ATOM     11  C   UNL     1      -3.158   3.348 -23.316  0.00  0.00    +0.175 A 
ATOM     12  O   UNL     1      -4.121   3.826 -24.046  0.00  0.00    -0.452 OA
ATOM     13  C   UNL     1      -5.236   3.662 -23.398  0.00  0.00    +0.466 C 
ATOM     14  O   UNL     1      -4.961   3.083 -22.266  0.00  0.00    -0.453 OA
ATOM     15  C   UNL     1      -1.875   3.271 -23.510  0.00  0.00    +0.046 A 
ATOM     16  C   UNL     1      -1.355   3.729 -24.610  0.00  0.00    +0.171 C 
ATOM     17  N   UNL     1      -0.072   3.653 -24.805  0.00  0.00    +0.237 N 
ATOM     18  H   UNL     1       0.886   3.407 -24.556  0.00  0.00    +0.203 HD
ATOM     19  C   UNL     1       0.691   3.117 -23.899  0.00  0.00    +0.136 C 
ATOM     20  C   UNL     1       0.447   4.112 -25.905  0.00  0.00    +0.191 C 
ATOM     21  O   UNL     1       0.416   1.664 -20.794  0.00  0.00    -0.292 OA
ATOM     22  C   UNL     1       2.983   1.510 -21.183  0.00  0.00    +0.061 A 
ATOM     23  C   UNL     1       1.974   3.040 -24.094  0.00  0.00    +0.087 C 
ATOM     24  C   UNL     1       4.266   1.434 -21.378  0.00  0.00    +0.162 A 
ENDROOT
BRANCH   1  26
ATOM     25  C   UNL     1       6.763   2.899 -22.861  0.00  0.00    +0.277 C 
ATOM     26  O   UNL     1       6.068   1.816 -22.672  0.00  0.00    -0.491 OA
ENDBRANCH   1  26
BRANCH  24  27
ATOM     27  O   UNL     1       5.030   0.898 -20.472  0.00  0.00    -0.491 OA
ATOM     28  C   UNL     1       5.308  -0.371 -20.524  0.00  0.00    +0.277 C 
ENDBRANCH  24  27
TORSDOF 2
ENDMDL
