MODEL 1
REMARK VINA RESULT:   -10.740      0.000      0.000
REMARK INTER + INTRA:         -12.119
REMARK INTER:                 -11.977
REMARK INTRA:                  -0.141
REMARK UNBOUND:                -0.123
REMARK  Name = ZINC000002040402
REMARK  4 active torsions:
REMARK  status: ('A' for Active; 'I' for Inactive)
REMARK    1  A    between atoms: C_1  and  O_2
REMARK    2  A    between atoms: O_2  and  C_3
REMARK    3  A    between atoms: C_15  and  O_16
REMARK    4  A    between atoms: N_19  and  C_20
REMARK                            x       y       z     vdW  Elec       q    Type
REMARK                         _______ _______ _______ _____ _____    ______ ____
ROOT
ATOM      1  C   UNL     1       0.520   2.559 -23.222  0.00  0.00    +0.162 A 
ATOM      2  C   UNL     1       0.501   2.007 -22.083  0.00  0.00    +0.050 A 
ATOM      3  C   UNL     1      -0.573   1.893 -21.452  0.00  0.00    +0.008 A 
ATOM      4  C   UNL     1      -1.637   2.327 -21.947  0.00  0.00    -0.034 A 
ATOM      5  C   UNL     1      -1.641   2.881 -23.081  0.00  0.00    +0.015 A 
ATOM      6  C   UNL     1      -2.705   3.314 -23.574  0.00  0.00    +0.086 C 
ATOM      7  C   UNL     1      -3.853   3.844 -24.234  0.00  0.00    +0.070 C 
ATOM      8  C   UNL     1      -5.078   3.729 -23.546  0.00  0.00    +0.132 C 
ATOM      9  N   UNL     1      -5.063   3.110 -22.282  0.00  0.00    +0.238 N 
ATOM     10  H   UNL     1      -5.929   3.008 -21.753  0.00  0.00    +0.203 HD
ATOM     11  C   UNL     1      -6.107   2.969 -21.607  0.00  0.00    +0.191 C 
ATOM     12  C   UNL     1      -3.801   2.649 -21.805  0.00  0.00    +0.106 C 
ATOM     13  C   UNL     1      -3.775   3.199 -22.942  0.00  0.00    +0.141 C 
ATOM     14  C   UNL     1      -4.857   3.635 -23.435  0.00  0.00    +0.017 C 
ATOM     15  C   UNL     1      -4.851   4.184 -24.562  0.00  0.00    +0.049 C 
ATOM     16  C   UNL     1      -3.771   4.305 -25.211  0.00  0.00    +0.197 C 
ATOM     17  O   UNL     1      -3.769   4.854 -26.336  0.00  0.00    -0.289 OA
ATOM     18  C   UNL     1      -2.702   3.871 -24.717  0.00  0.00    +0.257 C 
ATOM     19  O   UNL     1      -1.211   3.684 -24.886  0.00  0.00    -0.476 OA
ATOM     20  C   UNL     1      -2.737   2.215 -21.311  0.00  0.00    +0.093 C 
ATOM     21  C   UNL     1      -0.559   2.998 -23.722  0.00  0.00    +0.167 A 
ENDROOT
BRANCH   1  23
ATOM     22  C   UNL     1       2.434   3.538 -23.512  0.00  0.00    +0.277 C 
ATOM     23  O   UNL     1       1.596   2.671 -23.850  0.00  0.00    -0.491 OA
ENDBRANCH   1  23
BRANCH  13  24
ATOM     24  O   UNL     1      -2.713   2.763 -22.443  0.00  0.00    -0.378 OA
ATOM     25  H   UNL     1      -2.584   3.157 -21.565  0.00  0.00    +0.211 HD
ENDBRANCH  13  24
TORSDOF 2
ENDMDL
