MODEL 1
REMARK VINA RESULT:   -10.123      0.000      0.000
REMARK INTER + INTRA:         -10.123
REMARK INTER:                 -10.123
REMARK INTRA:                   0.000
REMARK UNBOUND:                 0.000
REMARK  Name = ZINC000004832998
REMARK  2 active torsions:
REMARK  status: ('A' for Active; 'I' for Inactive)
REMARK    1  A    between atoms: C_8  and  C_9
REMARK    2  A    between atoms: C_13  and  C_14
REMARK                            x       y       z     vdW  Elec       q    Type
REMARK                         _______ _______ _______ _____ _____    ______ ____
ROOT
ATOM      1  C   UNL     1       0.484   1.510 -21.200  0.00  0.00    +0.020 C 
ATOM      2  C   UNL     1       0.118   2.056 -22.321  0.00  0.00    +0.040 C 
ATOM      3  C   UNL     1       0.888   2.303 -23.338  0.00  0.00    +0.336 C 
ATOM      4  O   UNL     1       0.163   2.850 -24.268  0.00  0.00    -0.457 OA
ATOM      5  C   UNL     1      -1.056   2.941 -23.824  0.00  0.00    +0.189 C 
ATOM      6  C   UNL     1      -2.144   3.408 -24.361  0.00  0.00    +0.056 C 
ATOM      7  C   UNL     1      -3.260   3.383 -23.696  0.00  0.00    -0.007 C 
ATOM      8  C   UNL     1      -4.348   3.850 -24.233  0.00  0.00    +0.011 C 
ATOM      9  C   UNL     1      -5.464   3.825 -23.566  0.00  0.00    +0.001 C 
ATOM     10  C   UNL     1      -5.492   3.334 -22.363  0.00  0.00    +0.007 C 
ATOM     11  C   UNL     1      -4.404   2.867 -21.825  0.00  0.00    +0.012 C 
ATOM     12  C   UNL     1      -4.432   2.377 -20.622  0.00  0.00    +0.012 C 
ATOM     13  C   UNL     1      -3.232   3.874 -24.899  0.00  0.00    +0.016 C 
ATOM     14  C   UNL     1      -3.287   2.892 -22.492  0.00  0.00    -0.064 C 
ATOM     15  C   UNL     1      -2.199   2.426 -21.955  0.00  0.00    -0.015 C 
ATOM     16  O   UNL     1       2.161   2.048 -23.413  0.00  0.00    -0.245 OA
ATOM     17  C   UNL     1      -1.084   2.450 -22.621  0.00  0.00    +0.089 C 
ENDROOT
TORSDOF 0
ENDMDL
