MODEL 1
REMARK VINA RESULT:    -9.599      0.000      0.000
REMARK INTER + INTRA:          -7.891
REMARK INTER:                 -11.854
REMARK INTRA:                   3.963
REMARK UNBOUND:                 3.952
REMARK  Name = COC1=C2Oc3c(OC)ccc4c3[C@@]23CCN(C)[C@@H](C4)C3=C[C@H]1C(C)(C)O       ZINC000100393759
REMARK  9 active torsions:
REMARK  status: ('A' for Active; 'I' for Inactive)
REMARK    1  A    between atoms: C_1  and  O_2
REMARK    2  A    between atoms: O_2  and  C_3
REMARK    3  A    between atoms: C_7  and  O_8
REMARK    4  A    between atoms: O_8  and  C_9
REMARK    5  A    between atoms: N_17  and  C_18
REMARK    6  A    between atoms: C_23  and  C_24
REMARK    7  A    between atoms: C_24  and  C_25
REMARK    8  A    between atoms: C_24  and  C_26
REMARK    9  A    between atoms: C_24  and  O_27
REMARK                            x       y       z     vdW  Elec       q    Type
REMARK                         _______ _______ _______ _____ _____    ______ ____
ROOT
ATOM      1  C   UNL     1       0.603   2.860 -24.440  0.00  0.00    +0.146 C 
ATOM      2  C   UNL     1      -0.626   3.070 -24.283  0.00  0.00    +0.159 C 
ATOM      3  O   UNL     1      -1.925   3.550 -24.900  0.00  0.00    -0.452 OA
ATOM      4  C   UNL     1      -3.099   3.491 -23.959  0.00  0.00    +0.174 A 
ATOM      5  C   UNL     1      -4.344   3.704 -23.799  0.00  0.00    +0.162 A 
ATOM      6  C   UNL     1      -4.884   3.450 -22.676  0.00  0.00    +0.050 A 
ATOM      7  C   UNL     1      -4.199   2.992 -21.728  0.00  0.00    +0.008 A 
ATOM      8  C   UNL     1      -2.968   2.783 -21.892  0.00  0.00    -0.034 A 
ATOM      9  C   UNL     1      -2.264   2.315 -20.927  0.00  0.00    +0.094 C 
ATOM     10  C   UNL     1      -1.034   2.106 -21.088  0.00  0.00    +0.096 C 
ATOM     11  C   UNL     1      -0.492   2.359 -22.209  0.00  0.00    -0.007 C 
ATOM     12  C   UNL     1       0.751   2.147 -22.372  0.00  0.00    -0.007 C 
ATOM     13  N   UNL     1       0.369   1.832 -21.167  0.00  0.00    +0.239 N 
ATOM     14  H   UNL     1       0.899   1.460 -20.379  0.00  0.00    +0.204 HD
ATOM     15  C   UNL     1       1.005   1.374 -20.186  0.00  0.00    +0.191 C 
ATOM     16  C   UNL     1       1.006   2.103 -22.404  0.00  0.00    +0.133 C 
ATOM     17  C   UNL     1       0.206   2.620 -23.455  0.00  0.00    +0.075 C 
ATOM     18  C   UNL     1      -2.409   3.028 -22.999  0.00  0.00    +0.020 A 
ATOM     19  C   UNL     1      -1.181   2.818 -23.156  0.00  0.00    +0.091 C 
ATOM     20  C   UNL     1       1.293   2.396 -23.479  0.00  0.00    +0.112 C 
ENDROOT
BRANCH  20  21
ATOM     21  C   UNL     1       2.525   2.185 -23.636  0.00  0.00    +0.074 C 
ATOM     22  C   UNL     1       3.363   3.050 -23.277  0.00  0.00    +0.042 C 
ATOM     23  C   UNL     1       3.462   1.441 -24.026  0.00  0.00    +0.042 C 
BRANCH  21  24
ATOM     24  O   UNL     1       2.268   1.063 -24.143  0.00  0.00    -0.388 OA
ATOM     25  H   UNL     1       1.438   0.723 -23.774  0.00  0.00    +0.210 HD
ENDBRANCH  21  24
ENDBRANCH  20  21
BRANCH   1  27
ATOM     26  C   UNL     1       1.172   4.286 -25.987  0.00  0.00    +0.276 C 
ATOM     27  O   UNL     1       1.149   3.107 -25.547  0.00  0.00    -0.495 OA
ENDBRANCH   1  27
BRANCH   5  28
ATOM     28  O   UNL     1      -5.035   4.163 -24.745  0.00  0.00    -0.491 OA
ATOM     29  C   UNL     1      -5.193   3.488 -25.793  0.00  0.00    +0.277 C 
ENDBRANCH   5  28
TORSDOF 4
ENDMDL
