MODEL 1
REMARK VINA RESULT:   -10.037      0.000      0.000
REMARK INTER + INTRA:         -11.500
REMARK INTER:                 -11.199
REMARK INTRA:                  -0.301
REMARK UNBOUND:                -0.290
REMARK  Name = COc1cc2c(cc1OC)[C@@]13CCN[C@@H](C2)[C@H]1CCC(=O)C3                   ZINC000253504536
REMARK  4 active torsions:
REMARK  status: ('A' for Active; 'I' for Inactive)
REMARK    1  A    between atoms: C_1  and  O_2
REMARK    2  A    between atoms: O_2  and  C_3
REMARK    3  A    between atoms: C_8  and  O_9
REMARK    4  A    between atoms: O_9  and  C_10
REMARK                            x       y       z     vdW  Elec       q    Type
REMARK                         _______ _______ _______ _____ _____    ______ ____
ROOT
ATOM      1  C   UNL     1       0.578   2.145 -23.011  0.00  0.00    +0.162 A 
ATOM      2  C   UNL     1      -0.258   1.965 -22.077  0.00  0.00    +0.053 A 
ATOM      3  C   UNL     1      -1.641   2.407 -22.267  0.00  0.00    -0.035 A 
ATOM      4  C   UNL     1      -1.900   2.865 -23.182  0.00  0.00    -0.033 A 
ATOM      5  C   UNL     1      -2.723   3.216 -23.503  0.00  0.00    +0.015 C 
ATOM      6  C   UNL     1      -1.179   2.638 -23.093  0.00  0.00    +0.063 C 
ATOM      7  C   UNL     1      -0.947   2.004 -21.747  0.00  0.00    +0.130 C 
ATOM      8  N   UNL     1      -1.876   1.924 -20.989  0.00  0.00    +0.230 N 
ATOM      9  H   UNL     1      -2.029   0.917 -20.933  0.00  0.00    +0.202 HD
ATOM     10  H   UNL     1      -1.602   2.423 -20.143  0.00  0.00    +0.202 HD
ATOM     11  C   UNL     1      -3.305   2.464 -21.381  0.00  0.00    +0.071 C 
ATOM     12  C   UNL     1      -3.015   3.769 -24.620  0.00  0.00    +0.086 C 
ATOM     13  C   UNL     1      -4.233   4.181 -24.841  0.00  0.00    +0.134 C 
ATOM     14  O   UNL     1      -4.527   4.738 -25.969  0.00  0.00    -0.297 OA
ATOM     15  C   UNL     1      -5.174   4.032 -23.916  0.00  0.00    +0.075 C 
ATOM     16  C   UNL     1      -4.912   3.470 -22.757  0.00  0.00    +0.017 C 
ATOM     17  C   UNL     1      -3.732   3.055 -22.507  0.00  0.00    +0.049 C 
ATOM     18  C   UNL     1      -1.044   3.067 -24.182  0.00  0.00    +0.054 A 
ATOM     19  C   UNL     1      -2.397   2.219 -21.363  0.00  0.00    +0.090 C 
ATOM     20  C   UNL     1       0.191   2.701 -24.079  0.00  0.00    +0.162 A 
ENDROOT
BRANCH   1  22
ATOM     21  C   UNL     1       2.689   2.304 -22.125  0.00  0.00    +0.277 C 
ATOM     22  O   UNL     1       1.854   1.783 -22.946  0.00  0.00    -0.491 OA
ENDBRANCH   1  22
BRANCH  20  23
ATOM     23  O   UNL     1       1.008   2.904 -25.055  0.00  0.00    -0.491 OA
ATOM     24  C   UNL     1       1.152   4.102 -25.530  0.00  0.00    +0.277 C 
ENDBRANCH  20  23
TORSDOF 2
ENDMDL
