MODEL 1
REMARK VINA RESULT:    -8.810      0.000      0.000
REMARK INTER + INTRA:         -11.058
REMARK INTER:                 -10.750
REMARK INTRA:                  -0.308
REMARK UNBOUND:                -0.445
REMARK  Name = ZINC000004104684
REMARK  5 active torsions:
REMARK  status: ('A' for Active; 'I' for Inactive)
REMARK    1  A    between atoms: N_6  and  C1*_7
REMARK    2  A    between atoms: C4*_9  and  C5*_10
REMARK    3  A    between atoms: C5*_10  and  O5*_11
REMARK    4  A    between atoms: C3*_12  and  O3*_13
REMARK    5  A    between atoms: C2*_14  and  O2*_15
REMARK                            x       y       z     vdW  Elec       q    Type
REMARK                         _______ _______ _______ _____ _____    ______ ____
ROOT
ATOM      1  O   UNL     1      -5.554   2.573 -21.278  0.00  0.00    -0.265 OA
ATOM      2  C   UNL     1      -4.383   2.784 -21.803  0.00  0.00    +0.282 A 
ATOM      3  N   UNL     1      -3.313   2.380 -21.186  0.00  0.00    -0.273 N 
ATOM      4  H   UNL     1      -3.389   1.914 -20.322  0.00  0.00    +0.173 HD
ATOM      5  C   UNL     1      -2.142   2.590 -21.711  0.00  0.00    +0.333 A 
ATOM      6  N   UNL     1      -2.041   3.205 -22.851  0.00  0.00    -0.247 N 
ATOM      7  C   UNL     1      -3.112   3.610 -23.469  0.00  0.00    +0.170 A 
ATOM      8  N   UNL     1      -3.012   4.224 -24.609  0.00  0.00    -0.234 NA
ATOM      9  C   UNL     1      -4.082   4.629 -25.226  0.00  0.00    +0.133 A 
ATOM     10  C   UNL     1      -5.253   4.418 -24.701  0.00  0.00    +0.131 A 
ATOM     11  N   UNL     1      -5.353   3.803 -23.561  0.00  0.00    -0.245 NA
ATOM     12  O   UNL     1      -1.071   2.186 -21.095  0.00  0.00    -0.246 OA
ATOM     13  C   UNL     1      -4.283   3.399 -22.944  0.00  0.00    +0.171 A 
ENDROOT
BRANCH   6  14
ATOM     14  C1* UNL     1      -0.871   3.415 -23.376  0.00  0.00    +0.257 C 
ATOM     15  O4* UNL     1      -0.174   2.558 -24.060  0.00  0.00    -0.346 OA
ATOM     16  C4* UNL     1       0.936   3.133 -24.415  0.00  0.00    +0.177 C 
ATOM     17  C3* UNL     1       0.927   4.347 -23.950  0.00  0.00    +0.178 C 
ATOM     18  C2* UNL     1      -0.191   4.521 -23.308  0.00  0.00    +0.195 C 
BRANCH  17  19
ATOM     19  O3* UNL     1       1.868   5.231 -24.101  0.00  0.00    -0.386 OA
ATOM     20  H3* UNL     1       1.836   5.865 -23.368  0.00  0.00    +0.210 HD
ENDBRANCH  17  19
BRANCH  18  21
ATOM     21  O2* UNL     1      -0.561   5.611 -22.704  0.00  0.00    -0.385 OA
ATOM     22  H2* UNL     1      -0.879   5.396 -21.813  0.00  0.00    +0.210 HD
ENDBRANCH  18  21
BRANCH  16  23
ATOM     23  C5* UNL     1       1.889   2.590 -25.113  0.00  0.00    +0.190 C 
BRANCH  23  24
ATOM     24  O5* UNL     1       1.675   2.241 -26.347  0.00  0.00    -0.392 OA
ATOM     25  H5* UNL     1       2.469   1.813 -26.704  0.00  0.00    +0.210 HD
ENDBRANCH  23  24
ENDBRANCH  16  23
ENDBRANCH   6  14
TORSDOF 5
ENDMDL
