MODEL 1
REMARK VINA RESULT:   -10.098      0.000      0.000
REMARK INTER + INTRA:         -10.098
REMARK INTER:                 -10.098
REMARK INTRA:                   0.000
REMARK UNBOUND:                 0.000
REMARK  Name = ZINC000004832996
REMARK  2 active torsions:
REMARK  status: ('A' for Active; 'I' for Inactive)
REMARK    1  A    between atoms: C_8  and  C_9
REMARK    2  A    between atoms: C_13  and  C_14
REMARK                            x       y       z     vdW  Elec       q    Type
REMARK                         _______ _______ _______ _____ _____    ______ ____
ROOT
ATOM      1  C   UNL     1       0.491   1.502 -21.169  0.00  0.00    +0.020 C 
ATOM      2  C   UNL     1       0.133   2.033 -22.300  0.00  0.00    +0.040 C 
ATOM      3  C   UNL     1       0.908   2.257 -23.319  0.00  0.00    +0.336 C 
ATOM      4  O   UNL     1       0.190   2.796 -24.259  0.00  0.00    -0.457 OA
ATOM      5  C   UNL     1      -1.029   2.905 -23.821  0.00  0.00    +0.189 C 
ATOM      6  C   UNL     1      -2.111   3.373 -24.368  0.00  0.00    +0.056 C 
ATOM      7  C   UNL     1      -3.230   3.370 -23.705  0.00  0.00    -0.007 C 
ATOM      8  C   UNL     1      -4.312   3.837 -24.252  0.00  0.00    +0.011 C 
ATOM      9  C   UNL     1      -5.429   3.834 -23.589  0.00  0.00    +0.001 C 
ATOM     10  C   UNL     1      -5.465   3.362 -22.378  0.00  0.00    +0.007 C 
ATOM     11  C   UNL     1      -4.383   2.894 -21.829  0.00  0.00    +0.012 C 
ATOM     12  C   UNL     1      -4.418   2.423 -20.619  0.00  0.00    +0.012 C 
ATOM     13  C   UNL     1      -3.194   3.841 -24.916  0.00  0.00    +0.016 C 
ATOM     14  C   UNL     1      -3.264   2.898 -22.493  0.00  0.00    -0.064 C 
ATOM     15  C   UNL     1      -2.182   2.430 -21.946  0.00  0.00    -0.015 C 
ATOM     16  O   UNL     1       2.178   1.989 -23.386  0.00  0.00    -0.245 OA
ATOM     17  C   UNL     1      -1.065   2.434 -22.610  0.00  0.00    +0.089 C 
ENDROOT
TORSDOF 0
ENDMDL
