MODEL 1
REMARK VINA RESULT:    -9.772      0.000      0.000
REMARK INTER + INTRA:          -9.772
REMARK INTER:                  -9.772
REMARK INTRA:                   0.000
REMARK UNBOUND:                 0.000
REMARK  Name = C[C@@H]1CCC[C@@]2(C)O[C@@H]2[C@H]2OC(=O)[C@H](C)[C@H]2CC1            ZINC000105413319
REMARK  3 active torsions:
REMARK  status: ('A' for Active; 'I' for Inactive)
REMARK    1  A    between atoms: C_1  and  C_2
REMARK    2  A    between atoms: C_6  and  C_7
REMARK    3  A    between atoms: C_14  and  C_15
REMARK                            x       y       z     vdW  Elec       q    Type
REMARK                         _______ _______ _______ _____ _____    ______ ____
ROOT
ATOM      1  C   UNL     1      -3.256   3.758 -27.075  0.00  0.00    +0.007 C 
ATOM      2  C   UNL     1      -3.458   3.585 -25.803  0.00  0.00    -0.014 C 
ATOM      3  C   UNL     1      -4.649   3.742 -25.306  0.00  0.00    +0.003 C 
ATOM      4  C   UNL     1      -4.850   3.570 -24.033  0.00  0.00    +0.003 C 
ATOM      5  C   UNL     1      -3.860   3.240 -23.257  0.00  0.00    +0.037 C 
ATOM      6  C   UNL     1      -4.061   3.068 -21.985  0.00  0.00    +0.097 C 
ATOM      7  O   UNL     1      -4.263   2.895 -20.712  0.00  0.00    -0.361 OA
ATOM      8  C   UNL     1      -5.320   3.348 -22.146  0.00  0.00    +0.044 C 
ATOM      9  C   UNL     1      -3.072   2.739 -21.209  0.00  0.00    +0.191 C 
ATOM     10  C   UNL     1      -1.881   2.582 -21.706  0.00  0.00    +0.212 C 
ATOM     11  O   UNL     1      -0.745   2.262 -21.160  0.00  0.00    -0.458 OA
ATOM     12  C   UNL     1       0.157   2.237 -22.095  0.00  0.00    +0.311 C 
ATOM     13  C   UNL     1      -0.420   2.541 -23.219  0.00  0.00    +0.101 C 
ATOM     14  C   UNL     1       0.160   2.618 -24.380  0.00  0.00    +0.019 C 
ATOM     15  O   UNL     1       1.416   1.956 -21.934  0.00  0.00    -0.251 OA
ATOM     16  C   UNL     1      -1.679   2.754 -22.979  0.00  0.00    +0.046 C 
ATOM     17  C   UNL     1      -2.669   3.084 -23.754  0.00  0.00    +0.008 C 
ATOM     18  C   UNL     1      -2.468   3.256 -25.027  0.00  0.00    +0.004 C 
ENDROOT
TORSDOF 0
ENDMDL
