MODEL 1
REMARK VINA RESULT:    -9.801      0.000      0.000
REMARK INTER + INTRA:         -11.425
REMARK INTER:                 -10.911
REMARK INTRA:                  -0.514
REMARK UNBOUND:                -0.478
REMARK  Name = ZINC000013334942
REMARK  4 active torsions:
REMARK  status: ('A' for Active; 'I' for Inactive)
REMARK    1  A    between atoms: C_1  and  C_2
REMARK    2  A    between atoms: C_3  and  O_4
REMARK    3  A    between atoms: C_6  and  O_7
REMARK    4  A    between atoms: C_11  and  C_12
REMARK                            x       y       z     vdW  Elec       q    Type
REMARK                         _______ _______ _______ _____ _____    ______ ____
ROOT
ATOM      1  C   UNL     1      -2.393   3.536 -25.923  0.00  0.00    +0.051 C 
ATOM      2  C   UNL     1      -3.149   3.521 -24.865  0.00  0.00    +0.033 A 
ATOM      3  C   UNL     1      -4.411   3.814 -24.964  0.00  0.00    +0.127 A 
ATOM      4  C   UNL     1      -5.168   3.800 -23.908  0.00  0.00    +0.092 A 
ATOM      5  C   UNL     1      -4.661   3.493 -22.750  0.00  0.00    +0.134 A 
ATOM      6  C   UNL     1      -3.398   3.200 -22.650  0.00  0.00    +0.101 A 
ATOM      7  C   UNL     1      -2.892   2.894 -21.493  0.00  0.00    +0.174 C 
ATOM      8  O   UNL     1      -3.648   2.879 -20.436  0.00  0.00    -0.292 OA
ATOM      9  C   UNL     1      -1.629   2.601 -21.393  0.00  0.00    +0.129 C 
ATOM     10  C   UNL     1      -0.872   2.615 -22.452  0.00  0.00    +0.211 C 
ATOM     11  O   UNL     1      -1.380   2.922 -23.608  0.00  0.00    -0.483 OA
ATOM     12  C   UNL     1      -2.642   3.215 -23.708  0.00  0.00    +0.142 A 
ENDROOT
BRANCH  10  13
ATOM     13  C   UNL     1       0.390   2.322 -22.352  0.00  0.00    -0.007 A 
ATOM     14  C   UNL     1       0.811   1.590 -21.364  0.00  0.00    +0.007 A 
ATOM     15  C   UNL     1       2.074   1.297 -21.264  0.00  0.00    +0.000 A 
ATOM     16  C   UNL     1       2.916   1.737 -22.153  0.00  0.00    +0.000 A 
ATOM     17  C   UNL     1       2.494   2.469 -23.141  0.00  0.00    +0.000 A 
ATOM     18  C   UNL     1       1.231   2.762 -23.240  0.00  0.00    +0.007 A 
ENDBRANCH  10  13
BRANCH   5  19
ATOM     19  O   UNL     1      -5.417   3.479 -21.692  0.00  0.00    -0.506 OA
ATOM     20  H   UNL     1      -5.182   3.989 -20.942  0.00  0.00    +0.292 HD
ENDBRANCH   5  19
BRANCH   3  21
ATOM     21  O   UNL     1      -4.918   4.121 -26.122  0.00  0.00    -0.506 OA
ATOM     22  H   UNL     1      -4.770   4.971 -26.488  0.00  0.00    +0.292 HD
ENDBRANCH   3  21
TORSDOF 3
ENDMDL
