MODEL 1
REMARK VINA RESULT:   -11.205      0.000      0.000
REMARK INTER + INTRA:         -11.979
REMARK INTER:                 -11.829
REMARK INTRA:                  -0.150
REMARK UNBOUND:                -0.118
REMARK  Name = COc1ccc2c3c1O[C@]1(C)C(=O)C=C[C@H]4[C@@H](C2)N(C)CC[C@]341           ZINC000100393548
REMARK  4 active torsions:
REMARK  status: ('A' for Active; 'I' for Inactive)
REMARK    1  A    between atoms: C_1  and  O_2
REMARK    2  A    between atoms: O_2  and  C_3
REMARK    3  A    between atoms: C_10  and  C_11
REMARK    4  A    between atoms: N_19  and  C_20
REMARK                            x       y       z     vdW  Elec       q    Type
REMARK                         _______ _______ _______ _____ _____    ______ ____
ROOT
ATOM      1  C   UNL     1       0.871   2.242 -23.215  0.00  0.00    +0.162 A 
ATOM      2  C   UNL     1       0.833   1.902 -21.997  0.00  0.00    +0.050 A 
ATOM      3  C   UNL     1      -0.244   1.938 -21.360  0.00  0.00    +0.008 A 
ATOM      4  C   UNL     1      -1.296   2.314 -21.932  0.00  0.00    -0.034 A 
ATOM      5  C   UNL     1      -1.278   2.656 -23.145  0.00  0.00    +0.013 A 
ATOM      6  C   UNL     1      -2.328   3.030 -23.713  0.00  0.00    +0.062 C 
ATOM      7  C   UNL     1      -3.456   3.472 -24.462  0.00  0.00    +0.067 C 
ATOM      8  C   UNL     1      -4.685   3.523 -23.770  0.00  0.00    +0.132 C 
ATOM      9  N   UNL     1      -4.688   3.137 -22.414  0.00  0.00    +0.236 N 
ATOM     10  H   UNL     1      -5.547   3.154 -21.864  0.00  0.00    +0.203 HD
ATOM     11  C   UNL     1      -5.735   3.153 -21.729  0.00  0.00    +0.190 C 
ATOM     12  C   UNL     1      -3.440   2.726 -21.859  0.00  0.00    +0.076 C 
ATOM     13  C   UNL     1      -3.407   3.067 -23.078  0.00  0.00    +0.076 C 
ATOM     14  C   UNL     1      -4.466   3.445 -23.653  0.00  0.00    -0.013 C 
ATOM     15  C   UNL     1      -4.440   3.784 -24.859  0.00  0.00    +0.046 C 
ATOM     16  C   UNL     1      -3.355   3.749 -25.506  0.00  0.00    +0.200 C 
ATOM     17  O   UNL     1      -3.331   4.088 -26.711  0.00  0.00    -0.288 OA
ATOM     18  C   UNL     1      -2.304   3.375 -24.939  0.00  0.00    +0.180 C 
ATOM     19  C   UNL     1      -1.992   3.648 -26.120  0.00  0.00    +0.065 C 
ATOM     20  O   UNL     1      -0.823   3.111 -25.062  0.00  0.00    -0.473 OA
ATOM     21  C   UNL     1      -2.393   2.352 -21.287  0.00  0.00    +0.090 C 
ATOM     22  C   UNL     1      -0.194   2.621 -23.791  0.00  0.00    +0.167 A 
ENDROOT
BRANCH   1  24
ATOM     23  C   UNL     1       2.658   3.231 -23.943  0.00  0.00    +0.277 C 
ATOM     24  O   UNL     1       1.949   2.204 -23.848  0.00  0.00    -0.491 OA
ENDBRANCH   1  24
TORSDOF 1
ENDMDL
