MODEL 1
REMARK VINA RESULT:    -9.468      0.000      0.000
REMARK INTER + INTRA:          -3.280
REMARK INTER:                 -11.148
REMARK INTRA:                   7.868
REMARK UNBOUND:                 8.402
REMARK  Name = COC(=O)[C@@]12Oc3c(OC)ccc4c3[C@@]13CCN(C)[C@@H](C4)C3=CC=C2OC        ZINC000253505182
REMARK  8 active torsions:
REMARK  status: ('A' for Active; 'I' for Inactive)
REMARK    1  A    between atoms: C_1  and  O_2
REMARK    2  A    between atoms: O_2  and  C_3
REMARK    3  A    between atoms: C_3  and  C_5
REMARK    4  A    between atoms: C_8  and  O_9
REMARK    5  A    between atoms: O_9  and  C_10
REMARK    6  A    between atoms: N_18  and  C_19
REMARK    7  A    between atoms: C_25  and  O_26
REMARK    8  A    between atoms: O_26  and  C_27
REMARK                            x       y       z     vdW  Elec       q    Type
REMARK                         _______ _______ _______ _____ _____    ______ ____
ROOT
ATOM      1  C   UNL     1      -2.684   3.046 -22.720  0.00  0.00    +0.275 C 
ATOM      2  O   UNL     1      -1.565   2.665 -21.764  0.00  0.00    -0.461 OA
ATOM      3  C   UNL     1      -0.211   2.558 -22.430  0.00  0.00    +0.169 A 
ATOM      4  C   UNL     1       1.033   2.312 -22.281  0.00  0.00    +0.162 A 
ATOM      5  C   UNL     1       1.810   2.372 -23.290  0.00  0.00    +0.050 A 
ATOM      6  C   UNL     1       1.358   2.672 -24.428  0.00  0.00    +0.008 A 
ATOM      7  C   UNL     1       0.127   2.915 -24.573  0.00  0.00    -0.034 A 
ATOM      8  C   UNL     1      -0.336   3.220 -25.729  0.00  0.00    +0.094 C 
ATOM      9  C   UNL     1      -1.564   3.462 -25.872  0.00  0.00    +0.096 C 
ATOM     10  C   UNL     1      -2.344   3.403 -24.864  0.00  0.00    -0.006 C 
ATOM     11  C   UNL     1      -3.585   3.648 -25.012  0.00  0.00    +0.009 C 
ATOM     12  C   UNL     1      -4.362   3.591 -24.021  0.00  0.00    +0.046 C 
ATOM     13  N   UNL     1      -2.943   3.756 -26.144  0.00  0.00    +0.239 N 
ATOM     14  H   UNL     1      -3.275   3.995 -27.078  0.00  0.00    +0.204 HD
ATOM     15  C   UNL     1      -3.338   4.050 -27.303  0.00  0.00    +0.191 C 
ATOM     16  C   UNL     1      -3.840   3.699 -25.044  0.00  0.00    +0.133 C 
ATOM     17  C   UNL     1      -3.301   3.358 -23.773  0.00  0.00    +0.072 C 
ATOM     18  C   UNL     1      -0.663   2.860 -23.580  0.00  0.00    +0.017 A 
ATOM     19  C   UNL     1      -3.912   3.289 -22.869  0.00  0.00    +0.153 C 
ATOM     20  C   UNL     1      -1.890   3.103 -23.728  0.00  0.00    +0.088 C 
ENDROOT
BRANCH   1  21
ATOM     21  C   UNL     1      -3.111   2.872 -21.441  0.00  0.00    +0.360 C 
ATOM     22  O   UNL     1      -3.455   1.868 -21.034  0.00  0.00    -0.246 OA
BRANCH  21  24
ATOM     23  C   UNL     1      -3.261   3.646 -19.390  0.00  0.00    +0.280 C 
ATOM     24  O   UNL     1      -3.156   3.825 -20.603  0.00  0.00    -0.465 OA
ENDBRANCH  21  24
ENDBRANCH   1  21
BRANCH   4  25
ATOM     25  O   UNL     1       1.488   2.012 -21.145  0.00  0.00    -0.491 OA
ATOM     26  C   UNL     1       2.644   1.519 -21.038  0.00  0.00    +0.277 C 
ENDBRANCH   4  25
BRANCH  19  27
ATOM     27  O   UNL     1      -4.708   3.251 -21.958  0.00  0.00    -0.495 OA
ATOM     28  C   UNL     1      -5.934   3.266 -22.229  0.00  0.00    +0.276 C 
ENDBRANCH  19  27
TORSDOF 4
ENDMDL
