MODEL 1
REMARK VINA RESULT:    -9.523      0.000      0.000
REMARK INTER + INTRA:          -4.941
REMARK INTER:                 -12.286
REMARK INTRA:                   7.345
REMARK UNBOUND:                 8.201
REMARK  Name = CCCC[C@@H](O)[C@@]12Oc3c(OC)ccc4c3[C@]13CCN(C)[C@H](C4)C3=CC=C2OC    ZINC000100393893
REMARK  11 active torsions:
REMARK  status: ('A' for Active; 'I' for Inactive)
REMARK    1  A    between atoms: C_1  and  C_2
REMARK    2  A    between atoms: C_2  and  C_3
REMARK    3  A    between atoms: C_3  and  C_4
REMARK    4  A    between atoms: C_4  and  C_5
REMARK    5  A    between atoms: C_5  and  O_6
REMARK    6  A    between atoms: C_5  and  C_7
REMARK    7  A    between atoms: C_10  and  O_11
REMARK    8  A    between atoms: O_11  and  C_12
REMARK    9  A    between atoms: N_20  and  C_21
REMARK   10  A    between atoms: C_27  and  O_28
REMARK   11  A    between atoms: O_28  and  C_29
REMARK                            x       y       z     vdW  Elec       q    Type
REMARK                         _______ _______ _______ _____ _____    ______ ____
ROOT
ATOM      1  C   UNL     1      -1.567   3.225 -23.781  0.00  0.00    +0.206 C 
ATOM      2  O   UNL     1      -1.912   3.097 -22.314  0.00  0.00    -0.470 OA
ATOM      3  C   UNL     1      -3.381   3.161 -22.032  0.00  0.00    +0.168 A 
ATOM      4  C   UNL     1      -4.294   3.130 -21.153  0.00  0.00    +0.162 A 
ATOM      5  C   UNL     1      -5.506   3.242 -21.499  0.00  0.00    +0.050 A 
ATOM      6  C   UNL     1      -5.803   3.385 -22.708  0.00  0.00    +0.008 A 
ATOM      7  C   UNL     1      -4.904   3.416 -23.576  0.00  0.00    -0.034 A 
ATOM      8  C   UNL     1      -5.203   3.561 -24.804  0.00  0.00    +0.094 C 
ATOM      9  C   UNL     1      -4.306   3.593 -25.674  0.00  0.00    +0.096 C 
ATOM     10  C   UNL     1      -3.096   3.480 -25.323  0.00  0.00    -0.007 C 
ATOM     11  C   UNL     1      -2.186   3.512 -26.200  0.00  0.00    +0.009 C 
ATOM     12  C   UNL     1      -0.984   3.401 -25.869  0.00  0.00    +0.045 C 
ATOM     13  N   UNL     1      -3.359   3.641 -26.734  0.00  0.00    +0.239 N 
ATOM     14  H   UNL     1      -3.662   3.759 -27.700  0.00  0.00    +0.204 HD
ATOM     15  C   UNL     1      -3.718   3.786 -27.924  0.00  0.00    +0.191 C 
ATOM     16  C   UNL     1      -1.997   3.519 -26.386  0.00  0.00    +0.133 C 
ATOM     17  C   UNL     1      -1.691   3.359 -25.018  0.00  0.00    +0.071 C 
ATOM     18  C   UNL     1      -3.693   3.306 -23.250  0.00  0.00    +0.016 A 
ATOM     19  C   UNL     1      -0.669   3.257 -24.656  0.00  0.00    +0.144 C 
ATOM     20  C   UNL     1      -2.792   3.337 -24.117  0.00  0.00    +0.080 C 
ENDROOT
BRANCH   4  21
ATOM     21  O   UNL     1      -3.997   2.987 -19.944  0.00  0.00    -0.491 OA
ATOM     22  C   UNL     1      -3.138   3.729 -19.418  0.00  0.00    +0.277 C 
ENDBRANCH   4  21
BRANCH  19  23
ATOM     23  O   UNL     1       0.674   3.157 -24.517  0.00  0.00    -0.495 OA
ATOM     24  C   UNL     1       1.419   3.011 -25.559  0.00  0.00    +0.276 C 
ENDBRANCH  19  23
BRANCH   1  25
ATOM     25  C   UNL     1      -0.416   3.079 -23.079  0.00  0.00    +0.167 C 
BRANCH  25  26
ATOM     26  O   UNL     1       0.239   4.089 -22.750  0.00  0.00    -0.387 OA
ATOM     27  H   UNL     1       0.405   4.636 -23.534  0.00  0.00    +0.210 HD
ENDBRANCH  25  26
BRANCH  25  28
ATOM     28  C   UNL     1       0.018   1.942 -22.744  0.00  0.00    +0.036 C 
BRANCH  28  29
ATOM     29  C   UNL     1       0.721   1.761 -21.711  0.00  0.00    +0.002 C 
BRANCH  29  31
ATOM     30  C   UNL     1       2.923   1.875 -21.823  0.00  0.00    +0.004 C 
ATOM     31  C   UNL     1       1.864   1.201 -21.844  0.00  0.00    -0.003 C 
ENDBRANCH  29  31
ENDBRANCH  28  29
ENDBRANCH  25  28
ENDBRANCH   1  25
TORSDOF 7
ENDMDL
