MODEL 1
REMARK VINA RESULT:    -9.243      0.000      0.000
REMARK INTER + INTRA:         -10.443
REMARK INTER:                 -10.044
REMARK INTRA:                  -0.399
REMARK UNBOUND:                -0.389
REMARK  Name = ZINC000004104691
REMARK  5 active torsions:
REMARK  status: ('A' for Active; 'I' for Inactive)
REMARK    1  A    between atoms: C_2  and  C_3
REMARK    2  A    between atoms: C_2  and  C_4
REMARK    3  A    between atoms: C_7  and  C_8
REMARK    4  A    between atoms: C_12  and  C_13
REMARK    5  A    between atoms: C_12  and  O_14
REMARK                            x       y       z     vdW  Elec       q    Type
REMARK                         _______ _______ _______ _____ _____    ______ ____
ROOT
ATOM      1  C   UNL     1      -1.053   3.512 -22.861  0.00  0.00    +0.015 C 
ATOM      2  C   UNL     1      -1.328   2.968 -21.713  0.00  0.00    +0.008 C 
ATOM      3  C   UNL     1      -2.565   2.797 -21.355  0.00  0.00    +0.007 C 
ATOM      4  C   UNL     1      -3.529   3.168 -22.146  0.00  0.00    -0.027 C 
ATOM      5  C   UNL     1      -4.766   2.996 -21.787  0.00  0.00    +0.007 C 
ATOM      6  C   UNL     1      -5.729   3.367 -22.578  0.00  0.00    +0.003 C 
ATOM      7  C   UNL     1      -5.454   3.910 -23.726  0.00  0.00    +0.035 C 
ATOM      8  C   UNL     1      -4.217   4.083 -24.085  0.00  0.00    +0.067 C 
ATOM      9  C   UNL     1      -3.189   4.425 -24.804  0.00  0.00    +0.041 C 
ATOM     10  C   UNL     1      -3.804   2.625 -20.997  0.00  0.00    +0.011 C 
ATOM     11  C   UNL     1      -3.254   3.711 -23.294  0.00  0.00    +0.027 C 
ATOM     12  C   UNL     1      -2.017   3.883 -23.653  0.00  0.00    +0.014 C 
ENDROOT
BRANCH   1  14
ATOM     13  C   UNL     1       1.011   2.681 -23.204  0.00  0.00    +0.007 C 
ATOM     14  C   UNL     1       0.184   3.684 -23.220  0.00  0.00    -0.077 C 
ATOM     15  C   UNL     1       0.595   4.859 -23.594  0.00  0.00    +0.039 C 
ENDBRANCH   1  14
BRANCH   8  16
ATOM     16  O   UNL     1      -4.823   4.573 -25.125  0.00  0.00    -0.389 OA
ATOM     17  H   UNL     1      -4.198   4.630 -25.866  0.00  0.00    +0.210 HD
ENDBRANCH   8  16
TORSDOF 2
ENDMDL
