MODEL 1
REMARK VINA RESULT:    -8.394      0.000      0.000
REMARK INTER + INTRA:         -10.119
REMARK INTER:                  -9.869
REMARK INTRA:                  -0.250
REMARK UNBOUND:                -0.253
REMARK  Name = CN1[C@H]2CC[C@@H]1C[C@@H](OC(=O)c1ccccc1)C2                          ZINC000100392399
REMARK  4 active torsions:
REMARK  status: ('A' for Active; 'I' for Inactive)
REMARK    1  A    between atoms: C_1  and  N_2
REMARK    2  A    between atoms: C_8  and  O_9
REMARK    3  A    between atoms: O_9  and  C_10
REMARK    4  A    between atoms: C_10  and  C_12
REMARK                            x       y       z     vdW  Elec       q    Type
REMARK                         _______ _______ _______ _____ _____    ______ ____
ROOT
ATOM      1  C   UNL     1       0.792   2.198 -22.740  0.00  0.00    +0.191 C 
ATOM      2  N   UNL     1       1.441   2.064 -22.380  0.00  0.00    +0.238 N 
ATOM      3  H   UNL     1       2.320   1.883 -21.894  0.00  0.00    +0.204 HD
ATOM      4  C   UNL     1       2.206   2.435 -22.890  0.00  0.00    +0.068 C 
ATOM      5  C   UNL     1       3.240   2.085 -22.077  0.00  0.00    +0.060 C 
ATOM      6  C   UNL     1       2.545   1.438 -21.068  0.00  0.00    +0.060 C 
ATOM      7  C   UNL     1       1.450   2.847 -23.758  0.00  0.00    +0.099 C 
ATOM      8  C   UNL     1      -0.050   2.372 -23.206  0.00  0.00    +0.187 C 
ATOM      9  C   UNL     1       0.072   1.561 -21.755  0.00  0.00    +0.099 C 
ATOM     10  C   UNL     1       1.275   1.567 -21.536  0.00  0.00    +0.068 C 
ENDROOT
BRANCH   8  11
ATOM     11  O   UNL     1      -1.141   2.604 -23.823  0.00  0.00    -0.457 OA
BRANCH  11  12
ATOM     12  C   UNL     1      -1.790   3.691 -23.514  0.00  0.00    +0.339 C 
ATOM     13  O   UNL     1      -1.186   4.908 -23.602  0.00  0.00    -0.245 OA
BRANCH  12  14
ATOM     14  C   UNL     1      -3.011   3.580 -23.126  0.00  0.00    +0.059 A 
ATOM     15  C   UNL     1      -3.306   3.159 -21.865  0.00  0.00    +0.015 A 
ATOM     16  C   UNL     1      -4.602   3.048 -21.476  0.00  0.00    +0.001 A 
ATOM     17  C   UNL     1      -5.604   3.355 -22.339  0.00  0.00    +0.000 A 
ATOM     18  C   UNL     1      -5.307   3.776 -23.600  0.00  0.00    +0.001 A 
ATOM     19  C   UNL     1      -4.012   3.887 -23.989  0.00  0.00    +0.015 A 
ENDBRANCH  12  14
ENDBRANCH  11  12
ENDBRANCH   8  11
TORSDOF 3
ENDMDL
