MODEL 1
REMARK VINA RESULT:   -10.549      0.000      0.000
REMARK INTER + INTRA:         -12.409
REMARK INTER:                 -13.084
REMARK INTRA:                   0.675
REMARK UNBOUND:                 0.916
REMARK  Name = COCO[C@@H]1C=C2[C@H]3Cc4ccc(OC)c5c4[C@@]2(CCN3C)[C@@](C)(O5)[C@@H]1O ZINC000253505471
REMARK  9 active torsions:
REMARK  status: ('A' for Active; 'I' for Inactive)
REMARK    1  A    between atoms: C_1  and  O_2
REMARK    2  A    between atoms: O_2  and  C_3
REMARK    3  A    between atoms: C_3  and  O_4
REMARK    4  A    between atoms: O_4  and  C_5
REMARK    5  A    between atoms: C_13  and  O_14
REMARK    6  A    between atoms: O_14  and  C_15
REMARK    7  A    between atoms: N_21  and  C_22
REMARK    8  A    between atoms: C_23  and  C_24
REMARK    9  A    between atoms: C_26  and  O_27
REMARK                            x       y       z     vdW  Elec       q    Type
REMARK                         _______ _______ _______ _____ _____    ______ ____
ROOT
ATOM      1  C   UNL     1       0.963   2.203 -22.656  0.00  0.00    +0.176 C 
ATOM      2  C   UNL     1       0.594   2.729 -23.738  0.00  0.00    +0.013 C 
ATOM      3  C   UNL     1      -0.626   3.033 -23.915  0.00  0.00    -0.009 C 
ATOM      4  C   UNL     1      -0.992   3.565 -25.011  0.00  0.00    +0.096 C 
ATOM      5  C   UNL     1      -2.200   3.866 -25.187  0.00  0.00    +0.094 C 
ATOM      6  C   UNL     1      -3.057   3.638 -24.266  0.00  0.00    -0.034 A 
ATOM      7  C   UNL     1      -4.268   3.940 -24.442  0.00  0.00    +0.008 A 
ATOM      8  C   UNL     1      -5.108   3.715 -23.534  0.00  0.00    +0.050 A 
ATOM      9  C   UNL     1      -4.746   3.184 -22.438  0.00  0.00    +0.162 A 
ATOM     10  C   UNL     1      -3.521   2.879 -22.263  0.00  0.00    +0.167 A 
ATOM     11  O   UNL     1      -2.493   2.292 -21.330  0.00  0.00    -0.478 OA
ATOM     12  C   UNL     1      -1.091   2.273 -21.909  0.00  0.00    +0.150 C 
ATOM     13  C   UNL     1      -1.009   1.771 -20.758  0.00  0.00    +0.060 C 
ATOM     14  C   UNL     1      -2.676   3.108 -23.181  0.00  0.00    +0.016 A 
ATOM     15  N   UNL     1       0.403   3.261 -24.913  0.00  0.00    +0.239 N 
ATOM     16  H   UNL     1       1.058   3.457 -25.669  0.00  0.00    +0.204 HD
ATOM     17  C   UNL     1       1.198   3.509 -25.853  0.00  0.00    +0.191 C 
ATOM     18  C   UNL     1       0.846   2.667 -23.704  0.00  0.00    +0.133 C 
ATOM     19  C   UNL     1      -0.125   2.425 -22.698  0.00  0.00    +0.071 C 
ATOM     20  C   UNL     1      -1.469   2.808 -23.008  0.00  0.00    +0.072 C 
ATOM     21  C   UNL     1       0.118   1.973 -21.737  0.00  0.00    +0.192 C 
ENDROOT
BRANCH   9  22
ATOM     22  O   UNL     1      -5.589   2.960 -21.533  0.00  0.00    -0.491 OA
ATOM     23  C   UNL     1      -6.741   2.553 -21.831  0.00  0.00    +0.277 C 
ENDBRANCH   9  22
BRANCH  21  24
ATOM     24  O   UNL     1       0.489   1.446 -20.655  0.00  0.00    -0.385 OA
ATOM     25  H   UNL     1      -0.062   0.671 -20.468  0.00  0.00    +0.210 HD
ENDBRANCH  21  24
BRANCH   1  26
ATOM     26  O   UNL     1       2.173   1.903 -22.486  0.00  0.00    -0.344 OA
BRANCH  26  27
ATOM     27  C   UNL     1       2.594   0.762 -22.811  0.00  0.00    +0.323 C 
BRANCH  27  29
ATOM     28  C   UNL     1       3.819   0.365 -21.052  0.00  0.00    +0.196 C 
ATOM     29  O   UNL     1       3.007  -0.033 -21.926  0.00  0.00    -0.357 OA
ENDBRANCH  27  29
ENDBRANCH  26  27
ENDBRANCH   1  26
TORSDOF 5
ENDMDL
