MODEL 1
REMARK VINA RESULT:   -11.339      0.000      0.000
REMARK INTER + INTRA:         -12.146
REMARK INTER:                 -12.025
REMARK INTRA:                  -0.120
REMARK UNBOUND:                -0.143
REMARK  Name = COc1ccc2c3c1O[C@]1(C)C=C(Cl)C=C4[C@@H](C2)N(C)CC[C@@]431             ZINC000100393558
REMARK  4 active torsions:
REMARK  status: ('A' for Active; 'I' for Inactive)
REMARK    1  A    between atoms: C_1  and  O_2
REMARK    2  A    between atoms: O_2  and  C_3
REMARK    3  A    between atoms: C_10  and  C_11
REMARK    4  A    between atoms: N_19  and  C_20
REMARK                            x       y       z     vdW  Elec       q    Type
REMARK                         _______ _______ _______ _____ _____    ______ ____
ROOT
ATOM      1  C   UNL     1       1.253   1.943 -22.716  0.00  0.00    +0.162 A 
ATOM      2  C   UNL     1       1.081   1.534 -21.530  0.00  0.00    +0.050 A 
ATOM      3  C   UNL     1      -0.049   1.595 -20.996  0.00  0.00    +0.008 A 
ATOM      4  C   UNL     1      -1.020   2.063 -21.637  0.00  0.00    -0.034 A 
ATOM      5  C   UNL     1      -0.869   2.475 -22.819  0.00  0.00    +0.016 A 
ATOM      6  C   UNL     1      -1.838   2.941 -23.456  0.00  0.00    +0.074 C 
ATOM      7  C   UNL     1      -2.865   3.490 -24.277  0.00  0.00    +0.071 C 
ATOM      8  C   UNL     1      -4.151   3.571 -23.700  0.00  0.00    +0.133 C 
ATOM      9  N   UNL     1      -4.304   3.106 -22.377  0.00  0.00    +0.239 N 
ATOM     10  H   UNL     1      -5.213   3.143 -21.917  0.00  0.00    +0.204 HD
ATOM     11  C   UNL     1      -5.409   3.141 -21.792  0.00  0.00    +0.191 C 
ATOM     12  C   UNL     1      -3.137   2.593 -21.738  0.00  0.00    +0.096 C 
ATOM     13  C   UNL     1      -2.969   3.002 -22.923  0.00  0.00    -0.006 C 
ATOM     14  C   UNL     1      -3.949   3.474 -23.569  0.00  0.00    +0.025 C 
ATOM     15  C   UNL     1      -3.789   3.881 -24.742  0.00  0.00    +0.041 C 
ATOM     16 CL   UNL     1      -4.760   4.347 -25.378  0.00  0.00    -0.084 Cl
ATOM     17  C   UNL     1      -2.649   3.822 -25.287  0.00  0.00    +0.041 C 
ATOM     18  C   UNL     1      -1.679   3.355 -24.649  0.00  0.00    +0.141 C 
ATOM     19  C   UNL     1      -1.241   3.680 -25.777  0.00  0.00    +0.061 C 
ATOM     20  O   UNL     1      -0.209   3.015 -24.653  0.00  0.00    -0.477 OA
ATOM     21  C   UNL     1      -2.171   2.126 -21.096  0.00  0.00    +0.094 C 
ATOM     22  C   UNL     1       0.270   2.415 -23.361  0.00  0.00    +0.168 A 
ENDROOT
BRANCH   1  24
ATOM     23  C   UNL     1       3.021   0.803 -23.243  0.00  0.00    +0.277 C 
ATOM     24  O   UNL     1       2.384   1.881 -23.247  0.00  0.00    -0.491 OA
ENDBRANCH   1  24
TORSDOF 1
ENDMDL
