MODEL 1
REMARK VINA RESULT:    -9.838      0.000      0.000
REMARK INTER + INTRA:         -12.204
REMARK INTER:                 -11.553
REMARK INTRA:                  -0.651
REMARK UNBOUND:                -0.066
REMARK  Name = ZINC000004029241
REMARK  4 active torsions:
REMARK  status: ('A' for Active; 'I' for Inactive)
REMARK    1  A    between atoms: C_2  and  O_3
REMARK    2  A    between atoms: C_2  and  C_15
REMARK    3  A    between atoms: O_3  and  C_4
REMARK    4  A    between atoms: C_4  and  C_5
REMARK                            x       y       z     vdW  Elec       q    Type
REMARK                         _______ _______ _______ _____ _____    ______ ____
ROOT
ATOM      1  C   UNL     1      -1.374   4.331 -24.292  0.00  0.00    +0.241 C 
ENDROOT
BRANCH   1   2
ATOM      2  C   UNL     1      -2.651   4.146 -24.137  0.00  0.00    +0.075 C 
ATOM      3  C   UNL     1      -3.470   4.412 -25.112  0.00  0.00    +0.017 C 
ATOM      4  C   UNL     1      -4.747   4.227 -24.957  0.00  0.00    +0.051 C 
ATOM      5  C   UNL     1      -5.206   3.778 -23.827  0.00  0.00    +0.131 C 
ATOM      6  N   UNL     1      -4.388   3.513 -22.852  0.00  0.00    +0.238 N 
ATOM      7  H   UNL     1      -5.175   3.225 -22.269  0.00  0.00    +0.204 HD
ATOM      8  C   UNL     1      -4.848   3.063 -21.722  0.00  0.00    +0.131 C 
ATOM      9  C   UNL     1      -4.030   2.798 -20.747  0.00  0.00    +0.051 C 
ATOM     10  C   UNL     1      -2.753   2.982 -20.902  0.00  0.00    +0.011 C 
ATOM     11  C   UNL     1      -2.294   3.432 -22.032  0.00  0.00    +0.055 C 
ATOM     12  C   UNL     1      -3.111   3.697 -23.007  0.00  0.00    +0.071 C 
ENDBRANCH   1   2
BRANCH   1  13
ATOM     13  O   UNL     1      -0.645   3.403 -24.836  0.00  0.00    -0.461 OA
BRANCH  13  15
ATOM     14  O   UNL     1       1.188   4.119 -25.930  0.00  0.00    -0.245 OA
ATOM     15  C   UNL     1       0.646   3.544 -24.899  0.00  0.00    +0.339 C 
BRANCH  15  16
ATOM     16  C   UNL     1       1.394   3.108 -23.930  0.00  0.00    +0.059 A 
ATOM     17  C   UNL     1       0.966   2.154 -23.156  0.00  0.00    +0.016 A 
ATOM     18  C   UNL     1       1.713   1.719 -22.187  0.00  0.00    +0.021 A 
ATOM     19  C   UNL     1       2.890   2.236 -21.990  0.00  0.00    +0.041 A 
ATOM     20  C   UNL     1       3.319   3.190 -22.763  0.00  0.00    +0.021 A 
ATOM     21 CL   UNL     1       3.638   1.800 -21.020  0.00  0.00    -0.084 Cl
ATOM     22  C   UNL     1       2.570   3.626 -23.733  0.00  0.00    +0.016 A 
ENDBRANCH  15  16
ENDBRANCH  13  15
ENDBRANCH   1  13
TORSDOF 4
ENDMDL
