MODEL 1
REMARK VINA RESULT:   -11.002      0.000      0.000
REMARK INTER + INTRA:         -11.667
REMARK INTER:                 -11.518
REMARK INTRA:                  -0.149
REMARK UNBOUND:                -0.022
REMARK  Name = COc1ccc2c3c1O[C@@H]1[C@@H](Cl)C=C[C@@H]4[C@@H](C2)N(C)CC[C@]314      ZINC000253504155
REMARK  3 active torsions:
REMARK  status: ('A' for Active; 'I' for Inactive)
REMARK    1  A    between atoms: C_1  and  O_2
REMARK    2  A    between atoms: O_2  and  C_3
REMARK    3  A    between atoms: N_18  and  C_19
REMARK                            x       y       z     vdW  Elec       q    Type
REMARK                         _______ _______ _______ _____ _____    ______ ____
ROOT
ATOM      1  C   UNL     1       0.919   2.250 -23.270  0.00  0.00    +0.162 A 
ATOM      2  C   UNL     1       0.883   1.880 -22.062  0.00  0.00    +0.050 A 
ATOM      3  C   UNL     1      -0.190   1.904 -21.423  0.00  0.00    +0.008 A 
ATOM      4  C   UNL     1      -1.237   2.299 -21.984  0.00  0.00    -0.034 A 
ATOM      5  C   UNL     1      -1.224   2.671 -23.185  0.00  0.00    +0.012 A 
ATOM      6  C   UNL     1      -2.271   3.064 -23.739  0.00  0.00    +0.054 C 
ATOM      7  C   UNL     1      -3.398   3.530 -24.476  0.00  0.00    +0.067 C 
ATOM      8  C   UNL     1      -4.623   3.569 -23.783  0.00  0.00    +0.132 C 
ATOM      9  N   UNL     1      -4.626   3.149 -22.438  0.00  0.00    +0.236 N 
ATOM     10  H   UNL     1      -5.486   3.158 -21.890  0.00  0.00    +0.203 HD
ATOM     11  C   UNL     1      -5.670   3.153 -21.753  0.00  0.00    +0.190 C 
ATOM     12  C   UNL     1      -3.382   2.720 -21.897  0.00  0.00    +0.076 C 
ATOM     13  C   UNL     1      -3.347   3.090 -23.104  0.00  0.00    +0.075 C 
ATOM     14  C   UNL     1      -4.407   3.488 -23.667  0.00  0.00    -0.020 C 
ATOM     15  C   UNL     1      -4.377   3.855 -24.861  0.00  0.00    -0.008 C 
ATOM     16  C   UNL     1      -3.297   3.832 -25.513  0.00  0.00    +0.144 C 
ATOM     17 CL   UNL     1      -3.273   4.200 -26.705  0.00  0.00    -0.113 Cl
ATOM     18  C   UNL     1      -2.250   3.438 -24.952  0.00  0.00    +0.207 C 
ATOM     19  O   UNL     1      -0.770   3.171 -25.088  0.00  0.00    -0.482 OA
ATOM     20  C   UNL     1      -2.335   2.326 -21.338  0.00  0.00    +0.090 C 
ATOM     21  C   UNL     1      -0.142   2.648 -23.832  0.00  0.00    +0.167 A 
ENDROOT
BRANCH   1  23
ATOM     22  C   UNL     1       2.710   3.247 -23.967  0.00  0.00    +0.277 C 
ATOM     23  O   UNL     1       1.995   2.223 -23.904  0.00  0.00    -0.491 OA
ENDBRANCH   1  23
TORSDOF 1
ENDMDL
