MODEL 1
REMARK VINA RESULT:   -10.399      0.000      0.000
REMARK INTER + INTRA:         -10.202
REMARK INTER:                 -11.148
REMARK INTRA:                   0.947
REMARK UNBOUND:                 1.413
REMARK  Name = COC1=C2Oc3c(OC)ccc4c3[C@]23CCN(C=O)[C@H](C4)[C@H]3C=C1               ZINC000100393493
REMARK  4 active torsions:
REMARK  status: ('A' for Active; 'I' for Inactive)
REMARK    1  A    between atoms: C_1  and  O_2
REMARK    2  A    between atoms: O_2  and  C_3
REMARK    3  A    between atoms: C_7  and  O_8
REMARK    4  A    between atoms: O_8  and  C_9
REMARK                            x       y       z     vdW  Elec       q    Type
REMARK                         _______ _______ _______ _____ _____    ______ ____
ROOT
ATOM      1  C   UNL     1      -2.767   3.710 -25.315  0.00  0.00    +0.159 C 
ATOM      2  C   UNL     1      -1.627   3.360 -24.927  0.00  0.00    +0.158 C 
ATOM      3  O   UNL     1      -0.164   3.206 -25.278  0.00  0.00    -0.452 OA
ATOM      4  C   UNL     1       0.666   2.656 -24.152  0.00  0.00    +0.174 A 
ATOM      5  C   UNL     1       1.819   2.302 -23.763  0.00  0.00    +0.162 A 
ATOM      6  C   UNL     1       1.974   1.861 -22.585  0.00  0.00    +0.050 A 
ATOM      7  C   UNL     1       0.998   1.775 -21.808  0.00  0.00    +0.008 A 
ATOM      8  C   UNL     1      -0.141   2.125 -22.196  0.00  0.00    -0.038 A 
ATOM      9  C   UNL     1      -1.142   2.039 -21.406  0.00  0.00    +0.058 C 
ATOM     10  C   UNL     1      -2.280   2.389 -21.793  0.00  0.00    +0.088 C 
ATOM     11  C   UNL     1      -2.437   2.830 -22.970  0.00  0.00    +0.051 C 
ATOM     12  C   UNL     1      -3.589   3.183 -23.359  0.00  0.00    -0.017 C 
ATOM     13  N   UNL     1      -3.615   2.761 -22.134  0.00  0.00    -0.300 N 
ATOM     14  C   UNL     1      -4.571   2.655 -21.313  0.00  0.00    +0.328 C 
ATOM     15  O   UNL     1      -4.373   2.213 -20.155  0.00  0.00    -0.279 OA
ATOM     16  C   UNL     1      -3.825   3.256 -23.440  0.00  0.00    +0.109 C 
ATOM     17  C   UNL     1      -2.704   3.343 -24.295  0.00  0.00    +0.039 C 
ATOM     18  C   UNL     1      -0.319   2.567 -23.364  0.00  0.00    +0.016 A 
ATOM     19  C   UNL     1      -1.458   2.915 -23.746  0.00  0.00    +0.070 C 
ATOM     20  C   UNL     1      -3.748   3.619 -24.522  0.00  0.00    +0.045 C 
ENDROOT
BRANCH   1  22
ATOM     21  C   UNL     1      -3.340   3.383 -27.380  0.00  0.00    +0.277 C 
ATOM     22  O   UNL     1      -2.931   4.147 -26.477  0.00  0.00    -0.492 OA
ENDBRANCH   1  22
BRANCH   5  23
ATOM     23  O   UNL     1       2.800   2.387 -24.538  0.00  0.00    -0.491 OA
ATOM     24  C   UNL     1       3.965   2.309 -24.087  0.00  0.00    +0.277 C 
ENDBRANCH   5  23
TORSDOF 2
ENDMDL
