MODEL 1
REMARK VINA RESULT:   -10.464      0.000      0.000
REMARK INTER + INTRA:          -7.131
REMARK INTER:                 -10.399
REMARK INTRA:                   3.267
REMARK UNBOUND:                 3.945
REMARK  Name = CC(=O)O[C@H]1c2occ(C)c2[C@H]2C=C(CC[C@@H]3O[C@]31C)C(=O)O2           ZINC000253390667
REMARK  5 active torsions:
REMARK  status: ('A' for Active; 'I' for Inactive)
REMARK    1  A    between atoms: C_1  and  C_2
REMARK    2  A    between atoms: C_2  and  O_4
REMARK    3  A    between atoms: O_4  and  C_5
REMARK    4  A    between atoms: C_9  and  C_10
REMARK    5  A    between atoms: C_19  and  C_20
REMARK                            x       y       z     vdW  Elec       q    Type
REMARK                         _______ _______ _______ _____ _____    ______ ____
ROOT
ATOM      1  C   UNL     1      -3.430   3.216 -23.089  0.00  0.00    +0.276 C 
ATOM      2  C   UNL     1      -2.119   2.961 -22.824  0.00  0.00    +0.155 A 
ATOM      3  O   UNL     1      -1.391   2.732 -21.795  0.00  0.00    -0.463 OA
ATOM      4  C   UNL     1      -0.187   2.563 -22.198  0.00  0.00    +0.199 A 
ATOM      5  C   UNL     1      -0.170   2.686 -23.472  0.00  0.00    -0.005 A 
ATOM      6  C   UNL     1       0.855   2.584 -24.234  0.00  0.00    +0.047 C 
ATOM      7  C   UNL     1      -1.367   2.933 -23.856  0.00  0.00    +0.044 A 
ATOM      8  C   UNL     1      -1.917   3.138 -24.957  0.00  0.00    +0.234 C 
ATOM      9  C   UNL     1      -3.158   3.330 -24.717  0.00  0.00    +0.032 C 
ATOM     10  C   UNL     1      -3.748   3.543 -25.827  0.00  0.00    +0.037 C 
ATOM     11  C   UNL     1      -2.871   3.484 -26.767  0.00  0.00    +0.336 C 
ATOM     12  O   UNL     1      -3.091   3.646 -28.017  0.00  0.00    -0.245 OA
ATOM     13  C   UNL     1      -4.968   3.744 -25.711  0.00  0.00    +0.045 C 
ATOM     14  C   UNL     1      -5.733   3.754 -24.471  0.00  0.00    +0.039 C 
ATOM     15  C   UNL     1      -5.543   3.571 -22.965  0.00  0.00    +0.155 C 
ATOM     16  O   UNL     1      -5.625   3.459 -21.692  0.00  0.00    -0.361 OA
ATOM     17  O   UNL     1      -1.738   3.233 -26.225  0.00  0.00    -0.449 OA
ATOM     18  C   UNL     1      -4.491   3.320 -22.274  0.00  0.00    +0.137 C 
ATOM     19  C   UNL     1      -4.137   3.173 -21.417  0.00  0.00    +0.048 C 
ENDROOT
BRANCH   1  20
ATOM     20  O   UNL     1      -2.921   2.983 -21.636  0.00  0.00    -0.451 OA
BRANCH  20  22
ATOM     21  C   UNL     1      -3.099   3.684 -19.493  0.00  0.00    +0.136 C 
ATOM     22  C   UNL     1      -2.744   3.930 -20.716  0.00  0.00    +0.305 C 
ATOM     23  O   UNL     1      -2.236   5.073 -21.003  0.00  0.00    -0.251 OA
ENDBRANCH  20  22
ENDBRANCH   1  20
TORSDOF 2
ENDMDL
