MODEL 1
REMARK VINA RESULT:    -9.298      0.000      0.000
REMARK INTER + INTRA:         -17.351
REMARK INTER:                 -15.327
REMARK INTRA:                  -2.024
REMARK UNBOUND:                -0.443
REMARK  Name = ZINC000096316339
REMARK  16 active torsions:
REMARK  status: ('A' for Active; 'I' for Inactive)
REMARK    1  A    between atoms: C_1  and  C_2
REMARK    2  A    between atoms: C_2  and  C_3
REMARK    3  A    between atoms: C_3  and  C_4
REMARK    4  A    between atoms: C_4  and  C_5
REMARK    5  A    between atoms: C_5  and  C_6
REMARK    6  A    between atoms: C_6  and  C_7
REMARK    7  A    between atoms: C_7  and  C_8
REMARK    8  A    between atoms: C_8  and  C_9
REMARK    9  A    between atoms: C_9  and  C_10
REMARK   10  A    between atoms: C_10  and  C_11
REMARK   11  A    between atoms: C_11  and  C_12
REMARK   12  A    between atoms: C_13  and  O_14
REMARK   13  A    between atoms: C_15  and  O_16
REMARK   14  A    between atoms: C_23  and  N_24
REMARK   15  A    between atoms: N_24  and  S_25
REMARK   16  A    between atoms: S_25  and  N_28
REMARK                            x       y       z     vdW  Elec       q    Type
REMARK                         _______ _______ _______ _____ _____    ______ ____
ROOT
ATOM      1  C   UNL     1       2.060   3.866 -24.144  0.00  0.00    +0.025 A 
ATOM      2  C   UNL     1       1.884   2.700 -24.690  0.00  0.00    +0.164 A 
ATOM      3  C   UNL     1       2.859   1.841 -24.724  0.00  0.00    +0.161 A 
ATOM      4  C   UNL     1       4.013   2.150 -24.211  0.00  0.00    +0.079 A 
ATOM      5  C   UNL     1       4.192   3.314 -23.664  0.00  0.00    +0.094 A 
ATOM      6  N   UNL     1       5.346   3.621 -23.152  0.00  0.00    -0.243 NA
ATOM      7  C   UNL     1       5.526   4.787 -22.605  0.00  0.00    +0.090 A 
ATOM      8  C   UNL     1       6.680   5.093 -22.093  0.00  0.00    +0.032 A 
ATOM      9  C   UNL     1       6.861   6.258 -21.546  0.00  0.00    +0.027 A 
ATOM     10  C   UNL     1       5.885   7.117 -21.512  0.00  0.00    +0.051 A 
ATOM     11  C   UNL     1       4.730   6.812 -22.024  0.00  0.00    +0.054 A 
ATOM     12  C   UNL     1       4.551   5.644 -22.571  0.00  0.00    +0.092 A 
ATOM     13  N   UNL     1       3.395   5.340 -23.083  0.00  0.00    -0.243 NA
ATOM     14  C   UNL     1       3.217   4.174 -23.630  0.00  0.00    +0.097 A 
ENDROOT
BRANCH   2  15
ATOM     15  O   UNL     1       0.729   2.393 -25.203  0.00  0.00    -0.503 OA
ATOM     16  H   UNL     1       0.034   3.021 -25.202  0.00  0.00    +0.292 HD
ENDBRANCH   2  15
BRANCH   3  17
ATOM     17  O   UNL     1       2.681   0.676 -25.270  0.00  0.00    -0.503 OA
ATOM     18  H   UNL     1       2.549  -0.078 -24.731  0.00  0.00    +0.292 HD
ENDBRANCH   3  17
BRANCH  10  19
ATOM     19  N   UNL     1       6.065   8.283 -20.965  0.00  0.00    -0.206 N 
ATOM     20  H   UNL     1       6.792   8.416 -20.315  0.00  0.00    +0.175 HD
BRANCH  19  21
ATOM     21  S   UNL     1       5.284   9.274 -21.276  0.00  0.00    +0.112 S 
ATOM     22  O   UNL     1       6.086   9.602 -22.245  0.00  0.00    -0.138 OA
ATOM     23  O   UNL     1       4.482   8.947 -20.308  0.00  0.00    -0.138 OA
BRANCH  21  24
ATOM     24  N   UNL     1       4.502  10.267 -21.588  0.00  0.00    -0.164 NA
ATOM     25  C   UNL     1       4.074  10.393 -22.808  0.00  0.00    +0.111 C 
ATOM     26  C   UNL     1       3.292  11.386 -23.122  0.00  0.00    +0.017 C 
ATOM     27  C   UNL     1       2.943  12.247 -22.214  0.00  0.00    +0.003 C 
ATOM     28  C   UNL     1       3.371  12.120 -20.995  0.00  0.00    +0.017 C 
ATOM     29  C   UNL     1       4.153  11.127 -20.681  0.00  0.00    +0.111 C 
ENDBRANCH  21  24
ENDBRANCH  19  21
ENDBRANCH  10  19
BRANCH   1  30
ATOM     30  C   UNL     1       1.086   4.726 -24.109  0.00  0.00    +0.041 C 
BRANCH  30  31
ATOM     31  C   UNL     1       0.303   4.779 -23.073  0.00  0.00    +0.005 C 
BRANCH  31  32
ATOM     32  C   UNL     1      -0.973   4.977 -23.232  0.00  0.00    +0.000 C 
BRANCH  32  33
ATOM     33  C   UNL     1      -1.814   4.016 -22.990  0.00  0.00    +0.000 C 
BRANCH  33  34
ATOM     34  C   UNL     1      -1.936   3.549 -21.782  0.00  0.00    +0.000 C 
BRANCH  34  35
ATOM     35  C   UNL     1      -2.002   2.266 -21.585  0.00  0.00    +0.000 C 
BRANCH  35  36
ATOM     36  C   UNL     1      -0.968   1.517 -21.831  0.00  0.00    -0.000 C 
BRANCH  36  37
ATOM     37  C   UNL     1       0.074   1.574 -21.056  0.00  0.00    -0.000 C 
BRANCH  37  38
ATOM     38  C   UNL     1       1.264   1.416 -21.555  0.00  0.00    -0.000 C 
BRANCH  38  40
ATOM     39  C   UNL     1       3.350   0.806 -20.967  0.00  0.00    +0.004 C 
ATOM     40  C   UNL     1       2.311   1.569 -20.800  0.00  0.00    -0.003 C 
ENDBRANCH  38  40
ENDBRANCH  37  38
ENDBRANCH  36  37
ENDBRANCH  35  36
ENDBRANCH  34  35
ENDBRANCH  33  34
ENDBRANCH  32  33
ENDBRANCH  31  32
ENDBRANCH  30  31
ENDBRANCH   1  30
TORSDOF 15
ENDMDL
