MODEL 1
REMARK VINA RESULT:    -8.109      0.000      0.000
REMARK INTER + INTRA:         -15.705
REMARK INTER:                 -13.881
REMARK INTRA:                  -1.823
REMARK UNBOUND:                -1.907
REMARK  Name = ZINC000085638768
REMARK  14 active torsions:
REMARK  status: ('A' for Active; 'I' for Inactive)
REMARK    1  A    between atoms: C_1  and  C_2
REMARK    2  A    between atoms: C_2  and  C_3
REMARK    3  A    between atoms: C_3  and  C_4
REMARK    4  A    between atoms: C_4  and  C_5
REMARK    5  A    between atoms: C_5  and  C_6
REMARK    6  A    between atoms: C_6  and  C_7
REMARK    7  A    between atoms: C_7  and  C_8
REMARK    8  A    between atoms: C_8  and  C_9
REMARK    9  A    between atoms: C_9  and  C_10
REMARK   10  A    between atoms: C_10  and  C_11
REMARK   11  A    between atoms: C_11  and  C_12
REMARK   12  A    between atoms: C_12  and  C_13
REMARK   13  A    between atoms: C_13  and  C_14
REMARK   14  A    between atoms: O_21  and  C_22
REMARK                            x       y       z     vdW  Elec       q    Type
REMARK                         _______ _______ _______ _____ _____    ______ ____
ROOT
ATOM      1  C   UNL     1      -0.686   4.941 -23.421  0.00  0.00    +0.005 C 
ENDROOT
BRANCH   1   2
ATOM      2  C   UNL     1      -1.314   4.883 -22.283  0.00  0.00    +0.000 C 
BRANCH   2   3
ATOM      3  C   UNL     1      -2.056   3.854 -22.001  0.00  0.00    +0.000 C 
BRANCH   3   4
ATOM      4  C   UNL     1      -2.549   3.716 -20.807  0.00  0.00    +0.000 C 
BRANCH   4   5
ATOM      5  C   UNL     1      -3.822   3.509 -20.649  0.00  0.00    +0.000 C 
BRANCH   5   6
ATOM      6  C   UNL     1      -4.437   2.636 -21.391  0.00  0.00    -0.000 C 
BRANCH   6   7
ATOM      7  C   UNL     1      -5.576   2.938 -21.940  0.00  0.00    -0.000 C 
BRANCH   7   8
ATOM      8  C   UNL     1      -5.630   3.852 -22.863  0.00  0.00    -0.000 C 
BRANCH   8   9
ATOM      9  C   UNL     1      -5.194   3.593 -24.061  0.00  0.00    -0.000 C 
BRANCH   9  10
ATOM     10  C   UNL     1      -4.552   4.503 -24.730  0.00  0.00    -0.000 C 
BRANCH  10  12
ATOM     11  C   UNL     1      -3.142   2.948 -25.548  0.00  0.00    +0.004 C 
ATOM     12  C   UNL     1      -3.624   4.157 -25.572  0.00  0.00    -0.003 C 
ENDBRANCH  10  12
ENDBRANCH   9  10
ENDBRANCH   8   9
ENDBRANCH   7   8
ENDBRANCH   6   7
ENDBRANCH   5   6
ENDBRANCH   4   5
ENDBRANCH   3   4
ENDBRANCH   2   3
ENDBRANCH   1   2
BRANCH   1  13
ATOM     13  C   UNL     1      -0.078   3.889 -23.882  0.00  0.00    +0.038 C 
BRANCH  13  14
ATOM     14  C   UNL     1       1.074   3.537 -23.392  0.00  0.00    -0.011 C 
ATOM     15  C   UNL     1       2.069   4.374 -23.405  0.00  0.00    +0.169 C 
ATOM     16  C   UNL     1       3.220   4.022 -22.914  0.00  0.00    -0.089 C 
ATOM     17  C   UNL     1       3.377   2.834 -22.411  0.00  0.00    +0.034 C 
ATOM     18  C   UNL     1       2.382   1.997 -22.397  0.00  0.00    +0.107 C 
ATOM     19  O   UNL     1       2.538   0.809 -21.894  0.00  0.00    -0.496 OA
ATOM     20  C   UNL     1       3.690   0.457 -21.403  0.00  0.00    +0.277 C 
ATOM     21  O   UNL     1       4.215   4.859 -22.927  0.00  0.00    -0.826 OA
ATOM     22  O   UNL     1       1.912   5.562 -23.908  0.00  0.00    -0.289 OA
ATOM     23  C   UNL     1       1.231   2.348 -22.888  0.00  0.00    -0.091 C 
ATOM     24  O   UNL     1       0.236   1.512 -22.875  0.00  0.00    -0.826 OA
ENDBRANCH  13  14
ENDBRANCH   1  13
TORSDOF 12
ENDMDL
