MODEL 1
REMARK VINA RESULT:   -10.107      0.000      0.000
REMARK INTER + INTRA:         -10.107
REMARK INTER:                 -10.107
REMARK INTRA:                   0.000
REMARK UNBOUND:                 0.000
REMARK  Name = ZINC000044602242
REMARK  1 active torsions:
REMARK  status: ('A' for Active; 'I' for Inactive)
REMARK    1  A    between atoms: C_8  and  C_9
REMARK                            x       y       z     vdW  Elec       q    Type
REMARK                         _______ _______ _______ _____ _____    ______ ____
ROOT
ATOM      1  C   UNL     1       0.480   1.508 -21.102  0.00  0.00    +0.020 C 
ATOM      2  C   UNL     1       0.160   2.038 -22.245  0.00  0.00    +0.036 C 
ATOM      3  C   UNL     1       0.966   2.251 -23.241  0.00  0.00    +0.335 C 
ATOM      4  O   UNL     1       0.280   2.793 -24.204  0.00  0.00    -0.457 OA
ATOM      5  C   UNL     1      -0.950   2.914 -23.801  0.00  0.00    +0.185 C 
ATOM      6  C   UNL     1      -2.011   3.389 -24.381  0.00  0.00    +0.052 C 
ATOM      7  C   UNL     1      -3.149   3.398 -23.752  0.00  0.00    -0.022 C 
ATOM      8  C   UNL     1      -4.210   3.873 -24.332  0.00  0.00    +0.007 C 
ATOM      9  C   UNL     1      -5.347   3.882 -23.701  0.00  0.00    +0.005 C 
ATOM     10  C   UNL     1      -5.422   3.415 -22.490  0.00  0.00    +0.030 C 
ATOM     11  C   UNL     1      -4.360   2.939 -21.909  0.00  0.00    -0.073 C 
ATOM     12  C   UNL     1      -4.435   2.472 -20.698  0.00  0.00    +0.008 C 
ATOM     13  C   UNL     1      -3.074   3.865 -24.963  0.00  0.00    +0.012 C 
ATOM     14  C   UNL     1      -3.223   2.931 -22.540  0.00  0.00    +0.021 C 
ATOM     15  C   UNL     1      -2.161   2.456 -21.960  0.00  0.00    +0.020 C 
ATOM     16  O   UNL     1       2.235   1.972 -23.270  0.00  0.00    -0.245 OA
ATOM     17  C   UNL     1      -1.025   2.447 -22.590  0.00  0.00    +0.067 C 
ENDROOT
TORSDOF 0
ENDMDL
