MODEL 1
REMARK VINA RESULT:   -10.671      0.000      0.000
REMARK INTER + INTRA:         -10.983
REMARK INTER:                 -10.983
REMARK INTRA:                   0.000
REMARK UNBOUND:                 0.000
REMARK  Name = ZINC000096316367
REMARK  1 active torsions:
REMARK  status: ('A' for Active; 'I' for Inactive)
REMARK    1  A    between atoms: C_19  and  O_20
REMARK                            x       y       z     vdW  Elec       q    Type
REMARK                         _______ _______ _______ _____ _____    ______ ____
ROOT
ATOM      1  O   UNL     1       1.204   3.882 -25.999  0.00  0.00    -0.279 OA
ATOM      2  C   UNL     1       0.226   3.771 -25.400  0.00  0.00    +0.328 C 
ATOM      3  N   UNL     1      -0.585   3.341 -24.129  0.00  0.00    -0.300 N 
ATOM      4  C   UNL     1      -1.296   3.051 -23.214  0.00  0.00    +0.109 C 
ATOM      5  C   UNL     1      -0.958   2.535 -22.152  0.00  0.00    +0.031 C 
ATOM      6  C   UNL     1      -0.043   2.326 -21.995  0.00  0.00    +0.009 C 
ATOM      7  C   UNL     1       0.393   1.794 -20.930  0.00  0.00    +0.086 C 
ATOM      8  C   UNL     1       1.663   1.546 -20.809  0.00  0.00    +0.134 C 
ATOM      9  C   UNL     1       2.514   1.840 -21.782  0.00  0.00    +0.075 C 
ATOM     10  C   UNL     1       2.099   2.390 -22.897  0.00  0.00    +0.014 C 
ATOM     11  O   UNL     1       2.020   0.993 -19.666  0.00  0.00    -0.297 OA
ATOM     12  C   UNL     1      -1.645   2.745 -22.390  0.00  0.00    -0.034 A 
ATOM     13  C   UNL     1      -2.452   2.447 -21.422  0.00  0.00    +0.051 A 
ATOM     14  C   UNL     1      -3.705   2.690 -21.539  0.00  0.00    +0.131 A 
ATOM     15  C   UNL     1      -4.163   3.233 -22.622  0.00  0.00    +0.059 A 
ATOM     16 BR   UNL     1      -5.436   3.415 -22.588  0.00  0.00    -0.047 Br
ATOM     17  C   UNL     1      -3.352   3.534 -23.597  0.00  0.00    +0.023 A 
ATOM     18  C   UNL     1      -2.095   3.294 -23.490  0.00  0.00    -0.041 A 
ATOM     19  C   UNL     1      -1.307   3.559 -24.376  0.00  0.00    +0.058 C 
ATOM     20  C   UNL     1       0.870   2.650 -23.059  0.00  0.00    +0.021 C 
ATOM     21  C   UNL     1       0.279   3.215 -24.146  0.00  0.00    +0.084 C 
ENDROOT
BRANCH  14  22
ATOM     22  O   UNL     1      -4.449   2.347 -20.489  0.00  0.00    -0.506 OA
ATOM     23  H   UNL     1      -4.806   1.483 -20.430  0.00  0.00    +0.292 HD
ENDBRANCH  14  22
TORSDOF 1
ENDMDL
