MODEL 1
REMARK VINA RESULT:   -12.280      0.000      0.000
REMARK INTER + INTRA:         -12.280
REMARK INTER:                 -12.280
REMARK INTRA:                   0.000
REMARK UNBOUND:                 0.000
REMARK  Name = ZINC000000119434
REMARK  0 active torsions:
REMARK  status: ('A' for Active; 'I' for Inactive)
REMARK                            x       y       z     vdW  Elec       q    Type
REMARK                         _______ _______ _______ _____ _____    ______ ____
ROOT
ATOM      1  O   UNL     1      -3.594   2.424 -20.745  0.00  0.00    -0.275 OA
ATOM      2  C   UNL     1      -2.567   2.411 -21.403  0.00  0.00    +0.223 C 
ATOM      3  C   UNL     1      -1.533   2.031 -20.887  0.00  0.00    +0.128 C 
ATOM      4  C   UNL     1      -0.492   2.004 -21.508  0.00  0.00    +0.133 C 
ATOM      5  O   UNL     1       0.391   1.589 -20.777  0.00  0.00    -0.372 OA
ATOM      6  C   UNL     1       1.565   1.426 -21.052  0.00  0.00    +0.187 C 
ATOM      7  C   UNL     1       2.138   1.630 -22.097  0.00  0.00    +0.005 C 
ATOM      8  C   UNL     1       1.688   2.049 -23.133  0.00  0.00    -0.023 C 
ATOM      9  C   UNL     1       1.379   2.851 -25.494  0.00  0.00    +0.163 C 
ATOM     10  N   UNL     1      -0.990   3.525 -26.045  0.00  0.00    +0.241 N 
ATOM     11  H   UNL     1      -1.186   3.861 -26.988  0.00  0.00    +0.204 HD
ATOM     12  C   UNL     1      -2.177   3.757 -25.983  0.00  0.00    +0.133 C 
ATOM     13  C   UNL     1      -2.569   3.492 -24.868  0.00  0.00    +0.070 C 
ATOM     14  C   UNL     1      -1.608   3.090 -24.229  0.00  0.00    +0.064 C 
ATOM     15  C   UNL     1      -2.770   3.397 -24.427  0.00  0.00    -0.012 A 
ATOM     16  C   UNL     1      -3.355   3.829 -25.411  0.00  0.00    +0.006 A 
ATOM     17  C   UNL     1      -4.555   4.065 -25.354  0.00  0.00    +0.000 A 
ATOM     18  C   UNL     1      -5.169   3.870 -24.313  0.00  0.00    +0.002 A 
ATOM     19  C   UNL     1      -4.583   3.439 -23.329  0.00  0.00    +0.024 A 
ATOM     20  C   UNL     1      -3.384   3.203 -23.385  0.00  0.00    +0.041 A 
ATOM     21  C   UNL     1      -1.502   2.712 -23.090  0.00  0.00    +0.104 C 
ATOM     22  C   UNL     1      -0.641   3.109 -24.949  0.00  0.00    +0.078 C 
ATOM     23  C   UNL     1       0.442   2.752 -24.539  0.00  0.00    +0.064 C 
ATOM     24  C   UNL     1       0.544   2.368 -23.379  0.00  0.00    +0.032 C 
ATOM     25  C   UNL     1      -0.422   2.348 -22.659  0.00  0.00    +0.048 C 
ATOM     26  N   UNL     1      -2.598   2.780 -22.564  0.00  0.00    -0.267 N 
ENDROOT
TORSDOF 0
ENDMDL
