MODEL 1
REMARK VINA RESULT:    -9.832      0.000      0.000
REMARK INTER + INTRA:         -10.119
REMARK INTER:                 -10.119
REMARK INTRA:                   0.000
REMARK UNBOUND:                 0.000
REMARK  Name = ZINC000004521522
REMARK  5 active torsions:
REMARK  status: ('A' for Active; 'I' for Inactive)
REMARK    1  A    between atoms: C_1  and  C_2
REMARK    2  A    between atoms: C_11  and  C_12
REMARK    3  A    between atoms: C_11  and  O_13
REMARK    4  A    between atoms: C_14  and  C_15
REMARK    5  A    between atoms: C_14  and  C_16
REMARK                            x       y       z     vdW  Elec       q    Type
REMARK                         _______ _______ _______ _____ _____    ______ ____
ROOT
ATOM      1  C   UNL     1      -1.453   3.725 -25.510  0.00  0.00    +0.008 C 
ATOM      2  C   UNL     1      -2.632   3.761 -24.965  0.00  0.00    -0.010 C 
ATOM      3  C   UNL     1      -3.713   4.230 -25.514  0.00  0.00    +0.004 C 
ATOM      4  C   UNL     1      -4.687   4.094 -24.663  0.00  0.00    +0.007 C 
ATOM      5  C   UNL     1      -4.208   3.540 -23.589  0.00  0.00    +0.024 C 
ATOM      6  C   UNL     1      -4.929   3.265 -22.543  0.00  0.00    +0.066 C 
ATOM      7  C   UNL     1      -6.033   3.227 -21.859  0.00  0.00    +0.041 C 
ATOM      8  C   UNL     1      -4.557   2.717 -21.425  0.00  0.00    +0.035 C 
ATOM      9  C   UNL     1      -3.373   2.308 -21.076  0.00  0.00    +0.007 C 
ATOM     10  C   UNL     1      -2.268   2.346 -21.761  0.00  0.00    -0.001 C 
ATOM     11  C   UNL     1      -1.082   2.301 -22.289  0.00  0.00    -0.028 C 
ATOM     12  C   UNL     1      -0.124   2.449 -23.157  0.00  0.00    +0.011 C 
ATOM     13  C   UNL     1      -0.421   1.749 -21.316  0.00  0.00    +0.011 C 
ATOM     14  C   UNL     1      -2.075   2.803 -22.962  0.00  0.00    +0.002 C 
ATOM     15  C   UNL     1      -2.938   3.334 -23.776  0.00  0.00    +0.002 C 
ENDROOT
BRANCH   6  16
ATOM     16  O   UNL     1      -5.791   3.796 -23.357  0.00  0.00    -0.389 OA
ATOM     17  H   UNL     1      -6.098   3.125 -23.987  0.00  0.00    +0.210 HD
ENDBRANCH   6  16
TORSDOF 1
ENDMDL
