MODEL 1
REMARK VINA RESULT:    -9.587      0.000      0.000
REMARK INTER + INTRA:          -9.587
REMARK INTER:                  -9.587
REMARK INTRA:                   0.000
REMARK UNBOUND:                 0.000
REMARK  Name = ZINC000000006256
REMARK  0 active torsions:
REMARK  status: ('A' for Active; 'I' for Inactive)
REMARK                            x       y       z     vdW  Elec       q    Type
REMARK                         _______ _______ _______ _____ _____    ______ ____
ROOT
ATOM      1  O   UNL     1      -5.909   3.421 -23.164  0.00  0.00    -0.285 OA
ATOM      2  C   UNL     1      -4.615   3.464 -23.277  0.00  0.00    +0.212 C 
ATOM      3  C   UNL     1      -3.871   3.505 -22.212  0.00  0.00    +0.032 A 
ATOM      4  C   UNL     1      -4.421   3.503 -21.034  0.00  0.00    +0.012 A 
ATOM      5  C   UNL     1      -3.677   3.544 -19.969  0.00  0.00    +0.001 A 
ATOM      6  C   UNL     1      -2.383   3.587 -20.081  0.00  0.00    +0.001 A 
ATOM      7  C   UNL     1      -1.832   3.589 -21.259  0.00  0.00    +0.009 A 
ATOM      8  C   UNL     1      -2.576   3.548 -22.324  0.00  0.00    -0.003 A 
ATOM      9  C   UNL     1      -2.026   3.551 -23.501  0.00  0.00    +0.038 A 
ATOM     10  C   UNL     1      -0.732   3.594 -23.614  0.00  0.00    +0.175 A 
ATOM     11  C   UNL     1      -0.181   3.597 -24.792  0.00  0.00    +0.167 A 
ATOM     12  O   UNL     1       1.109   3.644 -24.632  0.00  0.00    -0.453 OA
ATOM     13  C   UNL     1       1.355   3.670 -23.357  0.00  0.00    +0.466 C 
ATOM     14  C   UNL     1      -0.925   3.556 -25.857  0.00  0.00    +0.058 A 
ATOM     15  C   UNL     1      -2.220   3.512 -25.745  0.00  0.00    -0.010 A 
ATOM     16  C   UNL     1      -2.964   3.472 -26.810  0.00  0.00    +0.028 A 
ATOM     17  C   UNL     1      -4.258   3.428 -26.698  0.00  0.00    +0.112 A 
ATOM     18  N   UNL     1      -4.808   3.426 -25.519  0.00  0.00    -0.251 NA
ATOM     19  O   UNL     1       0.217   3.640 -22.727  0.00  0.00    -0.452 OA
ATOM     20  C   UNL     1      -2.770   3.510 -24.566  0.00  0.00    +0.023 A 
ATOM     21  C   UNL     1      -4.064   3.467 -24.454  0.00  0.00    +0.119 A 
ENDROOT
TORSDOF 0
ENDMDL
