MODEL 1
REMARK VINA RESULT:    -9.350      0.000      0.000
REMARK INTER + INTRA:         -11.497
REMARK INTER:                 -12.188
REMARK INTRA:                   0.690
REMARK UNBOUND:                 1.405
REMARK  Name = CC(C)=CCC1=C(O)[C@](O)(CC=C(C)C)C(O)=C(C(=O)CC(C)C)C1=O              ZINC000100151010
REMARK  13 active torsions:
REMARK  status: ('A' for Active; 'I' for Inactive)
REMARK    1  A    between atoms: C_1  and  C_2
REMARK    2  A    between atoms: C_2  and  C_3
REMARK    3  A    between atoms: C_4  and  C_5
REMARK    4  A    between atoms: C_5  and  C_6
REMARK    5  A    between atoms: C_9  and  O_10
REMARK    6  A    between atoms: C_9  and  C_11
REMARK    7  A    between atoms: C_11  and  C_12
REMARK    8  A    between atoms: C_13  and  C_14
REMARK    9  A    between atoms: C_13  and  C_15
REMARK   10  A    between atoms: C_19  and  C_21
REMARK   11  A    between atoms: C_21  and  C_22
REMARK   12  A    between atoms: C_22  and  C_23
REMARK   13  A    between atoms: C_22  and  C_24
REMARK                            x       y       z     vdW  Elec       q    Type
REMARK                         _______ _______ _______ _____ _____    ______ ____
ROOT
ATOM      1  C   UNL     1       1.418   2.981 -23.786  0.00  0.00    +0.026 C 
ATOM      2  C   UNL     1       0.732   3.383 -24.814  0.00  0.00    +0.206 C 
ATOM      3  C   UNL     1      -0.567   3.334 -24.788  0.00  0.00    +0.201 C 
ATOM      4  C   UNL     1      -1.179   2.883 -23.734  0.00  0.00    +0.235 C 
ATOM      5  C   UNL     1      -0.494   2.481 -22.706  0.00  0.00    -0.109 C 
ATOM      6  C   UNL     1      -1.106   2.030 -21.652  0.00  0.00    -0.117 C 
ATOM      7  O   UNL     1      -0.420   1.628 -20.623  0.00  0.00    -0.826 OA
ATOM      8  O   UNL     1      -2.479   2.834 -23.708  0.00  0.00    -0.280 OA
ATOM      9  O   UNL     1       1.345   3.835 -25.869  0.00  0.00    -0.288 OA
ATOM     10  C   UNL     1       0.806   2.530 -22.732  0.00  0.00    -0.218 C 
ATOM     11  O   UNL     1       1.492   2.128 -21.703  0.00  0.00    -0.791 OA
ENDROOT
BRANCH   3  12
ATOM     12  O   UNL     1      -0.383   3.828 -25.977  0.00  0.00    -0.373 OA
ATOM     13  H   UNL     1      -0.961   4.596 -26.101  0.00  0.00    +0.211 HD
ENDBRANCH   3  12
BRANCH   6  14
ATOM     14  C   UNL     1      -2.405   1.981 -21.625  0.00  0.00    +0.024 C 
BRANCH  14  15
ATOM     15  C   UNL     1      -3.067   2.722 -20.787  0.00  0.00    -0.014 C 
ATOM     16  C   UNL     1      -2.584   3.869 -20.413  0.00  0.00    +0.007 C 
ATOM     17  C   UNL     1      -4.210   2.315 -20.323  0.00  0.00    +0.007 C 
ENDBRANCH  14  15
ENDBRANCH   6  14
BRANCH   3  18
ATOM     18  C   UNL     1      -1.802   3.457 -25.175  0.00  0.00    +0.079 C 
BRANCH  18  19
ATOM     19  C   UNL     1      -2.086   3.483 -26.443  0.00  0.00    -0.024 C 
ATOM     20  C   UNL     1      -3.327   3.497 -26.831  0.00  0.00    -0.080 C 
ATOM     21  C   UNL     1      -4.283   3.485 -25.951  0.00  0.00    +0.038 C 
ATOM     22  C   UNL     1      -3.611   3.524 -28.100  0.00  0.00    +0.038 C 
ENDBRANCH  18  19
ENDBRANCH   3  18
BRANCH   1  23
ATOM     23  C   UNL     1       2.718   3.030 -23.812  0.00  0.00    +0.073 C 
BRANCH  23  26
ATOM     24  C   UNL     1       5.236   5.141 -22.800  0.00  0.00    +0.038 C 
ATOM     25  C   UNL     1       4.618   4.070 -23.201  0.00  0.00    -0.079 C 
ATOM     26  C   UNL     1       3.336   4.102 -23.412  0.00  0.00    -0.023 C 
ATOM     27  C   UNL     1       5.283   2.969 -23.390  0.00  0.00    +0.038 C 
ENDBRANCH  23  26
ENDBRANCH   1  23
TORSDOF 7
ENDMDL
