MODEL 1
REMARK VINA RESULT:    -9.906      0.000      0.000
REMARK INTER + INTRA:         -10.486
REMARK INTER:                 -10.486
REMARK INTRA:                   0.000
REMARK UNBOUND:                 0.000
REMARK  Name = ZINC000019800965
REMARK  6 active torsions:
REMARK  status: ('A' for Active; 'I' for Inactive)
REMARK    1  A    between atoms: C_1  and  C_2
REMARK    2  A    between atoms: C_2  and  C_3
REMARK    3  A    between atoms: C_7  and  C_8
REMARK    4  A    between atoms: C_7  and  O_9
REMARK    5  A    between atoms: C_13  and  C_14
REMARK    6  A    between atoms: C_13  and  O_15
REMARK                            x       y       z     vdW  Elec       q    Type
REMARK                         _______ _______ _______ _____ _____    ______ ____
ROOT
ATOM      1  C   UNL     1      -0.001   2.203 -22.974  0.00  0.00    +0.011 C 
ATOM      2  C   UNL     1      -1.026   2.293 -22.179  0.00  0.00    -0.028 C 
ATOM      3  C   UNL     1      -2.236   2.530 -21.768  0.00  0.00    -0.001 C 
ATOM      4  C   UNL     1      -3.384   2.706 -21.184  0.00  0.00    +0.007 C 
ATOM      5  C   UNL     1      -4.496   3.141 -21.696  0.00  0.00    +0.035 C 
ATOM      6  C   UNL     1      -4.736   3.508 -22.920  0.00  0.00    +0.066 C 
ATOM      7  C   UNL     1      -3.922   3.530 -23.934  0.00  0.00    +0.027 C 
ATOM      8  C   UNL     1      -4.271   3.919 -25.124  0.00  0.00    +0.009 C 
ATOM      9  C   UNL     1      -3.232   3.820 -25.900  0.00  0.00    +0.035 C 
ATOM     10  C   UNL     1      -2.241   3.369 -25.189  0.00  0.00    +0.067 C 
ATOM     11  C   UNL     1      -1.112   2.938 -24.711  0.00  0.00    +0.041 C 
ATOM     12  C   UNL     1      -2.667   3.190 -23.974  0.00  0.00    +0.030 C 
ATOM     13  C   UNL     1      -5.486   3.953 -23.885  0.00  0.00    +0.041 C 
ATOM     14  C   UNL     1      -0.490   1.873 -21.071  0.00  0.00    +0.011 C 
ATOM     15  C   UNL     1      -1.917   2.745 -23.010  0.00  0.00    +0.005 C 
ENDROOT
BRANCH  10  16
ATOM     16  O   UNL     1      -1.578   3.458 -26.304  0.00  0.00    -0.389 OA
ATOM     17  H   UNL     1      -0.626   3.457 -26.115  0.00  0.00    +0.210 HD
ENDBRANCH  10  16
BRANCH   6  18
ATOM     18  O   UNL     1      -5.884   3.684 -22.336  0.00  0.00    -0.389 OA
ATOM     19  H   UNL     1      -6.259   4.536 -22.610  0.00  0.00    +0.210 HD
ENDBRANCH   6  18
TORSDOF 2
ENDMDL
