MODEL 1
REMARK VINA RESULT:    -6.196      0.000      0.000
REMARK INTER + INTRA:          -7.734
REMARK INTER:                  -7.445
REMARK INTRA:                  -0.289
REMARK UNBOUND:                -0.270
REMARK  Name = ZINC000000001392
REMARK  5 active torsions:
REMARK  status: ('A' for Active; 'I' for Inactive)
REMARK    1  A    between atoms: C_1  and  C_2
REMARK    2  A    between atoms: C_2  and  O_3
REMARK    3  A    between atoms: O_3  and  C_4
REMARK    4  A    between atoms: C_4  and  C_6
REMARK    5  A    between atoms: C_9  and  O_10
REMARK                            x       y       z     vdW  Elec       q    Type
REMARK                         _______ _______ _______ _____ _____    ______ ____
ROOT
ATOM      1  C   UNL     1      -2.165   3.356 -21.666  0.00  0.00    +0.059 A 
ATOM      2  C   UNL     1      -1.504   2.116 -21.520  0.00  0.00    +0.018 A 
ATOM      3  C   UNL     1      -0.533   1.716 -22.460  0.00  0.00    +0.046 A 
ATOM      4  C   UNL     1      -0.211   2.560 -23.540  0.00  0.00    +0.117 A 
ATOM      5  C   UNL     1      -0.873   3.793 -23.691  0.00  0.00    +0.046 A 
ATOM      6  C   UNL     1      -1.853   4.189 -22.761  0.00  0.00    +0.018 A 
ENDROOT
BRANCH   1   7
ATOM      7  C   UNL     1      -3.248   3.757 -20.728  0.00  0.00    +0.339 C 
ATOM      8  O   UNL     1      -3.081   3.763 -19.513  0.00  0.00    -0.245 OA
BRANCH   7   9
ATOM      9  O   UNL     1      -4.427   4.122 -21.289  0.00  0.00    -0.461 OA
BRANCH   9  11
ATOM     10  C   UNL     1      -5.482   3.729 -23.405  0.00  0.00    +0.048 C 
ATOM     11  C   UNL     1      -5.271   3.214 -21.977  0.00  0.00    +0.229 C 
ENDBRANCH   9  11
ENDBRANCH   7   9
ENDBRANCH   1   7
BRANCH   4  12
ATOM     12  O   UNL     1       0.733   2.196 -24.453  0.00  0.00    -0.507 OA
ATOM     13  H   UNL     1       1.311   2.841 -24.811  0.00  0.00    +0.292 HD
ENDBRANCH   4  12
TORSDOF 4
ENDMDL
