MODEL 1
REMARK VINA RESULT:    -8.414      0.000      0.000
REMARK INTER + INTRA:         -11.227
REMARK INTER:                 -10.253
REMARK INTRA:                  -0.974
REMARK UNBOUND:                -0.845
REMARK  Name = ZINC000085340915
REMARK  9 active torsions:
REMARK  status: ('A' for Active; 'I' for Inactive)
REMARK    1  A    between atoms: C_1  and  C_2
REMARK    2  A    between atoms: C_2  and  C_3
REMARK    3  A    between atoms: C_4  and  C_5
REMARK    4  A    between atoms: C_5  and  C_6
REMARK    5  A    between atoms: C_6  and  O_7
REMARK    6  A    between atoms: C_6  and  C_8
REMARK    7  A    between atoms: C_8  and  C_9
REMARK    8  A    between atoms: C_15  and  C_16
REMARK    9  A    between atoms: C_15  and  O_17
REMARK                            x       y       z     vdW  Elec       q    Type
REMARK                         _______ _______ _______ _____ _____    ______ ____
ROOT
ATOM      1  C   UNL     1      -3.105   3.221 -23.358  0.00  0.00    +0.026 C 
ATOM      2  C   UNL     1      -4.383   3.360 -23.011  0.00  0.00    +0.000 C 
ATOM      3  C   UNL     1      -5.600   3.413 -22.486  0.00  0.00    +0.004 C 
ATOM      4  C   UNL     1      -4.999   2.685 -21.013  0.00  0.00    +0.006 C 
ATOM      5  C   UNL     1      -3.782   2.631 -21.536  0.00  0.00    +0.021 C 
ATOM      6  C   UNL     1      -4.313   3.005 -22.174  0.00  0.00    +0.010 C 
ATOM      7  C   UNL     1      -3.426   3.765 -24.527  0.00  0.00    +0.017 C 
ATOM      8  C   UNL     1      -2.646   2.662 -22.227  0.00  0.00    +0.074 C 
ATOM      9  C   UNL     1      -1.609   2.621 -22.683  0.00  0.00    +0.042 C 
ENDROOT
BRANCH   8  10
ATOM     10  O   UNL     1      -2.078   2.106 -21.162  0.00  0.00    -0.388 OA
ATOM     11  H   UNL     1      -1.312   2.638 -20.889  0.00  0.00    +0.210 HD
ENDBRANCH   8  10
BRANCH   1  12
ATOM     12  C   UNL     1      -1.783   3.129 -23.843  0.00  0.00    +0.127 C 
BRANCH  12  13
ATOM     13  O   UNL     1      -1.210   1.958 -23.999  0.00  0.00    -0.391 OA
ATOM     14  H   UNL     1      -1.883   1.296 -24.222  0.00  0.00    +0.210 HD
ENDBRANCH  12  13
BRANCH  12  15
ATOM     15  C   UNL     1      -1.107   4.256 -24.145  0.00  0.00    +0.059 C 
BRANCH  15  18
ATOM     16  C   UNL     1       2.296   4.853 -23.603  0.00  0.00    +0.038 C 
ATOM     17  C   UNL     1       1.170   4.517 -24.212  0.00  0.00    -0.080 C 
ATOM     18  C   UNL     1       0.008   4.587 -23.547  0.00  0.00    -0.026 C 
ATOM     19  C   UNL     1       1.200   4.109 -25.483  0.00  0.00    +0.038 C 
ENDBRANCH  15  18
ENDBRANCH  12  15
ENDBRANCH   1  12
TORSDOF 5
ENDMDL
