MODEL 1
REMARK VINA RESULT:   -10.963      0.000      0.000
REMARK INTER + INTRA:         -11.604
REMARK INTER:                 -11.604
REMARK INTRA:                   0.000
REMARK UNBOUND:                 0.000
REMARK  Name = ZINC000003830765
REMARK  3 active torsions:
REMARK  status: ('A' for Active; 'I' for Inactive)
REMARK    1  A    between atoms: C_1  and  C_2
REMARK    2  A    between atoms: C_9  and  O_10
REMARK    3  A    between atoms: C_19  and  O_20
REMARK                            x       y       z     vdW  Elec       q    Type
REMARK                         _______ _______ _______ _____ _____    ______ ____
ROOT
ATOM      1  C   UNL     1      -4.525   3.822 -23.905  0.00  0.00    +0.014 C 
ATOM      2  C   UNL     1      -3.675   3.279 -23.085  0.00  0.00    -0.003 C 
ATOM      3  C   UNL     1      -3.167   3.594 -24.240  0.00  0.00    +0.010 C 
ATOM      4  C   UNL     1      -1.913   3.360 -24.485  0.00  0.00    +0.009 C 
ATOM      5  C   UNL     1      -1.165   2.810 -23.574  0.00  0.00    +0.023 C 
ATOM      6  C   UNL     1       0.090   2.575 -23.819  0.00  0.00    -0.041 A 
ATOM      7  C   UNL     1       0.597   2.890 -24.973  0.00  0.00    +0.008 A 
ATOM      8  C   UNL     1       1.853   2.655 -25.219  0.00  0.00    +0.046 A 
ATOM      9  C   UNL     1       2.601   2.105 -24.308  0.00  0.00    +0.117 A 
ATOM     10  C   UNL     1       2.093   1.790 -23.153  0.00  0.00    +0.049 A 
ATOM     11  C   UNL     1       0.838   2.025 -22.909  0.00  0.00    -0.040 A 
ATOM     12  C   UNL     1       0.330   1.710 -21.754  0.00  0.00    +0.036 C 
ATOM     13  C   UNL     1      -0.925   1.945 -21.510  0.00  0.00    +0.009 C 
ATOM     14  C   UNL     1      -1.672   2.494 -22.419  0.00  0.00    +0.000 C 
ATOM     15  C   UNL     1      -4.873   3.406 -22.598  0.00  0.00    +0.121 C 
ATOM     16  C   UNL     1      -4.867   2.933 -21.387  0.00  0.00    +0.032 C 
ATOM     17  C   UNL     1      -3.663   2.515 -21.125  0.00  0.00    +0.007 C 
ATOM     18  C   UNL     1      -2.927   2.729 -22.175  0.00  0.00    +0.001 C 
ENDROOT
BRANCH   9  19
ATOM     19  O   UNL     1       3.855   1.870 -24.553  0.00  0.00    -0.507 OA
ATOM     20  H   UNL     1       4.237   2.156 -25.359  0.00  0.00    +0.292 HD
ENDBRANCH   9  19
BRANCH  15  21
ATOM     21  O   UNL     1      -5.899   3.914 -23.214  0.00  0.00    -0.391 OA
ATOM     22  H   UNL     1      -6.676   3.874 -22.634  0.00  0.00    +0.210 HD
ENDBRANCH  15  21
TORSDOF 2
ENDMDL
