MODEL 1
REMARK VINA RESULT:   -10.090      0.000      0.000
REMARK INTER + INTRA:         -10.204
REMARK INTER:                 -11.151
REMARK INTRA:                   0.946
REMARK UNBOUND:                 1.066
REMARK  Name = COC1=C2Oc3c(OC)ccc4c3[C@]23CCN(C=O)[C@H](C4)[C@@H]3C=C1              ZINC000100393490
REMARK  4 active torsions:
REMARK  status: ('A' for Active; 'I' for Inactive)
REMARK    1  A    between atoms: C_1  and  O_2
REMARK    2  A    between atoms: O_2  and  C_3
REMARK    3  A    between atoms: C_7  and  O_8
REMARK    4  A    between atoms: O_8  and  C_9
REMARK                            x       y       z     vdW  Elec       q    Type
REMARK                         _______ _______ _______ _____ _____    ______ ____
ROOT
ATOM      1  C   UNL     1      -2.772   3.710 -25.318  0.00  0.00    +0.159 C 
ATOM      2  C   UNL     1      -1.634   3.358 -24.927  0.00  0.00    +0.158 C 
ATOM      3  O   UNL     1      -0.169   3.202 -25.275  0.00  0.00    -0.452 OA
ATOM      4  C   UNL     1       0.657   2.650 -24.147  0.00  0.00    +0.174 A 
ATOM      5  C   UNL     1       1.809   2.294 -23.755  0.00  0.00    +0.162 A 
ATOM      6  C   UNL     1       1.960   1.852 -22.578  0.00  0.00    +0.050 A 
ATOM      7  C   UNL     1       0.982   1.766 -21.803  0.00  0.00    +0.008 A 
ATOM      8  C   UNL     1      -0.156   2.118 -22.194  0.00  0.00    -0.038 A 
ATOM      9  C   UNL     1      -1.159   2.032 -21.406  0.00  0.00    +0.058 C 
ATOM     10  C   UNL     1      -2.295   2.384 -21.796  0.00  0.00    +0.088 C 
ATOM     11  C   UNL     1      -2.449   2.826 -22.973  0.00  0.00    +0.051 C 
ATOM     12  C   UNL     1      -3.600   3.181 -23.364  0.00  0.00    -0.017 C 
ATOM     13  N   UNL     1      -3.629   2.757 -22.141  0.00  0.00    -0.300 N 
ATOM     14  C   UNL     1      -4.587   2.652 -21.322  0.00  0.00    +0.328 C 
ATOM     15  O   UNL     1      -4.394   2.208 -20.164  0.00  0.00    -0.279 OA
ATOM     16  C   UNL     1      -3.836   3.255 -23.446  0.00  0.00    +0.109 C 
ATOM     17  C   UNL     1      -2.712   3.341 -24.298  0.00  0.00    +0.039 C 
ATOM     18  C   UNL     1      -0.331   2.561 -23.361  0.00  0.00    +0.016 A 
ATOM     19  C   UNL     1      -1.468   2.911 -23.746  0.00  0.00    +0.070 C 
ATOM     20  C   UNL     1      -3.755   3.619 -24.527  0.00  0.00    +0.045 C 
ENDROOT
BRANCH   1  22
ATOM     21  C   UNL     1      -3.340   3.386 -27.385  0.00  0.00    +0.277 C 
ATOM     22  O   UNL     1      -2.932   4.148 -26.479  0.00  0.00    -0.492 OA
ENDBRANCH   1  22
BRANCH   5  23
ATOM     23  O   UNL     1       2.791   2.379 -24.528  0.00  0.00    -0.491 OA
ATOM     24  C   UNL     1       3.956   2.321 -24.071  0.00  0.00    +0.277 C 
ENDBRANCH   5  23
TORSDOF 2
ENDMDL
