MODEL 1
REMARK VINA RESULT:    -8.260      0.000      0.000
REMARK INTER + INTRA:         -11.311
REMARK INTER:                 -10.332
REMARK INTRA:                  -0.979
REMARK UNBOUND:                -1.120
REMARK  Name = CC(C)=CC[C@@H](O)[C@@]1(C)[C@@H]2CC[C@H](C2)[C@@]1(C)O               ZINC000100393352
REMARK  9 active torsions:
REMARK  status: ('A' for Active; 'I' for Inactive)
REMARK    1  A    between atoms: C_1  and  C_2
REMARK    2  A    between atoms: C_2  and  C_3
REMARK    3  A    between atoms: C_4  and  C_5
REMARK    4  A    between atoms: C_5  and  C_6
REMARK    5  A    between atoms: C_6  and  O_7
REMARK    6  A    between atoms: C_6  and  C_8
REMARK    7  A    between atoms: C_8  and  C_9
REMARK    8  A    between atoms: C_15  and  C_16
REMARK    9  A    between atoms: C_15  and  O_17
REMARK                            x       y       z     vdW  Elec       q    Type
REMARK                         _______ _______ _______ _____ _____    ______ ____
ROOT
ATOM      1  C   UNL     1      -3.085   3.273 -23.394  0.00  0.00    +0.026 C 
ATOM      2  C   UNL     1      -4.361   3.415 -23.042  0.00  0.00    +0.000 C 
ATOM      3  C   UNL     1      -5.578   3.460 -22.517  0.00  0.00    +0.004 C 
ATOM      4  C   UNL     1      -4.994   2.638 -21.087  0.00  0.00    +0.006 C 
ATOM      5  C   UNL     1      -3.777   2.592 -21.611  0.00  0.00    +0.021 C 
ATOM      6  C   UNL     1      -4.300   3.012 -22.227  0.00  0.00    +0.010 C 
ATOM      7  C   UNL     1      -3.393   3.889 -24.531  0.00  0.00    +0.017 C 
ATOM      8  C   UNL     1      -2.639   2.643 -22.296  0.00  0.00    +0.074 C 
ATOM      9  C   UNL     1      -1.602   2.608 -22.752  0.00  0.00    +0.042 C 
ENDROOT
BRANCH   8  10
ATOM     10  O   UNL     1      -2.083   2.017 -21.264  0.00  0.00    -0.388 OA
ATOM     11  H   UNL     1      -2.514   2.302 -20.442  0.00  0.00    +0.210 HD
ENDBRANCH   8  10
BRANCH   1  12
ATOM     12  C   UNL     1      -1.763   3.185 -23.881  0.00  0.00    +0.127 C 
BRANCH  12  13
ATOM     13  O   UNL     1      -1.200   2.015 -24.073  0.00  0.00    -0.391 OA
ATOM     14  H   UNL     1      -1.699   1.334 -23.595  0.00  0.00    +0.210 HD
ENDBRANCH  12  13
BRANCH  12  15
ATOM     15  C   UNL     1      -1.079   4.315 -24.150  0.00  0.00    +0.059 C 
BRANCH  15  18
ATOM     16  C   UNL     1       2.285   4.955 -23.438  0.00  0.00    +0.038 C 
ATOM     17  C   UNL     1       1.195   4.611 -24.104  0.00  0.00    -0.080 C 
ATOM     18  C   UNL     1       0.002   4.654 -23.494  0.00  0.00    -0.026 C 
ATOM     19  C   UNL     1       1.291   4.225 -25.379  0.00  0.00    +0.038 C 
ENDBRANCH  15  18
ENDBRANCH  12  15
ENDBRANCH   1  12
TORSDOF 5
ENDMDL
