MODEL 1
REMARK VINA RESULT:   -11.956      0.000      0.000
REMARK INTER + INTRA:         -14.644
REMARK INTER:                 -13.961
REMARK INTRA:                  -0.684
REMARK UNBOUND:                 0.107
REMARK  Name = COc1ccc2c(c1Oc1nnnn1-c1ccccc1)[C@@]13C=CC=C[C@H]1[C@@H](C2)N(C)CC3   ZINC000253504732
REMARK  6 active torsions:
REMARK  status: ('A' for Active; 'I' for Inactive)
REMARK    1  A    between atoms: C_1  and  O_2
REMARK    2  A    between atoms: O_2  and  C_3
REMARK    3  A    between atoms: C_8  and  O_9
REMARK    4  A    between atoms: O_9  and  C_10
REMARK    5  A    between atoms: N_14  and  C_15
REMARK    6  A    between atoms: N_29  and  C_30
REMARK                            x       y       z     vdW  Elec       q    Type
REMARK                         _______ _______ _______ _____ _____    ______ ____
ROOT
ATOM      1  C   UNL     1      -1.533   3.355 -25.403  0.00  0.00    +0.163 A 
ATOM      2  C   UNL     1      -2.521   3.497 -26.176  0.00  0.00    +0.050 A 
ATOM      3  C   UNL     1      -3.675   3.612 -25.674  0.00  0.00    +0.008 A 
ATOM      4  C   UNL     1      -3.824   3.577 -24.219  0.00  0.00    -0.034 A 
ATOM      5  C   UNL     1      -2.947   3.455 -23.635  0.00  0.00    +0.013 A 
ATOM      6  C   UNL     1      -2.816   3.406 -22.700  0.00  0.00    +0.034 C 
ATOM      7  C   UNL     1      -1.774   3.261 -22.005  0.00  0.00    -0.014 C 
ATOM      8  C   UNL     1      -1.860   3.224 -20.713  0.00  0.00    -0.004 C 
ATOM      9  C   UNL     1      -3.023   3.337 -20.112  0.00  0.00    -0.004 C 
ATOM     10  C   UNL     1      -4.120   3.488 -20.788  0.00  0.00    -0.017 C 
ATOM     11  C   UNL     1      -2.841   3.469 -24.375  0.00  0.00    +0.067 C 
ATOM     12  C   UNL     1      -4.124   3.643 -25.069  0.00  0.00    +0.132 C 
ATOM     13  N   UNL     1      -5.109   3.734 -24.444  0.00  0.00    +0.236 N 
ATOM     14  H   UNL     1      -5.747   3.779 -23.649  0.00  0.00    +0.203 HD
ATOM     15  C   UNL     1      -5.824   3.856 -25.544  0.00  0.00    +0.190 C 
ATOM     16  C   UNL     1      -5.112   3.677 -22.860  0.00  0.00    +0.076 C 
ATOM     17  C   UNL     1      -4.076   3.528 -22.045  0.00  0.00    +0.075 C 
ATOM     18  C   UNL     1      -4.979   3.693 -23.714  0.00  0.00    +0.090 C 
ATOM     19  C   UNL     1      -1.732   3.332 -24.132  0.00  0.00    +0.178 A 
ENDROOT
BRANCH   1  21
ATOM     20  C   UNL     1       0.611   4.142 -25.923  0.00  0.00    +0.277 C 
ATOM     21  O   UNL     1      -0.223   3.216 -25.736  0.00  0.00    -0.491 OA
ENDBRANCH   1  21
BRANCH  19  22
ATOM     22  O   UNL     1      -0.725   3.173 -22.941  0.00  0.00    -0.418 OA
BRANCH  22  23
ATOM     23  C   UNL     1       0.264   2.243 -22.622  0.00  0.00    +0.347 A 
ATOM     24  N   UNL     1      -0.001   1.018 -22.350  0.00  0.00    -0.070 NA
ATOM     25  N   UNL     1       1.099   0.418 -22.101  0.00  0.00    -0.019 NA
ATOM     26  N   UNL     1       2.052   1.268 -22.217  0.00  0.00    -0.036 NA
ATOM     27  N   UNL     1       1.536   2.395 -22.539  0.00  0.00    -0.162 N 
BRANCH  27  28
ATOM     28  C   UNL     1       2.222   3.471 -22.736  0.00  0.00    +0.072 A 
ATOM     29  C   UNL     1       1.645   4.615 -22.823  0.00  0.00    +0.028 A 
ATOM     30  C   UNL     1       2.344   5.671 -23.019  0.00  0.00    +0.002 A 
ATOM     31  C   UNL     1       3.620   5.586 -23.127  0.00  0.00    +0.000 A 
ATOM     32  C   UNL     1       4.196   4.444 -23.039  0.00  0.00    +0.002 A 
ATOM     33  C   UNL     1       3.497   3.388 -22.844  0.00  0.00    +0.028 A 
ENDBRANCH  27  28
ENDBRANCH  22  23
ENDBRANCH  19  22
TORSDOF 4
ENDMDL
