MODEL 1
REMARK VINA RESULT:    -9.868      0.000      0.000
REMARK INTER + INTRA:         -10.157
REMARK INTER:                 -10.157
REMARK INTRA:                   0.000
REMARK UNBOUND:                 0.000
REMARK  Name = ZINC000004644641
REMARK  5 active torsions:
REMARK  status: ('A' for Active; 'I' for Inactive)
REMARK    1  A    between atoms: C_1  and  C_2
REMARK    2  A    between atoms: C_11  and  C_12
REMARK    3  A    between atoms: C_11  and  O_13
REMARK    4  A    between atoms: C_14  and  C_15
REMARK    5  A    between atoms: C_14  and  C_16
REMARK                            x       y       z     vdW  Elec       q    Type
REMARK                         _______ _______ _______ _____ _____    ______ ____
ROOT
ATOM      1  C   UNL     1      -1.351   3.678 -25.474  0.00  0.00    +0.008 C 
ATOM      2  C   UNL     1      -2.542   3.736 -24.958  0.00  0.00    -0.010 C 
ATOM      3  C   UNL     1      -3.601   4.224 -25.535  0.00  0.00    +0.004 C 
ATOM      4  C   UNL     1      -4.598   4.106 -24.708  0.00  0.00    +0.007 C 
ATOM      5  C   UNL     1      -4.156   3.546 -23.622  0.00  0.00    +0.024 C 
ATOM      6  C   UNL     1      -4.907   3.287 -22.594  0.00  0.00    +0.066 C 
ATOM      7  C   UNL     1      -6.029   3.269 -21.937  0.00  0.00    +0.041 C 
ATOM      8  C   UNL     1      -4.573   2.734 -21.465  0.00  0.00    +0.035 C 
ATOM      9  C   UNL     1      -3.406   2.305 -21.087  0.00  0.00    +0.007 C 
ATOM     10  C   UNL     1      -2.284   2.322 -21.743  0.00  0.00    -0.001 C 
ATOM     11  C   UNL     1      -1.086   2.255 -22.242  0.00  0.00    -0.028 C 
ATOM     12  C   UNL     1      -0.104   2.384 -23.086  0.00  0.00    +0.011 C 
ATOM     13  C   UNL     1      -0.459   1.693 -21.252  0.00  0.00    +0.011 C 
ATOM     14  C   UNL     1      -2.053   2.773 -22.940  0.00  0.00    +0.002 C 
ATOM     15  C   UNL     1      -2.885   3.318 -23.777  0.00  0.00    +0.002 C 
ENDROOT
BRANCH   6  16
ATOM     16  O   UNL     1      -5.739   3.831 -23.430  0.00  0.00    -0.389 OA
ATOM     17  H   UNL     1      -6.125   4.627 -23.030  0.00  0.00    +0.210 HD
ENDBRANCH   6  16
TORSDOF 1
ENDMDL
