MODEL 1
REMARK VINA RESULT:   -10.763      0.000      0.000
REMARK INTER + INTRA:         -10.753
REMARK INTER:                 -11.671
REMARK INTRA:                   0.918
REMARK UNBOUND:                 1.269
REMARK  Name = ZINC000096316332
REMARK  5 active torsions:
REMARK  status: ('A' for Active; 'I' for Inactive)
REMARK    1  A    between atoms: C_1  and  O_2
REMARK    2  A    between atoms: O_2  and  C_3
REMARK    3  A    between atoms: C_12  and  O_13
REMARK    4  A    between atoms: O_13  and  C_14
REMARK    5  A    between atoms: N_20  and  C_21
REMARK                            x       y       z     vdW  Elec       q    Type
REMARK                         _______ _______ _______ _____ _____    ______ ____
ROOT
ATOM      1  C   UNL     1      -3.369   3.944 -25.465  0.00  0.00    +0.135 C 
ATOM      2  C   UNL     1      -4.458   3.946 -24.823  0.00  0.00    +0.018 C 
ATOM      3  C   UNL     1      -4.501   3.535 -23.642  0.00  0.00    +0.040 C 
ATOM      4  C   UNL     1      -3.448   3.115 -23.082  0.00  0.00    +0.056 C 
ATOM      5  C   UNL     1      -3.496   2.701 -21.887  0.00  0.00    +0.073 C 
ATOM      6  C   UNL     1      -2.456   2.285 -21.331  0.00  0.00    +0.090 C 
ATOM      7  C   UNL     1      -1.349   2.277 -21.966  0.00  0.00    -0.034 A 
ATOM      8  C   UNL     1      -0.308   1.860 -21.409  0.00  0.00    +0.008 A 
ATOM      9  C   UNL     1       0.774   1.855 -22.036  0.00  0.00    +0.050 A 
ATOM     10  C   UNL     1       0.824   2.268 -23.231  0.00  0.00    +0.162 A 
ATOM     11  C   UNL     1      -0.232   2.689 -23.791  0.00  0.00    +0.167 A 
ATOM     12  O   UNL     1      -0.845   3.260 -25.036  0.00  0.00    -0.476 OA
ATOM     13  C   UNL     1      -1.323   2.693 -23.155  0.00  0.00    +0.012 A 
ATOM     14  N   UNL     1      -4.735   3.154 -22.427  0.00  0.00    +0.236 N 
ATOM     15  H   UNL     1      -5.601   3.144 -21.887  0.00  0.00    +0.203 HD
ATOM     16  C   UNL     1      -5.788   3.136 -21.752  0.00  0.00    +0.190 C 
ATOM     17  C   UNL     1      -4.717   3.622 -23.759  0.00  0.00    +0.132 C 
ATOM     18  C   UNL     1      -3.482   3.604 -24.440  0.00  0.00    +0.067 C 
ATOM     19  C   UNL     1      -2.364   3.108 -23.706  0.00  0.00    +0.057 C 
ATOM     20  C   UNL     1      -2.328   3.527 -24.907  0.00  0.00    +0.249 C 
ENDROOT
BRANCH   1  22
ATOM     21  C   UNL     1      -3.356   3.538 -27.592  0.00  0.00    +0.276 C 
ATOM     22  O   UNL     1      -3.330   4.354 -26.645  0.00  0.00    -0.496 OA
ENDBRANCH   1  22
BRANCH  10  23
ATOM     23  O   UNL     1       1.909   2.261 -23.854  0.00  0.00    -0.491 OA
ATOM     24  C   UNL     1       2.625   3.287 -23.880  0.00  0.00    +0.277 C 
ENDBRANCH  10  23
TORSDOF 2
ENDMDL
