MODEL 1
REMARK VINA RESULT:   -10.144      0.000      0.000
REMARK INTER + INTRA:          -9.935
REMARK INTER:                 -11.030
REMARK INTRA:                   1.096
REMARK UNBOUND:                 1.099
REMARK  Name = ZINC000004104846
REMARK  4 active torsions:
REMARK  status: ('A' for Active; 'I' for Inactive)
REMARK    1  A    between atoms: C_1  and  O_2
REMARK    2  A    between atoms: O_2  and  C_3
REMARK    3  A    between atoms: C_4  and  C_5
REMARK    4  A    between atoms: C_6  and  O_7
REMARK                            x       y       z     vdW  Elec       q    Type
REMARK                         _______ _______ _______ _____ _____    ______ ____
ROOT
ATOM      1  C   UNL     1       0.184   2.848 -23.166  0.00  0.00    +0.138 A 
ATOM      2  C   UNL     1       0.935   3.165 -24.178  0.00  0.00    +0.033 A 
ATOM      3  C   UNL     1       0.402   3.683 -25.245  0.00  0.00    +0.124 A 
ATOM      4  C   UNL     1      -0.881   3.884 -25.299  0.00  0.00    +0.058 A 
ATOM      5  C   UNL     1      -1.632   3.567 -24.287  0.00  0.00    +0.040 A 
ATOM      6  C   UNL     1      -2.915   3.768 -24.342  0.00  0.00    +0.195 C 
ATOM      7  O   UNL     1      -3.448   4.286 -25.409  0.00  0.00    -0.287 OA
ATOM      8  C   UNL     1      -3.667   3.450 -23.329  0.00  0.00    +0.033 A 
ATOM      9  C   UNL     1      -4.950   3.651 -23.384  0.00  0.00    +0.012 A 
ATOM     10  C   UNL     1      -5.701   3.334 -22.371  0.00  0.00    +0.001 A 
ATOM     11  C   UNL     1      -5.169   2.816 -21.304  0.00  0.00    +0.001 A 
ATOM     12  C   UNL     1      -3.886   2.615 -21.250  0.00  0.00    +0.012 A 
ATOM     13  C   UNL     1      -3.134   2.932 -22.263  0.00  0.00    +0.033 A 
ATOM     14  C   UNL     1      -1.851   2.731 -22.208  0.00  0.00    +0.198 C 
ATOM     15  O   UNL     1      -1.319   2.213 -21.141  0.00  0.00    -0.286 OA
ATOM     16  C   UNL     1       2.217   2.964 -24.124  0.00  0.00    +0.051 C 
ATOM     17  C   UNL     1      -1.100   3.048 -23.220  0.00  0.00    +0.075 A 
ENDROOT
BRANCH   1  19
ATOM     18  C   UNL     1       1.349   1.196 -22.173  0.00  0.00    +0.277 C 
ATOM     19  O   UNL     1       0.716   2.329 -22.099  0.00  0.00    -0.494 OA
ENDBRANCH   1  19
BRANCH   3  20
ATOM     20  O   UNL     1       1.153   4.001 -26.258  0.00  0.00    -0.506 OA
ATOM     21  H   UNL     1       1.773   4.699 -26.180  0.00  0.00    +0.292 HD
ENDBRANCH   3  20
TORSDOF 2
ENDMDL
