MODEL 1
REMARK VINA RESULT:    -8.849      0.000      0.000
REMARK INTER + INTRA:         -10.517
REMARK INTER:                 -12.340
REMARK INTRA:                   1.823
REMARK UNBOUND:                 1.694
REMARK  Name = ZINC000004104800
REMARK  11 active torsions:
REMARK  status: ('A' for Active; 'I' for Inactive)
REMARK    1  A    between atoms: C_1  and  O_2
REMARK    2  A    between atoms: O_2  and  C_3
REMARK    3  A    between atoms: C_6  and  C_7
REMARK    4  A    between atoms: C_10  and  O_11
REMARK    5  A    between atoms: C_12  and  C_13
REMARK    6  A    between atoms: C_16  and  O_17
REMARK    7  A    between atoms: O_17  and  C_18
REMARK    8  A    between atoms: C_19  and  O_20
REMARK    9  A    between atoms: O_20  and  C_21
REMARK   10  A    between atoms: C_27  and  O_28
REMARK   11  A    between atoms: O_28  and  C_29
REMARK                            x       y       z     vdW  Elec       q    Type
REMARK                         _______ _______ _______ _____ _____    ______ ____
ROOT
ATOM      1  C   UNL     1       2.638   4.331 -23.263  0.00  0.00    +0.157 C 
ATOM      2  O   UNL     1       2.001   5.458 -23.374  0.00  0.00    -0.369 OA
ATOM      3  C   UNL     1       0.727   5.207 -23.324  0.00  0.00    +0.198 C 
ATOM      4  C   UNL     1       0.575   3.924 -23.182  0.00  0.00    +0.127 C 
ATOM      5  C   UNL     1      -0.306   2.975 -23.063  0.00  0.00    +0.183 C 
ATOM      6  O   UNL     1       0.331   1.848 -22.952  0.00  0.00    -0.369 OA
ATOM      7  C   UNL     1       1.605   2.099 -23.002  0.00  0.00    +0.170 C 
ATOM      8  C   UNL     1       1.757   3.382 -23.144  0.00  0.00    +0.085 C 
ENDROOT
BRANCH   5   9
ATOM      9  C   UNL     1      -1.596   3.128 -23.057  0.00  0.00    -0.012 A 
ATOM     10  C   UNL     1      -2.235   3.219 -21.927  0.00  0.00    +0.010 A 
ATOM     11  C   UNL     1      -3.526   3.372 -21.923  0.00  0.00    +0.050 A 
ATOM     12  C   UNL     1      -4.178   3.434 -23.045  0.00  0.00    +0.162 A 
ATOM     13  C   UNL     1      -3.540   3.342 -24.174  0.00  0.00    +0.162 A 
ATOM     14  C   UNL     1      -2.249   3.189 -24.179  0.00  0.00    +0.055 A 
BRANCH  13  15
ATOM     15  O   UNL     1      -4.192   3.404 -25.297  0.00  0.00    -0.491 OA
ATOM     16  C   UNL     1      -3.548   3.352 -26.425  0.00  0.00    +0.277 C 
ENDBRANCH  13  15
BRANCH  12  17
ATOM     17  O   UNL     1      -5.470   3.587 -23.039  0.00  0.00    -0.491 OA
ATOM     18  C   UNL     1      -6.178   3.088 -22.070  0.00  0.00    +0.277 C 
ENDBRANCH  12  17
ENDBRANCH   5   9
BRANCH   1  22
ATOM     19  C   UNL     1       6.510   3.873 -23.281  0.00  0.00    +0.162 A 
ATOM     20  C   UNL     1       5.739   2.903 -23.677  0.00  0.00    +0.050 A 
ATOM     21  C   UNL     1       4.448   3.055 -23.671  0.00  0.00    +0.010 A 
ATOM     22  C   UNL     1       3.928   4.178 -23.269  0.00  0.00    -0.015 A 
ATOM     23  C   UNL     1       4.700   5.147 -22.874  0.00  0.00    +0.055 A 
ATOM     24  C   UNL     1       5.991   4.995 -22.880  0.00  0.00    +0.162 A 
BRANCH  19  26
ATOM     25  C   UNL     1       8.406   3.340 -24.374  0.00  0.00    +0.277 C 
ATOM     26  O   UNL     1       7.802   3.720 -23.288  0.00  0.00    -0.491 OA
ENDBRANCH  19  26
BRANCH  24  27
ATOM     27  O   UNL     1       6.761   5.964 -22.484  0.00  0.00    -0.491 OA
ATOM     28  C   UNL     1       6.305   6.862 -21.661  0.00  0.00    +0.277 C 
ENDBRANCH  24  27
ENDBRANCH   1  22
BRANCH   4  29
ATOM     29  O   UNL     1      -0.606   4.465 -23.220  0.00  0.00    -0.383 OA
ATOM     30  H   UNL     1      -1.251   3.812 -23.532  0.00  0.00    +0.210 HD
ENDBRANCH   4  29
TORSDOF 7
ENDMDL
