MODEL 1
REMARK VINA RESULT:   -10.663      0.000      0.000
REMARK INTER + INTRA:         -10.975
REMARK INTER:                 -10.975
REMARK INTRA:                   0.000
REMARK UNBOUND:                 0.000
REMARK  Name = C=C1C(=O)O[C@@H]2C=C(C)[C@H](O)CC=C(C)CC[C@@H]12                     ZINC000299806219
REMARK  3 active torsions:
REMARK  status: ('A' for Active; 'I' for Inactive)
REMARK    1  A    between atoms: C_8  and  C_9
REMARK    2  A    between atoms: C_10  and  O_11
REMARK    3  A    between atoms: C_14  and  C_15
REMARK                            x       y       z     vdW  Elec       q    Type
REMARK                         _______ _______ _______ _____ _____    ______ ____
ROOT
ATOM      1  C   UNL     1       0.550   1.510 -21.133  0.00  0.00    +0.020 C 
ATOM      2  C   UNL     1      -0.171   1.952 -22.122  0.00  0.00    +0.036 C 
ATOM      3  C   UNL     1       0.235   2.125 -23.344  0.00  0.00    +0.336 C 
ATOM      4  O   UNL     1      -0.767   2.577 -24.038  0.00  0.00    -0.453 OA
ATOM      5  C   UNL     1      -1.792   2.683 -23.245  0.00  0.00    +0.207 C 
ATOM      6  C   UNL     1      -3.012   3.081 -23.449  0.00  0.00    +0.019 C 
ATOM      7  C   UNL     1      -3.380   3.467 -24.634  0.00  0.00    -0.045 C 
ATOM      8  C   UNL     1      -4.600   3.866 -24.839  0.00  0.00    +0.144 C 
ATOM      9  C   UNL     1      -5.453   3.877 -23.858  0.00  0.00    +0.063 C 
ATOM     10  C   UNL     1      -5.086   3.491 -22.673  0.00  0.00    -0.025 C 
ATOM     11  C   UNL     1      -3.865   3.093 -22.469  0.00  0.00    -0.076 C 
ATOM     12  C   UNL     1      -3.497   2.706 -21.284  0.00  0.00    +0.031 C 
ATOM     13  C   UNL     1      -2.276   2.308 -21.080  0.00  0.00    +0.016 C 
ATOM     14  C   UNL     1      -4.717   3.104 -21.487  0.00  0.00    +0.039 C 
ATOM     15  C   UNL     1      -2.526   3.456 -25.616  0.00  0.00    +0.041 C 
ATOM     16  O   UNL     1       1.431   1.889 -23.793  0.00  0.00    -0.245 OA
ATOM     17  C   UNL     1      -1.423   2.296 -22.060  0.00  0.00    +0.070 C 
ENDROOT
BRANCH   8  18
ATOM     18  O   UNL     1      -4.969   4.252 -26.024  0.00  0.00    -0.387 OA
ATOM     19  H   UNL     1      -5.932   4.362 -26.044  0.00  0.00    +0.210 HD
ENDBRANCH   8  18
TORSDOF 1
ENDMDL
