MODEL 1
REMARK VINA RESULT:   -11.083      0.000      0.000
REMARK INTER + INTRA:         -12.625
REMARK INTER:                 -12.758
REMARK INTRA:                   0.133
REMARK UNBOUND:                 0.077
REMARK  Name = CC[C@]1(O)CC[C@@H]2[C@@H]3CC=C4C[C@@H](O)CC[C@]4(C)[C@H]3CC[C@@]21C  ZINC000253504219
REMARK  6 active torsions:
REMARK  status: ('A' for Active; 'I' for Inactive)
REMARK    1  A    between atoms: C_1  and  C_2
REMARK    2  A    between atoms: C_2  and  C_3
REMARK    3  A    between atoms: C_3  and  O_4
REMARK    4  A    between atoms: C_13  and  O_14
REMARK    5  A    between atoms: C_17  and  C_18
REMARK    6  A    between atoms: C_22  and  C_23
REMARK                            x       y       z     vdW  Elec       q    Type
REMARK                         _______ _______ _______ _____ _____    ______ ____
ROOT
ATOM      1  C   UNL     1      -4.369   3.277 -22.580  0.00  0.00    +0.071 C 
ATOM      2  C   UNL     1      -4.429   2.761 -21.376  0.00  0.00    +0.035 C 
ATOM      3  C   UNL     1      -3.231   2.328 -21.063  0.00  0.00    +0.007 C 
ATOM      4  C   UNL     1      -2.431   2.576 -22.071  0.00  0.00    +0.001 C 
ATOM      5  C   UNL     1      -1.156   2.343 -22.254  0.00  0.00    +0.000 C 
ATOM      6  C   UNL     1      -0.456   1.755 -21.310  0.00  0.00    +0.031 C 
ATOM      7  C   UNL     1       0.821   1.521 -21.493  0.00  0.00    -0.027 C 
ATOM      8  C   UNL     1       1.400   1.873 -22.614  0.00  0.00    -0.065 C 
ATOM      9  C   UNL     1       2.678   1.639 -22.797  0.00  0.00    +0.062 C 
ATOM     10  C   UNL     1       3.256   1.991 -23.919  0.00  0.00    +0.119 C 
ATOM     11  C   UNL     1       2.559   2.579 -24.864  0.00  0.00    +0.032 C 
ATOM     12  C   UNL     1       1.280   2.813 -24.679  0.00  0.00    +0.014 C 
ATOM     13  C   UNL     1       0.701   2.461 -23.558  0.00  0.00    -0.008 C 
ATOM     14  C   UNL     1       0.002   3.048 -24.500  0.00  0.00    +0.016 C 
ATOM     15  C   UNL     1      -0.576   2.695 -23.376  0.00  0.00    +0.003 C 
ATOM     16  C   UNL     1      -1.277   3.283 -24.320  0.00  0.00    +0.005 C 
ATOM     17  C   UNL     1      -2.554   3.517 -24.136  0.00  0.00    +0.010 C 
ATOM     18  C   UNL     1      -3.133   3.164 -23.014  0.00  0.00    -0.000 C 
ATOM     19  C   UNL     1      -3.857   3.740 -23.916  0.00  0.00    +0.014 C 
ENDROOT
BRANCH   1  21
ATOM     20  C   UNL     1      -6.378   2.620 -21.718  0.00  0.00    +0.007 C 
ATOM     21  C   UNL     1      -5.651   3.493 -22.354  0.00  0.00    +0.032 C 
ENDBRANCH   1  21
BRANCH  10  22
ATOM     22  O   UNL     1       4.536   1.757 -24.101  0.00  0.00    -0.391 OA
ATOM     23  H   UNL     1       4.850   1.133 -23.428  0.00  0.00    +0.210 HD
ENDBRANCH  10  22
BRANCH   1  24
ATOM     24  O   UNL     1      -4.650   3.731 -23.452  0.00  0.00    -0.388 OA
ATOM     25  H   UNL     1      -4.844   3.054 -24.120  0.00  0.00    +0.210 HD
ENDBRANCH   1  24
TORSDOF 3
ENDMDL
