MODEL 1
REMARK VINA RESULT:   -12.446      0.000      0.000
REMARK INTER + INTRA:         -12.446
REMARK INTER:                 -12.446
REMARK INTRA:                   0.000
REMARK UNBOUND:                 0.000
REMARK  Name = ZINC000004104637
REMARK  2 active torsions:
REMARK  status: ('A' for Active; 'I' for Inactive)
REMARK    1  A    between atoms: C_1  and  C_2
REMARK    2  A    between atoms: C_16  and  C_17
REMARK                            x       y       z     vdW  Elec       q    Type
REMARK                         _______ _______ _______ _____ _____    ______ ____
ROOT
ATOM      1  C   UNL     1      -4.857   2.876 -21.660  0.00  0.00    +0.019 C 
ATOM      2  C   UNL     1      -4.006   3.151 -22.602  0.00  0.00    +0.029 C 
ATOM      3  C   UNL     1      -3.482   2.553 -21.574  0.00  0.00    +0.015 C 
ATOM      4  C   UNL     1      -2.210   2.284 -21.557  0.00  0.00    +0.005 C 
ATOM      5  C   UNL     1      -1.462   2.613 -22.569  0.00  0.00    -0.001 C 
ATOM      6  C   UNL     1      -1.986   3.211 -23.597  0.00  0.00    +0.004 C 
ATOM      7  C   UNL     1      -1.239   3.541 -24.608  0.00  0.00    +0.078 C 
ATOM      8  C   UNL     1       0.032   3.272 -24.592  0.00  0.00    +0.138 C 
ATOM      9  C   UNL     1       0.557   2.673 -23.564  0.00  0.00    +0.068 C 
ATOM     10  C   UNL     1       1.828   2.404 -23.547  0.00  0.00    +0.086 C 
ATOM     11  C   UNL     1       2.352   1.805 -22.519  0.00  0.00    +0.134 C 
ATOM     12  C   UNL     1       1.605   1.476 -21.507  0.00  0.00    +0.075 C 
ATOM     13  C   UNL     1       0.334   1.745 -21.524  0.00  0.00    +0.015 C 
ATOM     14  O   UNL     1       3.624   1.536 -22.502  0.00  0.00    -0.297 OA
ATOM     15  O   UNL     1       0.780   3.601 -25.603  0.00  0.00    -0.297 OA
ATOM     16  C   UNL     1      -0.191   2.344 -22.552  0.00  0.00    -0.019 C 
ATOM     17  C   UNL     1      -0.938   2.015 -21.541  0.00  0.00    +0.012 C 
ATOM     18  C   UNL     1      -5.223   3.526 -22.864  0.00  0.00    +0.139 C 
ATOM     19  O   UNL     1      -6.255   3.368 -22.088  0.00  0.00    -0.297 OA
ATOM     20  C   UNL     1      -5.228   4.087 -24.036  0.00  0.00    +0.075 C 
ATOM     21  C   UNL     1      -4.014   4.059 -24.500  0.00  0.00    +0.012 C 
ATOM     22  C   UNL     1      -3.259   3.481 -23.614  0.00  0.00    +0.006 C 
ENDROOT
TORSDOF 0
ENDMDL
