MODEL 1
REMARK VINA RESULT:   -11.102      0.000      0.000
REMARK INTER + INTRA:         -11.751
REMARK INTER:                 -11.751
REMARK INTRA:                   0.000
REMARK UNBOUND:                 0.000
REMARK  Name = ZINC000013651794
REMARK  3 active torsions:
REMARK  status: ('A' for Active; 'I' for Inactive)
REMARK    1  A    between atoms: C_1  and  C_2
REMARK    2  A    between atoms: C_10  and  O_11
REMARK    3  A    between atoms: C_20  and  O_21
REMARK                            x       y       z     vdW  Elec       q    Type
REMARK                         _______ _______ _______ _____ _____    ______ ____
ROOT
ATOM      1  C   UNL     1      -4.565   3.058 -21.822  0.00  0.00    +0.014 C 
ATOM      2  C   UNL     1      -3.837   3.303 -22.871  0.00  0.00    -0.003 C 
ATOM      3  C   UNL     1      -3.177   2.784 -21.879  0.00  0.00    +0.010 C 
ATOM      4  C   UNL     1      -1.902   2.557 -21.995  0.00  0.00    +0.009 C 
ATOM      5  C   UNL     1      -1.288   2.849 -23.103  0.00  0.00    +0.023 C 
ATOM      6  C   UNL     1      -0.013   2.622 -23.219  0.00  0.00    -0.040 A 
ATOM      7  C   UNL     1       0.648   2.103 -22.228  0.00  0.00    +0.023 A 
ATOM      8  C   UNL     1       1.923   1.876 -22.343  0.00  0.00    +0.060 A 
ATOM      9  C   UNL     1       2.536   2.169 -23.452  0.00  0.00    +0.131 A 
ATOM     10  C   UNL     1       1.876   2.687 -24.444  0.00  0.00    +0.050 A 
ATOM     11 BR   UNL     1       2.584   1.357 -21.351  0.00  0.00    -0.047 Br
ATOM     12  C   UNL     1       0.601   2.914 -24.327  0.00  0.00    -0.040 A 
ATOM     13  C   UNL     1      -0.060   3.433 -25.319  0.00  0.00    +0.036 C 
ATOM     14  C   UNL     1      -1.335   3.660 -25.204  0.00  0.00    +0.009 C 
ATOM     15  C   UNL     1      -1.949   3.368 -24.096  0.00  0.00    +0.000 C 
ATOM     16  C   UNL     1      -5.090   3.622 -23.009  0.00  0.00    +0.121 C 
ATOM     17  C   UNL     1      -5.250   4.111 -24.203  0.00  0.00    +0.032 C 
ATOM     18  C   UNL     1      -4.096   4.095 -24.802  0.00  0.00    +0.007 C 
ATOM     19  C   UNL     1      -3.223   3.595 -23.979  0.00  0.00    +0.001 C 
ENDROOT
BRANCH   9  20
ATOM     20  O   UNL     1       3.812   1.941 -23.567  0.00  0.00    -0.506 OA
ATOM     21  H   UNL     1       4.169   1.124 -23.283  0.00  0.00    +0.292 HD
ENDBRANCH   9  20
BRANCH  16  22
ATOM     22  O   UNL     1      -6.019   3.478 -22.112  0.00  0.00    -0.391 OA
ATOM     23  H   UNL     1      -6.862   3.276 -22.549  0.00  0.00    +0.210 HD
ENDBRANCH  16  22
TORSDOF 2
ENDMDL
