MODEL 1
REMARK VINA RESULT:   -10.259      0.000      0.000
REMARK INTER + INTRA:         -10.259
REMARK INTER:                 -10.259
REMARK INTRA:                   0.000
REMARK UNBOUND:                 0.000
REMARK  Name = C=C1C(=O)O[C@@H]2C[C@]3(C)CCC[C@H](C)[C@]34O[C@@H]4[C@@H]12          ZINC001857795303
REMARK  2 active torsions:
REMARK  status: ('A' for Active; 'I' for Inactive)
REMARK    1  A    between atoms: C_8  and  C_9
REMARK    2  A    between atoms: C_13  and  C_14
REMARK                            x       y       z     vdW  Elec       q    Type
REMARK                         _______ _______ _______ _____ _____    ______ ____
ROOT
ATOM      1  C   UNL     1       0.927   2.686 -24.168  0.00  0.00    +0.020 C 
ATOM      2  C   UNL     1       0.216   2.410 -23.115  0.00  0.00    +0.039 C 
ATOM      3  C   UNL     1       0.652   1.861 -22.020  0.00  0.00    +0.335 C 
ATOM      4  O   UNL     1      -0.350   1.747 -21.201  0.00  0.00    -0.457 OA
ATOM      5  C   UNL     1      -1.406   2.226 -21.789  0.00  0.00    +0.188 C 
ATOM      6  C   UNL     1      -2.641   2.342 -21.401  0.00  0.00    +0.055 C 
ATOM      7  C   UNL     1      -3.527   2.868 -22.195  0.00  0.00    +0.003 C 
ATOM      8  C   UNL     1      -4.762   2.983 -21.805  0.00  0.00    +0.010 C 
ATOM      9  C   UNL     1      -5.646   3.509 -22.599  0.00  0.00    +0.001 C 
ATOM     10  C   UNL     1      -5.296   3.919 -23.782  0.00  0.00    +0.006 C 
ATOM     11  C   UNL     1      -4.061   3.804 -24.171  0.00  0.00    +0.021 C 
ATOM     12  C   UNL     1      -3.711   4.214 -25.354  0.00  0.00    +0.010 C 
ATOM     13  C   UNL     1      -3.876   2.457 -21.012  0.00  0.00    +0.014 C 
ATOM     14  C   UNL     1      -3.176   3.278 -23.377  0.00  0.00    +0.105 C 
ATOM     15  O   UNL     1      -2.825   3.688 -24.560  0.00  0.00    -0.363 OA
ATOM     16  C   UNL     1      -1.941   3.162 -23.767  0.00  0.00    +0.163 C 
ATOM     17  O   UNL     1       1.875   1.490 -21.786  0.00  0.00    -0.245 OA
ATOM     18  C   UNL     1      -1.056   2.636 -22.972  0.00  0.00    +0.098 C 
ENDROOT
TORSDOF 0
ENDMDL
