MODEL 1
REMARK VINA RESULT:   -11.229      0.000      0.000
REMARK INTER + INTRA:         -11.441
REMARK INTER:                 -11.957
REMARK INTRA:                   0.516
REMARK UNBOUND:                 0.774
REMARK  Name = ZINC000005525596
REMARK  4 active torsions:
REMARK  status: ('A' for Active; 'I' for Inactive)
REMARK    1  A    between atoms: C_1  and  O_2
REMARK    2  A    between atoms: O_2  and  C_3
REMARK    3  A    between atoms: C_9  and  O_10
REMARK    4  A    between atoms: N_14  and  C_15
REMARK                            x       y       z     vdW  Elec       q    Type
REMARK                         _______ _______ _______ _____ _____    ______ ____
ROOT
ATOM      1  C   UNL     1       0.675   2.723 -24.112  0.00  0.00    +0.163 A 
ATOM      2  C   UNL     1       1.029   2.280 -22.959  0.00  0.00    +0.065 A 
ATOM      3  C   UNL     1       0.183   2.150 -22.021  0.00  0.00    +0.025 A 
ATOM      4  C   UNL     1      -1.368   2.555 -22.300  0.00  0.00    -0.021 A 
ATOM      5  C   UNL     1      -1.502   2.943 -23.418  0.00  0.00    +0.009 A 
ATOM      6  C   UNL     1      -2.279   3.243 -23.859  0.00  0.00    +0.019 C 
ATOM      7  C   UNL     1      -3.146   3.666 -24.625  0.00  0.00    +0.063 C 
ATOM      8  C   UNL     1      -4.323   3.738 -24.106  0.00  0.00    +0.132 C 
ATOM      9  N   UNL     1      -4.421   3.352 -22.844  0.00  0.00    +0.236 N 
ATOM     10  H   UNL     1      -4.586   3.074 -21.878  0.00  0.00    +0.203 HD
ATOM     11  C   UNL     1      -3.332   2.958 -22.310  0.00  0.00    +0.072 C 
ATOM     12  C   UNL     1      -5.517   3.412 -22.339  0.00  0.00    +0.190 C 
ATOM     13  C   UNL     1      -0.869   2.906 -23.705  0.00  0.00    +0.086 C 
ATOM     14  C   UNL     1      -0.395   2.407 -22.453  0.00  0.00    +0.134 C 
ATOM     15  O   UNL     1      -0.605   1.887 -20.707  0.00  0.00    -0.297 OA
ATOM     16  C   UNL     1      -1.008   2.244 -21.561  0.00  0.00    +0.075 C 
ATOM     17  C   UNL     1      -1.973   2.454 -21.604  0.00  0.00    +0.017 C 
ATOM     18  C   UNL     1      -2.648   2.998 -22.866  0.00  0.00    +0.050 C 
ATOM     19  C   UNL     1      -2.750   2.610 -21.595  0.00  0.00    +0.091 C 
ATOM     20 BR   UNL     1       1.767   1.985 -22.509  0.00  0.00    -0.050 Br
ATOM     21  C   UNL     1      -0.533   3.050 -24.363  0.00  0.00    +0.163 A 
ENDROOT
BRANCH   1  23
ATOM     22  C   UNL     1       2.228   1.860 -25.511  0.00  0.00    +0.277 C 
ATOM     23  O   UNL     1       1.496   2.881 -25.120  0.00  0.00    -0.491 OA
ENDBRANCH   1  23
BRANCH  21  24
ATOM     24  O   UNL     1      -0.664   3.498 -25.671  0.00  0.00    -0.503 OA
ATOM     25  H   UNL     1      -1.185   3.014 -26.281  0.00  0.00    +0.292 HD
ENDBRANCH  21  24
TORSDOF 2
ENDMDL
