MODEL 1
REMARK VINA RESULT:   -10.020      0.000      0.000
REMARK INTER + INTRA:          -7.132
REMARK INTER:                 -10.394
REMARK INTRA:                   3.263
REMARK UNBOUND:                 3.474
REMARK  Name = ZINC000071404292
REMARK  5 active torsions:
REMARK  status: ('A' for Active; 'I' for Inactive)
REMARK    1  A    between atoms: C_1  and  C_2
REMARK    2  A    between atoms: C_2  and  O_4
REMARK    3  A    between atoms: O_4  and  C_5
REMARK    4  A    between atoms: C_9  and  C_10
REMARK    5  A    between atoms: C_19  and  C_20
REMARK                            x       y       z     vdW  Elec       q    Type
REMARK                         _______ _______ _______ _____ _____    ______ ____
ROOT
ATOM      1  C   UNL     1      -3.458   3.213 -23.087  0.00  0.00    +0.276 C 
ATOM      2  C   UNL     1      -2.148   2.957 -22.815  0.00  0.00    +0.155 A 
ATOM      3  O   UNL     1      -1.426   2.726 -21.781  0.00  0.00    -0.463 OA
ATOM      4  C   UNL     1      -0.220   2.556 -22.178  0.00  0.00    +0.199 A 
ATOM      5  C   UNL     1      -0.196   2.681 -23.452  0.00  0.00    -0.005 A 
ATOM      6  C   UNL     1       0.833   2.579 -24.208  0.00  0.00    +0.047 C 
ATOM      7  C   UNL     1      -1.391   2.929 -23.842  0.00  0.00    +0.044 A 
ATOM      8  C   UNL     1      -1.935   3.136 -24.946  0.00  0.00    +0.234 C 
ATOM      9  C   UNL     1      -3.176   3.329 -24.713  0.00  0.00    +0.032 C 
ATOM     10  C   UNL     1      -3.760   3.544 -25.826  0.00  0.00    +0.037 C 
ATOM     11  C   UNL     1      -2.878   3.485 -26.761  0.00  0.00    +0.336 C 
ATOM     12  O   UNL     1      -3.092   3.649 -28.012  0.00  0.00    -0.245 OA
ATOM     13  C   UNL     1      -4.981   3.746 -25.717  0.00  0.00    +0.045 C 
ATOM     14  C   UNL     1      -5.753   3.755 -24.481  0.00  0.00    +0.039 C 
ATOM     15  C   UNL     1      -5.571   3.570 -22.974  0.00  0.00    +0.155 C 
ATOM     16  O   UNL     1      -5.660   3.457 -21.702  0.00  0.00    -0.361 OA
ATOM     17  O   UNL     1      -1.749   3.232 -26.213  0.00  0.00    -0.449 OA
ATOM     18  C   UNL     1      -4.524   3.317 -22.278  0.00  0.00    +0.137 C 
ATOM     19  C   UNL     1      -4.174   3.169 -21.418  0.00  0.00    +0.048 C 
ENDROOT
BRANCH   1  20
ATOM     20  O   UNL     1      -2.957   2.978 -21.631  0.00  0.00    -0.451 OA
BRANCH  20  22
ATOM     21  C   UNL     1      -3.126   3.685 -19.489  0.00  0.00    +0.136 C 
ATOM     22  C   UNL     1      -2.771   3.926 -20.713  0.00  0.00    +0.305 C 
ATOM     23  O   UNL     1      -2.255   5.064 -21.003  0.00  0.00    -0.251 OA
ENDBRANCH  20  22
ENDBRANCH   1  20
TORSDOF 2
ENDMDL
