MODEL 1
REMARK VINA RESULT:   -10.915      0.000      0.000
REMARK INTER + INTRA:         -11.445
REMARK INTER:                 -11.956
REMARK INTRA:                   0.512
REMARK UNBOUND:                 0.428
REMARK  Name = COc1cc(Br)c2c(c1O)[C@@]13CCN(C)[C@@H](C2)[C@@H]1CCC(=O)C3            ZINC000253505312
REMARK  4 active torsions:
REMARK  status: ('A' for Active; 'I' for Inactive)
REMARK    1  A    between atoms: C_1  and  O_2
REMARK    2  A    between atoms: O_2  and  C_3
REMARK    3  A    between atoms: C_9  and  O_10
REMARK    4  A    between atoms: N_14  and  C_15
REMARK                            x       y       z     vdW  Elec       q    Type
REMARK                         _______ _______ _______ _____ _____    ______ ____
ROOT
ATOM      1  C   UNL     1       0.624   2.710 -24.104  0.00  0.00    +0.163 A 
ATOM      2  C   UNL     1       0.965   2.263 -22.949  0.00  0.00    +0.065 A 
ATOM      3  C   UNL     1       0.109   2.129 -22.021  0.00  0.00    +0.025 A 
ATOM      4  C   UNL     1      -1.439   2.536 -22.315  0.00  0.00    -0.021 A 
ATOM      5  C   UNL     1      -1.560   2.927 -23.433  0.00  0.00    +0.009 A 
ATOM      6  C   UNL     1      -2.333   3.229 -23.882  0.00  0.00    +0.019 C 
ATOM      7  C   UNL     1      -3.191   3.655 -24.655  0.00  0.00    +0.063 C 
ATOM      8  C   UNL     1      -4.374   3.725 -24.149  0.00  0.00    +0.132 C 
ATOM      9  N   UNL     1      -4.485   3.334 -22.890  0.00  0.00    +0.236 N 
ATOM     10  H   UNL     1      -4.661   3.053 -21.926  0.00  0.00    +0.203 HD
ATOM     11  C   UNL     1      -3.402   2.938 -22.345  0.00  0.00    +0.072 C 
ATOM     12  C   UNL     1      -5.587   3.393 -22.397  0.00  0.00    +0.190 C 
ATOM     13  C   UNL     1      -0.924   2.892 -23.714  0.00  0.00    +0.086 C 
ATOM     14  C   UNL     1      -0.464   2.388 -22.459  0.00  0.00    +0.134 C 
ATOM     15  O   UNL     1      -0.693   1.862 -20.717  0.00  0.00    -0.297 OA
ATOM     16  C   UNL     1      -1.086   2.222 -21.573  0.00  0.00    +0.075 C 
ATOM     17  C   UNL     1      -2.051   2.432 -21.626  0.00  0.00    +0.017 C 
ATOM     18  C   UNL     1      -2.712   2.980 -22.894  0.00  0.00    +0.050 C 
ATOM     19  C   UNL     1      -2.828   2.587 -21.625  0.00  0.00    +0.091 C 
ATOM     20 BR   UNL     1       1.698   1.966 -22.492  0.00  0.00    -0.050 Br
ATOM     21  C   UNL     1      -0.581   3.038 -24.367  0.00  0.00    +0.163 A 
ENDROOT
BRANCH   1  23
ATOM     22  C   UNL     1       2.185   1.849 -25.496  0.00  0.00    +0.277 C 
ATOM     23  O   UNL     1       1.456   2.871 -25.103  0.00  0.00    -0.491 OA
ENDBRANCH   1  23
BRANCH  21  24
ATOM     24  O   UNL     1      -0.698   3.490 -25.675  0.00  0.00    -0.503 OA
ATOM     25  H   UNL     1      -0.621   2.886 -26.387  0.00  0.00    +0.292 HD
ENDBRANCH  21  24
TORSDOF 2
ENDMDL
