MODEL 1
REMARK VINA RESULT:   -12.192      0.000      0.000
REMARK INTER + INTRA:         -12.192
REMARK INTER:                 -12.192
REMARK INTRA:                   0.000
REMARK UNBOUND:                 0.000
REMARK  Name = ZINC000020470300
REMARK  0 active torsions:
REMARK  status: ('A' for Active; 'I' for Inactive)
REMARK                            x       y       z     vdW  Elec       q    Type
REMARK                         _______ _______ _______ _____ _____    ______ ____
ROOT
ATOM      1  C   UNL     1      -2.757   2.383 -21.321  0.00  0.00    +0.008 A 
ATOM      2  C   UNL     1      -3.979   2.781 -21.513  0.00  0.00    +0.050 A 
ATOM      3  C   UNL     1      -4.321   3.303 -22.653  0.00  0.00    +0.167 A 
ATOM      4  C   UNL     1      -3.441   3.427 -23.602  0.00  0.00    +0.175 A 
ATOM      5  O   UNL     1      -4.028   3.970 -24.626  0.00  0.00    -0.452 OA
ATOM      6  C   UNL     1      -5.271   4.182 -24.311  0.00  0.00    +0.466 C 
ATOM      7  C   UNL     1      -2.218   3.029 -23.409  0.00  0.00    +0.046 A 
ATOM      8  C   UNL     1      -1.337   3.153 -24.358  0.00  0.00    +0.172 C 
ATOM      9  N   UNL     1      -0.115   2.755 -24.166  0.00  0.00    +0.244 N 
ATOM     10  H   UNL     1       0.636   2.815 -24.853  0.00  0.00    +0.204 HD
ATOM     11  C   UNL     1       0.766   2.879 -25.114  0.00  0.00    +0.137 C 
ATOM     12  C   UNL     1       1.988   2.481 -24.922  0.00  0.00    +0.086 C 
ATOM     13  C   UNL     1       2.331   1.959 -23.781  0.00  0.00    -0.030 A 
ATOM     14  C   UNL     1       3.553   1.561 -23.589  0.00  0.00    +0.053 A 
ATOM     15  C   UNL     1       3.895   1.039 -22.449  0.00  0.00    +0.167 A 
ATOM     16  O   UNL     1       5.026   0.572 -22.010  0.00  0.00    -0.453 OA
ATOM     17  C   UNL     1       4.845   0.159 -20.791  0.00  0.00    +0.466 C 
ATOM     18  O   UNL     1       3.602   0.371 -20.476  0.00  0.00    -0.453 OA
ATOM     19  C   UNL     1       3.014   0.915 -21.500  0.00  0.00    +0.167 A 
ATOM     20  C   UNL     1       1.792   1.313 -21.693  0.00  0.00    +0.059 A 
ATOM     21  C   UNL     1       1.450   1.835 -22.833  0.00  0.00    +0.008 A 
ATOM     22  C   UNL     1       0.227   2.233 -23.025  0.00  0.00    +0.100 C 
ATOM     23  C   UNL     1      -0.654   2.109 -22.077  0.00  0.00    +0.095 C 
ATOM     24  O   UNL     1      -5.452   3.770 -23.092  0.00  0.00    -0.453 OA
ATOM     25  C   UNL     1      -1.876   2.507 -22.269  0.00  0.00    -0.030 A 
ENDROOT
TORSDOF 0
ENDMDL
