MODEL 1
REMARK VINA RESULT:    -9.776      0.000      0.000
REMARK INTER + INTRA:         -11.369
REMARK INTER:                 -11.679
REMARK INTRA:                   0.310
REMARK UNBOUND:                 1.549
REMARK  Name = ZINC000006017650
REMARK  10 active torsions:
REMARK  status: ('A' for Active; 'I' for Inactive)
REMARK    1  A    between atoms: C_1  and  O_2
REMARK    2  A    between atoms: O_2  and  C_3
REMARK    3  A    between atoms: C_7  and  C_8
REMARK    4  A    between atoms: C_11  and  O_12
REMARK    5  A    between atoms: C_13  and  O_14
REMARK    6  A    between atoms: C_16  and  O_17
REMARK    7  A    between atoms: O_17  and  C_18
REMARK    8  A    between atoms: C_22  and  O_23
REMARK    9  A    between atoms: C_24  and  O_25
REMARK   10  A    between atoms: O_25  and  C_26
REMARK                            x       y       z     vdW  Elec       q    Type
REMARK                         _______ _______ _______ _____ _____    ______ ____
ROOT
ATOM      1  C   UNL     1      -2.422   3.582 -23.127  0.00  0.00    +0.169 A 
ATOM      2  C   UNL     1      -1.434   3.190 -22.379  0.00  0.00    +0.096 A 
ATOM      3  C   UNL     1      -0.281   2.917 -22.915  0.00  0.00    +0.147 A 
ATOM      4  O   UNL     1       0.707   2.525 -22.168  0.00  0.00    -0.451 OA
ATOM      5  C   UNL     1       1.860   2.252 -22.704  0.00  0.00    +0.181 A 
ATOM      6  C   UNL     1       2.024   2.372 -23.988  0.00  0.00    +0.211 A 
ATOM      7  C   UNL     1       1.035   2.764 -24.736  0.00  0.00    +0.238 A 
ATOM      8  O   UNL     1       1.199   2.883 -26.020  0.00  0.00    -0.283 OA
ATOM      9  C   UNL     1      -0.118   3.037 -24.200  0.00  0.00    +0.113 A 
ATOM     10  C   UNL     1      -1.106   3.429 -24.947  0.00  0.00    +0.177 A 
ATOM     11  C   UNL     1      -2.258   3.701 -24.411  0.00  0.00    +0.204 A 
ENDROOT
BRANCH   5  12
ATOM     12  C   UNL     1       2.848   1.860 -21.956  0.00  0.00    +0.025 A 
ATOM     13  C   UNL     1       2.836   0.669 -21.434  0.00  0.00    +0.015 A 
ATOM     14  C   UNL     1       3.824   0.277 -20.686  0.00  0.00    +0.050 A 
ATOM     15  C   UNL     1       4.825   1.077 -20.460  0.00  0.00    +0.158 A 
ATOM     16  C   UNL     1       4.837   2.267 -20.982  0.00  0.00    +0.159 A 
ATOM     17  C   UNL     1       3.848   2.658 -21.730  0.00  0.00    +0.060 A 
BRANCH  16  18
ATOM     18  O   UNL     1       5.837   3.066 -20.756  0.00  0.00    -0.503 OA
ATOM     19  H   UNL     1       6.715   2.739 -20.792  0.00  0.00    +0.292 HD
ENDBRANCH  16  18
BRANCH  15  20
ATOM     20  O   UNL     1       5.813   0.684 -19.712  0.00  0.00    -0.503 OA
ATOM     21  H   UNL     1       6.448   1.305 -19.412  0.00  0.00    +0.292 HD
ENDBRANCH  15  20
ENDBRANCH   5  12
BRANCH   6  22
ATOM     22  O   UNL     1       3.176   2.099 -24.525  0.00  0.00    -0.488 OA
ATOM     23  C   UNL     1       3.441   0.887 -24.911  0.00  0.00    +0.277 C 
ENDBRANCH   6  22
BRANCH   1  25
ATOM     24  C   UNL     1      -4.189   2.958 -21.878  0.00  0.00    +0.277 C 
ATOM     25  O   UNL     1      -3.575   3.855 -22.591  0.00  0.00    -0.491 OA
ENDBRANCH   1  25
BRANCH  10  26
ATOM     26  O   UNL     1      -0.942   3.548 -26.231  0.00  0.00    -0.503 OA
ATOM     27  H   UNL     1      -0.684   4.372 -26.596  0.00  0.00    +0.292 HD
ENDBRANCH  10  26
BRANCH  11  28
ATOM     28  O   UNL     1      -3.247   4.094 -25.159  0.00  0.00    -0.488 OA
ATOM     29  C   UNL     1      -4.006   3.217 -25.745  0.00  0.00    +0.277 C 
ENDBRANCH  11  28
TORSDOF 7
ENDMDL
