MODEL 1
REMARK VINA RESULT:   -11.231      0.000      0.000
REMARK INTER + INTRA:         -12.337
REMARK INTER:                 -12.189
REMARK INTRA:                  -0.148
REMARK UNBOUND:                -0.121
REMARK  Name = COc1ccc2c3c1O[C@]1(C)[C@H](O)C=C[C@H]4[C@@H](C2)N(C)CC[C@]341        ZINC000100393595
REMARK  5 active torsions:
REMARK  status: ('A' for Active; 'I' for Inactive)
REMARK    1  A    between atoms: C_1  and  O_2
REMARK    2  A    between atoms: O_2  and  C_3
REMARK    3  A    between atoms: C_10  and  C_11
REMARK    4  A    between atoms: C_12  and  O_13
REMARK    5  A    between atoms: N_19  and  C_20
REMARK                            x       y       z     vdW  Elec       q    Type
REMARK                         _______ _______ _______ _____ _____    ______ ____
ROOT
ATOM      1  C   UNL     1       0.444   2.243 -23.336  0.00  0.00    +0.162 A 
ATOM      2  C   UNL     1       0.414   1.880 -22.125  0.00  0.00    +0.050 A 
ATOM      3  C   UNL     1      -0.654   1.925 -21.473  0.00  0.00    +0.008 A 
ATOM      4  C   UNL     1      -1.705   2.333 -22.024  0.00  0.00    -0.034 A 
ATOM      5  C   UNL     1      -1.695   2.699 -23.230  0.00  0.00    +0.012 A 
ATOM      6  C   UNL     1      -2.744   3.106 -23.777  0.00  0.00    +0.058 C 
ATOM      7  C   UNL     1      -3.872   3.586 -24.504  0.00  0.00    +0.067 C 
ATOM      8  C   UNL     1      -5.091   3.648 -23.795  0.00  0.00    +0.132 C 
ATOM      9  N   UNL     1      -5.085   3.234 -22.447  0.00  0.00    +0.236 N 
ATOM     10  H   UNL     1      -5.937   3.258 -21.886  0.00  0.00    +0.203 HD
ATOM     11  C   UNL     1      -6.123   3.258 -21.748  0.00  0.00    +0.190 C 
ATOM     12  C   UNL     1      -3.839   2.788 -21.916  0.00  0.00    +0.076 C 
ATOM     13  C   UNL     1      -3.814   3.152 -23.128  0.00  0.00    +0.075 C 
ATOM     14  C   UNL     1      -4.872   3.563 -23.682  0.00  0.00    -0.019 C 
ATOM     15  C   UNL     1      -4.854   3.925 -24.881  0.00  0.00    +0.004 C 
ATOM     16  C   UNL     1      -3.777   3.882 -25.543  0.00  0.00    +0.181 C 
ATOM     17  C   UNL     1      -2.728   3.475 -24.996  0.00  0.00    +0.148 C 
ATOM     18  C   UNL     1      -2.425   3.766 -26.175  0.00  0.00    +0.060 C 
ATOM     19  O   UNL     1      -1.254   3.183 -25.144  0.00  0.00    -0.478 OA
ATOM     20  C   UNL     1      -2.793   2.380 -21.365  0.00  0.00    +0.090 C 
ATOM     21  C   UNL     1      -0.620   2.655 -23.890  0.00  0.00    +0.167 A 
ENDROOT
BRANCH   1  23
ATOM     22  C   UNL     1       2.169   3.242 -24.188  0.00  0.00    +0.277 C 
ATOM     23  O   UNL     1       1.514   2.196 -23.983  0.00  0.00    -0.491 OA
ENDBRANCH   1  23
BRANCH  16  24
ATOM     24  O   UNL     1      -3.761   4.244 -26.741  0.00  0.00    -0.384 OA
ATOM     25  H   UNL     1      -3.420   3.522 -27.293  0.00  0.00    +0.210 HD
ENDBRANCH  16  24
TORSDOF 2
ENDMDL
