MODEL 1
REMARK VINA RESULT:    -9.100      0.000      0.000
REMARK INTER + INTRA:         -11.148
REMARK INTER:                 -11.775
REMARK INTRA:                   0.626
REMARK UNBOUND:                 0.612
REMARK  Name = ZINC000004098683
REMARK  10 active torsions:
REMARK  status: ('A' for Active; 'I' for Inactive)
REMARK    1  A    between atoms: C_1  and  O_2
REMARK    2  A    between atoms: O_2  and  C_3
REMARK    3  A    between atoms: C_5  and  O_6
REMARK    4  A    between atoms: C_7  and  C_8
REMARK    5  A    between atoms: C_9  and  C_10
REMARK    6  A    between atoms: C_12  and  O_13
REMARK    7  A    between atoms: C_22  and  O_23
REMARK    8  A    between atoms: C_27  and  O_28
REMARK    9  A    between atoms: C_29  and  C_30
REMARK   10  A    between atoms: C_30  and  C_31
REMARK                            x       y       z     vdW  Elec       q    Type
REMARK                         _______ _______ _______ _____ _____    ______ ____
ROOT
ATOM      1  C   UNL     1      -0.507   3.566 -24.534  0.00  0.00    +0.004 A 
ATOM      2  C   UNL     1      -0.564   3.702 -25.861  0.00  0.00    -0.038 A 
ATOM      3  C   UNL     1      -1.750   3.751 -26.473  0.00  0.00    +0.050 A 
ATOM      4  C   UNL     1      -2.873   3.664 -25.762  0.00  0.00    +0.129 A 
ATOM      5  C   UNL     1      -2.815   3.528 -24.435  0.00  0.00    +0.075 A 
ATOM      6  C   UNL     1      -3.938   3.440 -23.721  0.00  0.00    +0.202 C 
ATOM      7  O   UNL     1      -5.124   3.489 -24.334  0.00  0.00    -0.286 OA
ATOM      8  C   UNL     1      -3.880   3.304 -22.395  0.00  0.00    +0.075 A 
ATOM      9  C   UNL     1      -5.004   3.216 -21.679  0.00  0.00    +0.128 A 
ATOM     10  C   UNL     1      -4.944   3.080 -20.356  0.00  0.00    +0.046 A 
ATOM     11  C   UNL     1      -3.760   3.031 -19.741  0.00  0.00    +0.004 A 
ATOM     12  C   UNL     1      -2.637   3.118 -20.456  0.00  0.00    +0.012 A 
ATOM     13  C   UNL     1      -2.699   3.255 -21.783  0.00  0.00    +0.037 A 
ATOM     14  C   UNL     1      -1.577   3.342 -22.495  0.00  0.00    +0.195 C 
ATOM     15  O   UNL     1      -0.923   3.315 -22.152  0.00  0.00    -0.287 OA
ATOM     16  C   UNL     1       0.559   3.790 -26.574  0.00  0.00    +0.044 C 
ATOM     17  C   UNL     1      -1.631   3.479 -23.823  0.00  0.00    +0.045 A 
ENDROOT
BRANCH   1  21
ATOM     18  C   UNL     1       3.032   3.459 -22.667  0.00  0.00    +0.138 A 
ATOM     19  C   UNL     1       2.394   4.619 -22.835  0.00  0.00    +0.092 A 
ATOM     20  C   UNL     1       1.215   4.645 -23.458  0.00  0.00    +0.132 A 
ATOM     21  C   UNL     1       0.674   3.516 -23.914  0.00  0.00    +0.067 A 
ATOM     22  C   UNL     1       1.318   2.359 -23.742  0.00  0.00    +0.142 A 
ATOM     23  C   UNL     1       2.496   2.329 -23.120  0.00  0.00    +0.101 A 
BRANCH  23  24
ATOM     24  C   UNL     1       3.123   1.164 -22.960  0.00  0.00    +0.167 C 
ATOM     25  O   UNL     1       3.813   0.633 -23.975  0.00  0.00    -0.292 OA
ATOM     26  C   UNL     1       3.064   0.528 -21.792  0.00  0.00    +0.092 C 
ENDBRANCH  23  24
BRANCH  22  27
ATOM     27  O   UNL     1       1.019   1.730 -23.995  0.00  0.00    -0.505 OA
ATOM     28  H   UNL     1       0.273   1.360 -23.565  0.00  0.00    +0.292 HD
ENDBRANCH  22  27
BRANCH  18  30
ATOM     29  C   UNL     1       5.289   3.958 -22.614  0.00  0.00    +0.277 C 
ATOM     30  O   UNL     1       4.214   3.422 -22.044  0.00  0.00    -0.494 OA
ENDBRANCH  18  30
BRANCH  20  31
ATOM     31  O   UNL     1       0.579   5.808 -23.624  0.00  0.00    -0.506 OA
ATOM     32  H   UNL     1      -0.182   6.002 -23.114  0.00  0.00    +0.292 HD
ENDBRANCH  20  31
ENDBRANCH   1  21
BRANCH   4  33
ATOM     33  O   UNL     1      -4.059   3.713 -26.374  0.00  0.00    -0.506 OA
ATOM     34  H   UNL     1      -4.509   4.530 -26.458  0.00  0.00    +0.292 HD
ENDBRANCH   4  33
BRANCH   9  35
ATOM     35  O   UNL     1      -6.189   3.265 -22.293  0.00  0.00    -0.506 OA
ATOM     36  H   UNL     1      -6.295   3.780 -23.068  0.00  0.00    +0.292 HD
ENDBRANCH   9  35
TORSDOF 7
ENDMDL
