MODEL 1
REMARK VINA RESULT:   -10.794      0.000      0.000
REMARK INTER + INTRA:         -14.652
REMARK INTER:                 -13.978
REMARK INTRA:                  -0.674
REMARK UNBOUND:                -1.333
REMARK  Name = COc1ccc2c(c1Oc1nnnn1-c1ccccc1)[C@]13C=CC=C[C@@H]1[C@H](C2)N(C)CC3    ZINC000096316428
REMARK  6 active torsions:
REMARK  status: ('A' for Active; 'I' for Inactive)
REMARK    1  A    between atoms: C_1  and  O_2
REMARK    2  A    between atoms: O_2  and  C_3
REMARK    3  A    between atoms: C_8  and  O_9
REMARK    4  A    between atoms: O_9  and  C_10
REMARK    5  A    between atoms: N_14  and  C_15
REMARK    6  A    between atoms: N_29  and  C_30
REMARK                            x       y       z     vdW  Elec       q    Type
REMARK                         _______ _______ _______ _____ _____    ______ ____
ROOT
ATOM      1  C   UNL     1      -1.508   3.359 -25.394  0.00  0.00    +0.163 A 
ATOM      2  C   UNL     1      -2.498   3.505 -26.164  0.00  0.00    +0.050 A 
ATOM      3  C   UNL     1      -3.651   3.618 -25.659  0.00  0.00    +0.008 A 
ATOM      4  C   UNL     1      -3.797   3.576 -24.204  0.00  0.00    -0.034 A 
ATOM      5  C   UNL     1      -2.919   3.450 -23.622  0.00  0.00    +0.013 A 
ATOM      6  C   UNL     1      -2.786   3.397 -22.688  0.00  0.00    +0.034 C 
ATOM      7  C   UNL     1      -1.743   3.248 -21.995  0.00  0.00    -0.014 C 
ATOM      8  C   UNL     1      -1.827   3.206 -20.703  0.00  0.00    -0.004 C 
ATOM      9  C   UNL     1      -2.988   3.316 -20.099  0.00  0.00    -0.004 C 
ATOM     10  C   UNL     1      -4.087   3.470 -20.773  0.00  0.00    -0.017 C 
ATOM     11  C   UNL     1      -2.814   3.468 -24.362  0.00  0.00    +0.067 C 
ATOM     12  C   UNL     1      -4.099   3.645 -25.054  0.00  0.00    +0.132 C 
ATOM     13  N   UNL     1      -5.083   3.733 -24.426  0.00  0.00    +0.236 N 
ATOM     14  H   UNL     1      -5.719   3.775 -23.629  0.00  0.00    +0.203 HD
ATOM     15  C   UNL     1      -5.800   3.861 -25.524  0.00  0.00    +0.190 C 
ATOM     16  C   UNL     1      -5.083   3.669 -22.842  0.00  0.00    +0.076 C 
ATOM     17  C   UNL     1      -4.045   3.516 -22.030  0.00  0.00    +0.075 C 
ATOM     18  C   UNL     1      -4.951   3.689 -23.697  0.00  0.00    +0.090 C 
ATOM     19  C   UNL     1      -1.705   3.330 -24.122  0.00  0.00    +0.178 A 
ENDROOT
BRANCH   1  21
ATOM     20  C   UNL     1       0.641   4.147 -25.889  0.00  0.00    +0.277 C 
ATOM     21  O   UNL     1      -0.199   3.221 -25.729  0.00  0.00    -0.491 OA
ENDBRANCH   1  21
BRANCH  19  22
ATOM     22  O   UNL     1      -0.696   3.165 -22.934  0.00  0.00    -0.418 OA
BRANCH  22  23
ATOM     23  C   UNL     1       0.280   2.222 -22.611  0.00  0.00    +0.347 A 
ATOM     24  N   UNL     1      -0.000   1.001 -22.338  0.00  0.00    -0.070 NA
ATOM     25  N   UNL     1       1.091   0.389 -22.086  0.00  0.00    -0.019 NA
ATOM     26  N   UNL     1       2.055   1.226 -22.202  0.00  0.00    -0.036 NA
ATOM     27  N   UNL     1       1.554   2.360 -22.526  0.00  0.00    -0.162 N 
BRANCH  27  28
ATOM     28  C   UNL     1       2.254   3.427 -22.723  0.00  0.00    +0.072 A 
ATOM     29  C   UNL     1       1.695   4.581 -22.783  0.00  0.00    +0.028 A 
ATOM     30  C   UNL     1       2.407   5.627 -22.978  0.00  0.00    +0.002 A 
ATOM     31  C   UNL     1       3.678   5.524 -23.114  0.00  0.00    +0.000 A 
ATOM     32  C   UNL     1       4.237   4.371 -23.055  0.00  0.00    +0.002 A 
ATOM     33  C   UNL     1       3.525   3.324 -22.859  0.00  0.00    +0.028 A 
ENDBRANCH  27  28
ENDBRANCH  22  23
ENDBRANCH  19  22
TORSDOF 4
ENDMDL
