MODEL 1
REMARK VINA RESULT:    -9.594      0.000      0.000
REMARK INTER + INTRA:         -12.336
REMARK INTER:                 -11.760
REMARK INTRA:                  -0.576
REMARK UNBOUND:                -0.499
REMARK  Name = ZINC000003996161
REMARK  4 active torsions:
REMARK  status: ('A' for Active; 'I' for Inactive)
REMARK    1  A    between atoms: C_2  and  O_3
REMARK    2  A    between atoms: C_2  and  C_15
REMARK    3  A    between atoms: O_3  and  C_4
REMARK    4  A    between atoms: C_4  and  C_5
REMARK                            x       y       z     vdW  Elec       q    Type
REMARK                         _______ _______ _______ _____ _____    ______ ____
ROOT
ATOM      1  C   UNL     1      -1.166   2.346 -23.381  0.00  0.00    +0.241 C 
ENDROOT
BRANCH   1   2
ATOM      2  C   UNL     1      -2.175   2.882 -24.002  0.00  0.00    +0.075 C 
ATOM      3  C   UNL     1      -2.051   3.255 -25.242  0.00  0.00    +0.017 C 
ATOM      4  C   UNL     1      -3.059   3.791 -25.863  0.00  0.00    +0.051 C 
ATOM      5  C   UNL     1      -4.191   3.954 -25.244  0.00  0.00    +0.131 C 
ATOM      6  N   UNL     1      -4.315   3.581 -24.006  0.00  0.00    +0.238 N 
ATOM      7  H   UNL     1      -5.285   3.897 -24.004  0.00  0.00    +0.204 HD
ATOM      8  C   UNL     1      -5.447   3.744 -23.388  0.00  0.00    +0.131 C 
ATOM      9  C   UNL     1      -5.571   3.371 -22.148  0.00  0.00    +0.051 C 
ATOM     10  C   UNL     1      -4.562   2.835 -21.528  0.00  0.00    +0.011 C 
ATOM     11  C   UNL     1      -3.430   2.672 -22.146  0.00  0.00    +0.055 C 
ATOM     12  C   UNL     1      -3.307   3.045 -23.385  0.00  0.00    +0.071 C 
ENDBRANCH   1   2
BRANCH   1  13
ATOM     13  O   UNL     1       0.005   2.323 -23.943  0.00  0.00    -0.461 OA
BRANCH  13  15
ATOM     14  O   UNL     1       1.222   1.088 -22.506  0.00  0.00    -0.245 OA
ATOM     15  C   UNL     1       1.072   2.166 -23.216  0.00  0.00    +0.339 C 
BRANCH  15  16
ATOM     16  C   UNL     1       1.988   3.088 -23.199  0.00  0.00    +0.060 A 
ATOM     17  C   UNL     1       1.648   4.343 -23.194  0.00  0.00    +0.015 A 
ATOM     18  C   UNL     1       2.565   5.265 -23.178  0.00  0.00    +0.002 A 
ATOM     19  C   UNL     1       3.821   4.932 -23.165  0.00  0.00    +0.015 A 
ATOM     20  C   UNL     1       4.161   3.677 -23.170  0.00  0.00    +0.019 A 
ATOM     21 BR   UNL     1       5.418   3.344 -23.158  0.00  0.00    -0.050 Br
ATOM     22  C   UNL     1       3.246   2.755 -23.187  0.00  0.00    +0.030 A 
ENDBRANCH  15  16
ENDBRANCH  13  15
ENDBRANCH   1  13
TORSDOF 4
ENDMDL
