MODEL 1
REMARK VINA RESULT:    -9.321      0.000      0.000
REMARK INTER + INTRA:          -4.944
REMARK INTER:                 -12.280
REMARK INTRA:                   7.336
REMARK UNBOUND:                 7.919
REMARK  Name = CCCC[C@H](O)[C@@]12Oc3c(OC)ccc4c3[C@]13CCN(C)[C@H](C4)C3=CC=C2OC     ZINC000100393891
REMARK  11 active torsions:
REMARK  status: ('A' for Active; 'I' for Inactive)
REMARK    1  A    between atoms: C_1  and  C_2
REMARK    2  A    between atoms: C_2  and  C_3
REMARK    3  A    between atoms: C_3  and  C_4
REMARK    4  A    between atoms: C_4  and  C_5
REMARK    5  A    between atoms: C_5  and  O_6
REMARK    6  A    between atoms: C_5  and  C_7
REMARK    7  A    between atoms: C_10  and  O_11
REMARK    8  A    between atoms: O_11  and  C_12
REMARK    9  A    between atoms: N_20  and  C_21
REMARK   10  A    between atoms: C_27  and  O_28
REMARK   11  A    between atoms: O_28  and  C_29
REMARK                            x       y       z     vdW  Elec       q    Type
REMARK                         _______ _______ _______ _____ _____    ______ ____
ROOT
ATOM      1  C   UNL     1      -1.568   3.225 -23.783  0.00  0.00    +0.206 C 
ATOM      2  O   UNL     1      -1.913   3.096 -22.316  0.00  0.00    -0.470 OA
ATOM      3  C   UNL     1      -3.383   3.161 -22.034  0.00  0.00    +0.168 A 
ATOM      4  C   UNL     1      -4.296   3.129 -21.155  0.00  0.00    +0.162 A 
ATOM      5  C   UNL     1      -5.507   3.242 -21.501  0.00  0.00    +0.050 A 
ATOM      6  C   UNL     1      -5.805   3.385 -22.710  0.00  0.00    +0.008 A 
ATOM      7  C   UNL     1      -4.905   3.417 -23.578  0.00  0.00    -0.034 A 
ATOM      8  C   UNL     1      -5.204   3.562 -24.806  0.00  0.00    +0.094 C 
ATOM      9  C   UNL     1      -4.307   3.595 -25.676  0.00  0.00    +0.096 C 
ATOM     10  C   UNL     1      -3.097   3.481 -25.325  0.00  0.00    -0.007 C 
ATOM     11  C   UNL     1      -2.186   3.513 -26.202  0.00  0.00    +0.009 C 
ATOM     12  C   UNL     1      -0.984   3.402 -25.871  0.00  0.00    +0.045 C 
ATOM     13  N   UNL     1      -3.359   3.643 -26.736  0.00  0.00    +0.239 N 
ATOM     14  H   UNL     1      -3.662   3.762 -27.702  0.00  0.00    +0.204 HD
ATOM     15  C   UNL     1      -3.718   3.789 -27.926  0.00  0.00    +0.191 C 
ATOM     16  C   UNL     1      -1.997   3.520 -26.388  0.00  0.00    +0.133 C 
ATOM     17  C   UNL     1      -1.692   3.360 -25.019  0.00  0.00    +0.071 C 
ATOM     18  C   UNL     1      -3.695   3.306 -23.252  0.00  0.00    +0.016 A 
ATOM     19  C   UNL     1      -0.670   3.257 -24.658  0.00  0.00    +0.144 C 
ATOM     20  C   UNL     1      -2.793   3.338 -24.119  0.00  0.00    +0.080 C 
ENDROOT
BRANCH   4  21
ATOM     21  O   UNL     1      -3.999   2.985 -19.946  0.00  0.00    -0.491 OA
ATOM     22  C   UNL     1      -3.150   3.735 -19.416  0.00  0.00    +0.277 C 
ENDBRANCH   4  21
BRANCH  19  23
ATOM     23  O   UNL     1       0.673   3.157 -24.519  0.00  0.00    -0.495 OA
ATOM     24  C   UNL     1       1.412   2.941 -25.552  0.00  0.00    +0.276 C 
ENDBRANCH  19  23
BRANCH   1  25
ATOM     25  C   UNL     1      -0.417   3.079 -23.080  0.00  0.00    +0.167 C 
BRANCH  25  26
ATOM     26  O   UNL     1       0.246   4.087 -22.764  0.00  0.00    -0.387 OA
ATOM     27  H   UNL     1       0.309   4.143 -21.798  0.00  0.00    +0.210 HD
ENDBRANCH  25  26
BRANCH  25  28
ATOM     28  C   UNL     1       0.009   1.942 -22.733  0.00  0.00    +0.036 C 
BRANCH  28  29
ATOM     29  C   UNL     1       0.728   1.770 -21.710  0.00  0.00    +0.002 C 
BRANCH  29  31
ATOM     30  C   UNL     1       2.929   1.886 -21.851  0.00  0.00    +0.004 C 
ATOM     31  C   UNL     1       1.870   1.211 -21.857  0.00  0.00    -0.003 C 
ENDBRANCH  29  31
ENDBRANCH  28  29
ENDBRANCH  25  28
ENDBRANCH   1  25
TORSDOF 7
ENDMDL
