MODEL 1
REMARK VINA RESULT:    -9.845      0.000      0.000
REMARK INTER + INTRA:         -10.133
REMARK INTER:                 -10.133
REMARK INTRA:                   0.000
REMARK UNBOUND:                 0.000
REMARK  Name = ZINC000004521472
REMARK  5 active torsions:
REMARK  status: ('A' for Active; 'I' for Inactive)
REMARK    1  A    between atoms: C_1  and  C_2
REMARK    2  A    between atoms: C_11  and  C_12
REMARK    3  A    between atoms: C_11  and  O_13
REMARK    4  A    between atoms: C_14  and  C_15
REMARK    5  A    between atoms: C_14  and  C_16
REMARK                            x       y       z     vdW  Elec       q    Type
REMARK                         _______ _______ _______ _____ _____    ______ ____
ROOT
ATOM      1  C   UNL     1      -1.413   3.723 -25.518  0.00  0.00    +0.008 C 
ATOM      2  C   UNL     1      -2.596   3.766 -24.981  0.00  0.00    -0.010 C 
ATOM      3  C   UNL     1      -3.670   4.245 -25.537  0.00  0.00    +0.004 C 
ATOM      4  C   UNL     1      -4.651   4.113 -24.694  0.00  0.00    +0.007 C 
ATOM      5  C   UNL     1      -4.184   3.553 -23.617  0.00  0.00    +0.024 C 
ATOM      6  C   UNL     1      -4.913   3.281 -22.577  0.00  0.00    +0.066 C 
ATOM      7  C   UNL     1      -6.023   3.249 -21.901  0.00  0.00    +0.041 C 
ATOM      8  C   UNL     1      -4.553   2.728 -21.457  0.00  0.00    +0.035 C 
ATOM      9  C   UNL     1      -3.375   2.310 -21.101  0.00  0.00    +0.007 C 
ATOM     10  C   UNL     1      -2.265   2.342 -21.778  0.00  0.00    -0.001 C 
ATOM     11  C   UNL     1      -1.075   2.291 -22.298  0.00  0.00    -0.028 C 
ATOM     12  C   UNL     1      -0.110   2.433 -23.158  0.00  0.00    +0.011 C 
ATOM     13  C   UNL     1      -0.425   1.731 -21.321  0.00  0.00    +0.011 C 
ATOM     14  C   UNL     1      -2.060   2.800 -22.976  0.00  0.00    +0.002 C 
ATOM     15  C   UNL     1      -2.913   3.339 -23.796  0.00  0.00    +0.002 C 
ENDROOT
BRANCH   6  16
ATOM     16  O   UNL     1      -5.766   3.820 -23.396  0.00  0.00    -0.389 OA
ATOM     17  H   UNL     1      -5.437   4.686 -23.683  0.00  0.00    +0.210 HD
ENDBRANCH   6  16
TORSDOF 1
ENDMDL
