MODEL 1
REMARK VINA RESULT:    -7.887      0.000      0.000
REMARK INTER + INTRA:         -10.164
REMARK INTER:                  -9.528
REMARK INTRA:                  -0.636
REMARK UNBOUND:                -0.664
REMARK  Name = ZINC000014695373
REMARK  5 active torsions:
REMARK  status: ('A' for Active; 'I' for Inactive)
REMARK    1  A    between atoms: C_1  and  N_2
REMARK    2  A    between atoms: C_7  and  C_8
REMARK    3  A    between atoms: C_8  and  C_9
REMARK    4  A    between atoms: C_9  and  O_10
REMARK    5  A    between atoms: C_9  and  C_11
REMARK                            x       y       z     vdW  Elec       q    Type
REMARK                         _______ _______ _______ _____ _____    ______ ____
ROOT
ATOM      1  C   UNL     1      -1.028   3.662 -23.101  0.00  0.00    +0.090 C 
ENDROOT
BRANCH   1   9
ATOM      2  C   UNL     1       1.158   4.325 -24.341  0.00  0.00    +0.190 C 
ATOM      3  N   UNL     1       1.177   3.373 -23.456  0.00  0.00    +0.235 N 
ATOM      4  H   UNL     1       0.749   4.108 -24.022  0.00  0.00    +0.203 HD
ATOM      5  C   UNL     1       2.288   2.753 -23.191  0.00  0.00    +0.131 C 
ATOM      6  C   UNL     1       2.306   1.801 -22.306  0.00  0.00    +0.051 C 
ATOM      7  C   UNL     1       1.213   1.469 -21.686  0.00  0.00    +0.011 C 
ATOM      8  C   UNL     1       0.102   2.089 -21.951  0.00  0.00    +0.055 C 
ATOM      9  C   UNL     1       0.084   3.041 -22.836  0.00  0.00    +0.067 C 
ENDBRANCH   1   9
BRANCH   1  10
ATOM     10  C   UNL     1      -2.010   3.023 -23.664  0.00  0.00    +0.150 C 
BRANCH  10  11
ATOM     11  C   UNL     1      -3.216   3.138 -23.191  0.00  0.00    -0.019 A 
ATOM     12  C   UNL     1      -4.154   3.661 -23.923  0.00  0.00    +0.006 A 
ATOM     13  C   UNL     1      -5.359   3.776 -23.451  0.00  0.00    +0.000 A 
ATOM     14  C   UNL     1      -5.627   3.367 -22.246  0.00  0.00    +0.000 A 
ATOM     15  C   UNL     1      -4.689   2.844 -21.514  0.00  0.00    +0.000 A 
ATOM     16  C   UNL     1      -3.484   2.729 -21.986  0.00  0.00    +0.006 A 
ENDBRANCH  10  11
BRANCH  10  17
ATOM     17  O   UNL     1      -1.788   2.269 -24.699  0.00  0.00    -0.387 OA
ATOM     18  H   UNL     1      -1.189   1.548 -24.452  0.00  0.00    +0.210 HD
ENDBRANCH  10  17
ENDBRANCH   1  10
TORSDOF 4
ENDMDL
