MODEL 1
REMARK VINA RESULT:    -8.056      0.000      0.000
REMARK INTER + INTRA:         -11.455
REMARK INTER:                 -10.628
REMARK INTRA:                  -0.828
REMARK UNBOUND:                -0.574
REMARK  Name = ZINC000001640064
REMARK  7 active torsions:
REMARK  status: ('A' for Active; 'I' for Inactive)
REMARK    1  A    between atoms: C_1  and  O_2
REMARK    2  A    between atoms: O_2  and  C_3
REMARK    3  A    between atoms: C_3  and  C_5
REMARK    4  A    between atoms: C_5  and  C_6
REMARK    5  A    between atoms: C_5  and  N_12
REMARK    6  A    between atoms: C_6  and  C_7
REMARK    7  A    between atoms: C_13  and  C_15
REMARK                            x       y       z     vdW  Elec       q    Type
REMARK                         _______ _______ _______ _____ _____    ______ ____
ROOT
ATOM      1  C   UNL     1       1.586   2.044 -22.617  0.00  0.00    +0.188 C 
ENDROOT
BRANCH   1   2
ATOM      2  N   UNL     1       0.475   2.454 -22.082  0.00  0.00    -0.298 N 
ATOM      3  H   UNL     1       0.479   2.849 -21.181  0.00  0.00    +0.150 HD
ATOM      4  C   UNL     1      -0.642   2.344 -22.738  0.00  0.00    +0.245 C 
ATOM      5  O   UNL     1      -0.648   1.823 -23.929  0.00  0.00    -0.270 OA
BRANCH   4   6
ATOM      6  C   UNL     1      -1.754   2.755 -22.204  0.00  0.00    +0.037 A 
ATOM      7  C   UNL     1      -1.806   3.030 -20.936  0.00  0.00    +0.013 A 
ATOM      8  C   UNL     1      -2.916   3.440 -20.401  0.00  0.00    +0.001 A 
ATOM      9  C   UNL     1      -3.981   3.576 -21.139  0.00  0.00    +0.000 A 
ATOM     10  C   UNL     1      -3.928   3.300 -22.407  0.00  0.00    +0.001 A 
ATOM     11  C   UNL     1      -2.818   2.890 -22.943  0.00  0.00    +0.013 A 
ENDBRANCH   4   6
ENDBRANCH   1   2
BRANCH   1  12
ATOM     12  C   UNL     1       2.142   0.945 -22.199  0.00  0.00    +0.328 C 
ATOM     13  O   UNL     1       2.243  -0.076 -22.997  0.00  0.00    -0.249 OA
BRANCH  12  15
ATOM     14  C   UNL     1       3.801   0.430 -20.767  0.00  0.00    +0.280 C 
ATOM     15  O   UNL     1       2.597   0.869 -20.984  0.00  0.00    -0.467 OA
ENDBRANCH  12  15
ENDBRANCH   1  12
BRANCH   1  16
ATOM     16  C   UNL     1       2.142   2.730 -23.571  0.00  0.00    +0.090 C 
BRANCH  16  17
ATOM     17  C   UNL     1       2.717   3.864 -23.305  0.00  0.00    +0.061 A 
ATOM     18  C   UNL     1       3.991   4.055 -23.137  0.00  0.00    +0.107 A 
ATOM     19  N   UNL     1       4.182   5.316 -22.889  0.00  0.00    -0.351 N 
ATOM     20  H   UNL     1       5.050   5.749 -22.720  0.00  0.00    +0.166 HD
ATOM     21  C   UNL     1       3.022   5.907 -22.904  0.00  0.00    +0.196 A 
ATOM     22  N   UNL     1       2.118   5.009 -23.161  0.00  0.00    -0.241 NA
ENDBRANCH  16  17
ENDBRANCH   1  16
TORSDOF 6
ENDMDL
