MODEL 1
REMARK VINA RESULT:    -9.013      0.000      0.000
REMARK INTER + INTRA:         -10.261
REMARK INTER:                 -10.066
REMARK INTRA:                  -0.194
REMARK UNBOUND:                -0.194
REMARK  Name = ZINC000005497791
REMARK  4 active torsions:
REMARK  status: ('A' for Active; 'I' for Inactive)
REMARK    1  A    between atoms: C_1  and  O_2
REMARK    2  A    between atoms: O_2  and  C_3
REMARK    3  A    between atoms: C_3  and  C_5
REMARK    4  A    between atoms: C_16  and  C_17
REMARK                            x       y       z     vdW  Elec       q    Type
REMARK                         _______ _______ _______ _____ _____    ______ ____
ROOT
ATOM      1  C   UNL     1       0.356   1.969 -22.108  0.00  0.00    +0.218 C 
ATOM      2  C   UNL     1      -0.869   1.992 -21.668  0.00  0.00    +0.076 C 
ATOM      3  C   UNL     1      -1.798   2.578 -22.358  0.00  0.00    -0.011 A 
ATOM      4  C   UNL     1      -1.509   3.144 -23.490  0.00  0.00    +0.064 A 
ATOM      5  C   UNL     1      -0.284   3.124 -23.934  0.00  0.00    +0.057 C 
ATOM      6  C   UNL     1       0.005   3.691 -25.067  0.00  0.00    +0.067 C 
ATOM      7  N   UNL     1      -2.602   3.655 -23.979  0.00  0.00    -0.353 N 
ATOM      8  H   UNL     1      -2.683   4.144 -24.829  0.00  0.00    +0.166 HD
ATOM      9  C   UNL     1      -3.567   3.402 -23.147  0.00  0.00    +0.047 A 
ATOM     10  C   UNL     1      -4.834   3.692 -23.171  0.00  0.00    +0.026 A 
ATOM     11  C   UNL     1      -5.606   3.318 -22.195  0.00  0.00    +0.002 A 
ATOM     12  C   UNL     1      -5.110   2.652 -21.193  0.00  0.00    +0.001 A 
ATOM     13  C   UNL     1      -3.843   2.362 -21.168  0.00  0.00    +0.010 A 
ATOM     14  C   UNL     1      -3.072   2.737 -22.145  0.00  0.00    +0.004 A 
ATOM     15  N   UNL     1       0.644   2.537 -23.242  0.00  0.00    -0.272 NA
ENDROOT
BRANCH   1  16
ATOM     16  C   UNL     1       1.286   1.382 -21.418  0.00  0.00    +0.332 C 
ATOM     17  O   UNL     1       1.236   1.392 -20.119  0.00  0.00    -0.248 OA
BRANCH  16  19
ATOM     18  C   UNL     1       3.419   0.660 -21.432  0.00  0.00    +0.280 C 
ATOM     19  O   UNL     1       2.268   0.785 -22.025  0.00  0.00    -0.466 OA
ENDBRANCH  16  19
ENDBRANCH   1  16
TORSDOF 2
ENDMDL
