MODEL 1
REMARK VINA RESULT:   -10.007      0.000      0.000
REMARK INTER + INTRA:         -11.463
REMARK INTER:                 -11.162
REMARK INTRA:                  -0.301
REMARK UNBOUND:                -0.286
REMARK  Name = COc1cc2c(cc1OC)[C@]13CCN[C@H](C2)[C@@H]1CCC(=O)C3                    ZINC000096316417
REMARK  4 active torsions:
REMARK  status: ('A' for Active; 'I' for Inactive)
REMARK    1  A    between atoms: C_1  and  O_2
REMARK    2  A    between atoms: O_2  and  C_3
REMARK    3  A    between atoms: C_8  and  O_9
REMARK    4  A    between atoms: O_9  and  C_10
REMARK                            x       y       z     vdW  Elec       q    Type
REMARK                         _______ _______ _______ _____ _____    ______ ____
ROOT
ATOM      1  C   UNL     1       0.589   2.119 -22.985  0.00  0.00    +0.162 A 
ATOM      2  C   UNL     1      -0.254   1.930 -22.060  0.00  0.00    +0.053 A 
ATOM      3  C   UNL     1      -1.634   2.382 -22.255  0.00  0.00    -0.035 A 
ATOM      4  C   UNL     1      -1.884   2.854 -23.165  0.00  0.00    -0.033 A 
ATOM      5  C   UNL     1      -2.703   3.214 -23.487  0.00  0.00    +0.015 C 
ATOM      6  C   UNL     1      -1.164   2.622 -23.074  0.00  0.00    +0.063 C 
ATOM      7  C   UNL     1      -0.946   1.968 -21.735  0.00  0.00    +0.130 C 
ATOM      8  N   UNL     1      -1.881   1.881 -20.986  0.00  0.00    +0.230 N 
ATOM      9  H   UNL     1      -2.039   0.875 -20.945  0.00  0.00    +0.202 HD
ATOM     10  H   UNL     1      -1.611   2.367 -20.130  0.00  0.00    +0.202 HD
ATOM     11  C   UNL     1      -3.305   2.434 -21.381  0.00  0.00    +0.071 C 
ATOM     12  C   UNL     1      -2.983   3.783 -24.599  0.00  0.00    +0.086 C 
ATOM     13  C   UNL     1      -4.197   4.205 -24.823  0.00  0.00    +0.134 C 
ATOM     14  O   UNL     1      -4.480   4.779 -25.945  0.00  0.00    -0.297 OA
ATOM     15  C   UNL     1      -5.146   4.047 -23.907  0.00  0.00    +0.075 C 
ATOM     16  C   UNL     1      -4.896   3.467 -22.754  0.00  0.00    +0.017 C 
ATOM     17  C   UNL     1      -3.720   3.043 -22.501  0.00  0.00    +0.049 C 
ATOM     18  C   UNL     1      -1.019   3.066 -24.155  0.00  0.00    +0.054 A 
ATOM     19  C   UNL     1      -2.398   2.185 -21.359  0.00  0.00    +0.090 C 
ATOM     20  C   UNL     1       0.213   2.692 -24.048  0.00  0.00    +0.162 A 
ENDROOT
BRANCH   1  22
ATOM     21  C   UNL     1       2.700   2.274 -22.098  0.00  0.00    +0.277 C 
ATOM     22  O   UNL     1       1.863   1.751 -22.915  0.00  0.00    -0.491 OA
ENDBRANCH   1  22
BRANCH  20  23
ATOM     23  O   UNL     1       1.039   2.905 -25.015  0.00  0.00    -0.491 OA
ATOM     24  C   UNL     1       1.153   4.100 -25.507  0.00  0.00    +0.277 C 
ENDBRANCH  20  23
TORSDOF 2
ENDMDL
