MODEL 1
REMARK VINA RESULT:    -9.318      0.000      0.000
REMARK INTER + INTRA:          -9.863
REMARK INTER:                  -9.863
REMARK INTRA:                   0.000
REMARK UNBOUND:                 0.000
REMARK  Name = ZINC000004104701
REMARK  4 active torsions:
REMARK  status: ('A' for Active; 'I' for Inactive)
REMARK    1  A    between atoms: C_1  and  C_2
REMARK    2  A    between atoms: C_5  and  O_6
REMARK    3  A    between atoms: C_14  and  C_15
REMARK    4  A    between atoms: C_14  and  C_16
REMARK                            x       y       z     vdW  Elec       q    Type
REMARK                         _______ _______ _______ _____ _____    ______ ____
ROOT
ATOM      1  C   UNL     1      -1.799   3.753 -25.441  0.00  0.00    +0.008 C 
ATOM      2  C   UNL     1      -2.927   3.767 -24.797  0.00  0.00    -0.007 C 
ATOM      3  C   UNL     1      -4.056   4.231 -25.243  0.00  0.00    +0.007 C 
ATOM      4  C   UNL     1      -4.953   4.071 -24.315  0.00  0.00    +0.043 C 
ATOM      5  C   UNL     1      -4.377   3.507 -23.296  0.00  0.00    +0.127 C 
ATOM      6  C   UNL     1      -5.003   3.208 -22.196  0.00  0.00    +0.165 C 
ATOM      7  C   UNL     1      -4.531   2.647 -21.122  0.00  0.00    +0.078 C 
ATOM      8  C   UNL     1      -3.318   2.247 -20.882  0.00  0.00    +0.012 C 
ATOM      9  C   UNL     1      -2.276   2.309 -21.658  0.00  0.00    -0.001 C 
ATOM     10  C   UNL     1      -2.190   2.785 -22.864  0.00  0.00    +0.005 C 
ATOM     11  C   UNL     1      -1.139   2.286 -22.287  0.00  0.00    -0.028 C 
ATOM     12  C   UNL     1      -0.391   1.726 -21.381  0.00  0.00    +0.011 C 
ATOM     13  C   UNL     1      -0.260   2.457 -23.229  0.00  0.00    +0.011 C 
ATOM     14  O   UNL     1      -6.267   3.509 -22.166  0.00  0.00    -0.294 OA
ATOM     15  C   UNL     1      -3.126   3.319 -23.593  0.00  0.00    +0.035 C 
ENDROOT
BRANCH   5  16
ATOM     16  O   UNL     1      -5.644   3.786 -23.211  0.00  0.00    -0.381 OA
ATOM     17  H   UNL     1      -5.772   4.742 -23.316  0.00  0.00    +0.211 HD
ENDBRANCH   5  16
TORSDOF 1
ENDMDL
