MODEL 1
REMARK VINA RESULT:   -11.906      0.000      0.000
REMARK INTER + INTRA:         -11.906
REMARK INTER:                 -11.906
REMARK INTRA:                   0.000
REMARK UNBOUND:                 0.000
REMARK  Name = ZINC000013434330
REMARK  1 active torsions:
REMARK  status: ('A' for Active; 'I' for Inactive)
REMARK    1  A    between atoms: C_1  and  N_2
REMARK                            x       y       z     vdW  Elec       q    Type
REMARK                         _______ _______ _______ _____ _____    ______ ____
ROOT
ATOM      1  C   UNL     1       0.061   1.489 -21.182  0.00  0.00    +0.441 C 
ATOM      2  N   UNL     1       0.526   1.907 -22.322  0.00  0.00    -0.176 N 
ATOM      3  C   UNL     1      -0.269   2.476 -23.180  0.00  0.00    +0.313 A 
ATOM      4  N   UNL     1       0.196   2.893 -24.320  0.00  0.00    -0.253 N 
ATOM      5  C   UNL     1      -0.600   3.462 -25.176  0.00  0.00    +0.136 C 
ATOM      6  C   UNL     1      -1.859   3.614 -24.893  0.00  0.00    +0.060 C 
ATOM      7  C   UNL     1      -2.324   3.196 -23.753  0.00  0.00    -0.005 A 
ATOM      8  C   UNL     1      -3.516   3.226 -23.236  0.00  0.00    +0.004 A 
ATOM      9  C   UNL     1      -4.648   3.683 -23.684  0.00  0.00    +0.010 A 
ATOM     10  C   UNL     1      -5.721   3.590 -22.957  0.00  0.00    +0.001 A 
ATOM     11  C   UNL     1      -5.664   3.039 -21.780  0.00  0.00    +0.002 A 
ATOM     12  C   UNL     1      -4.532   2.582 -21.332  0.00  0.00    +0.026 A 
ATOM     13  C   UNL     1      -3.459   2.676 -22.060  0.00  0.00    +0.047 A 
ATOM     14  N   UNL     1      -2.230   2.305 -21.850  0.00  0.00    -0.348 N 
ATOM     15  H   UNL     1      -1.891   1.860 -21.040  0.00  0.00    +0.166 HD
ATOM     16  C   UNL     1       1.455   2.741 -24.602  0.00  0.00    +0.270 A 
ATOM     17  C   UNL     1       2.250   2.173 -23.745  0.00  0.00    +0.111 A 
ATOM     18  C   UNL     1       3.510   2.021 -24.029  0.00  0.00    +0.020 A 
ATOM     19  C   UNL     1       4.304   1.452 -23.171  0.00  0.00    +0.001 A 
ATOM     20  C   UNL     1       3.840   1.035 -22.032  0.00  0.00    +0.006 A 
ATOM     21  C   UNL     1       2.580   1.187 -21.749  0.00  0.00    +0.079 A 
ATOM     22  O   UNL     1       1.920   3.159 -25.742  0.00  0.00    -0.267 OA
ATOM     23  C   UNL     1      -1.529   2.627 -22.896  0.00  0.00    +0.135 A 
ATOM     24  C   UNL     1       1.785   1.755 -22.605  0.00  0.00    +0.222 A 
ENDROOT
TORSDOF 0
ENDMDL
