MODEL 1
REMARK VINA RESULT:    -9.631      0.000      0.000
REMARK INTER + INTRA:         -10.631
REMARK INTER:                 -10.475
REMARK INTRA:                  -0.156
REMARK UNBOUND:                -0.155
REMARK  Name = ZINC000000898358
REMARK  3 active torsions:
REMARK  status: ('A' for Active; 'I' for Inactive)
REMARK    1  A    between atoms: C_1  and  O_2
REMARK    2  A    between atoms: O_2  and  C_3
REMARK    3  A    between atoms: C_8  and  O_9
REMARK                            x       y       z     vdW  Elec       q    Type
REMARK                         _______ _______ _______ _____ _____    ______ ____
ROOT
ATOM      1  C   UNL     1       0.848   2.204 -23.502  0.00  0.00    +0.162 A 
ATOM      2  C   UNL     1      -0.318   2.564 -23.950  0.00  0.00    +0.058 A 
ATOM      3  C   UNL     1      -1.344   2.579 -23.151  0.00  0.00    -0.007 A 
ATOM      4  C   UNL     1      -1.203   2.234 -21.905  0.00  0.00    -0.030 A 
ATOM      5  C   UNL     1      -2.229   2.249 -21.107  0.00  0.00    +0.095 C 
ATOM      6  C   UNL     1      -3.396   2.609 -21.554  0.00  0.00    +0.099 C 
ATOM      7  N   UNL     1      -4.422   2.624 -20.756  0.00  0.00    +0.233 N 
ATOM      8  H   UNL     1      -4.552   1.639 -20.524  0.00  0.00    +0.202 HD
ATOM      9  H   UNL     1      -4.191   3.259 -19.992  0.00  0.00    +0.202 HD
ATOM     10  C   UNL     1      -5.588   2.983 -21.203  0.00  0.00    +0.134 C 
ATOM     11  C   UNL     1      -5.729   3.328 -22.449  0.00  0.00    +0.086 C 
ATOM     12  C   UNL     1      -4.703   3.313 -23.247  0.00  0.00    -0.030 A 
ATOM     13  C   UNL     1      -4.844   3.657 -24.492  0.00  0.00    +0.054 A 
ATOM     14  C   UNL     1      -3.818   3.643 -25.291  0.00  0.00    +0.167 A 
ATOM     15  C   UNL     1      -2.651   3.283 -24.843  0.00  0.00    +0.174 A 
ATOM     16  O   UNL     1      -1.805   3.353 -25.828  0.00  0.00    -0.452 OA
ATOM     17  C   UNL     1      -2.448   3.756 -26.883  0.00  0.00    +0.466 C 
ATOM     18  O   UNL     1      -3.692   3.935 -26.552  0.00  0.00    -0.453 OA
ATOM     19  C   UNL     1      -3.537   2.953 -22.799  0.00  0.00    +0.015 A 
ATOM     20  C   UNL     1      -0.037   1.875 -21.458  0.00  0.00    +0.053 A 
ATOM     21  C   UNL     1      -2.510   2.939 -23.598  0.00  0.00    +0.037 A 
ATOM     22  C   UNL     1       0.989   1.860 -22.257  0.00  0.00    +0.159 A 
ENDROOT
BRANCH   1  24
ATOM     23  C   UNL     1       1.759   2.637 -25.516  0.00  0.00    +0.277 C 
ATOM     24  O   UNL     1       1.874   2.190 -24.300  0.00  0.00    -0.491 OA
ENDBRANCH   1  24
BRANCH  22  25
ATOM     25  O   UNL     1       2.155   1.500 -21.809  0.00  0.00    -0.503 OA
ATOM     26  H   UNL     1       2.721   2.135 -21.411  0.00  0.00    +0.292 HD
ENDBRANCH  22  25
TORSDOF 2
ENDMDL
