MODEL 1
REMARK VINA RESULT:    -7.175      0.000      0.000
REMARK INTER + INTRA:          -8.286
REMARK INTER:                  -7.989
REMARK INTRA:                  -0.297
REMARK UNBOUND:                -0.272
REMARK  Name = ZINC000000338366
REMARK  3 active torsions:
REMARK  status: ('A' for Active; 'I' for Inactive)
REMARK    1  A    between atoms: C_1  and  N_2
REMARK    2  A    between atoms: C_3  and  C_5
REMARK    3  A    between atoms: C_5  and  C_6
REMARK                            x       y       z     vdW  Elec       q    Type
REMARK                         _______ _______ _______ _____ _____    ______ ____
ROOT
ATOM      1  C   UNL     1      -1.833   3.700 -23.206  0.00  0.00    -0.014 A 
ATOM      2  C   UNL     1      -1.857   4.119 -24.435  0.00  0.00    +0.087 A 
ATOM      3  N   UNL     1      -3.101   4.219 -24.803  0.00  0.00    -0.360 N 
ATOM      4  H   UNL     1      -3.422   4.513 -25.685  0.00  0.00    +0.165 HD
ATOM      5  C   UNL     1      -3.845   3.860 -23.798  0.00  0.00    +0.047 A 
ATOM      6  C   UNL     1      -5.135   3.784 -23.655  0.00  0.00    +0.026 A 
ATOM      7  C   UNL     1      -5.641   3.388 -22.526  0.00  0.00    +0.002 A 
ATOM      8  C   UNL     1      -4.858   3.068 -21.539  0.00  0.00    +0.001 A 
ATOM      9  C   UNL     1      -3.568   3.144 -21.682  0.00  0.00    +0.010 A 
ATOM     10  C   UNL     1      -3.062   3.540 -22.812  0.00  0.00    +0.003 A 
ENDROOT
BRANCH   1  11
ATOM     11  C   UNL     1      -0.767   3.479 -22.495  0.00  0.00    +0.133 C 
BRANCH  11  15
ATOM     12  C   UNL     1       2.099   1.887 -23.534  0.00  0.00    +0.128 C 
ATOM     13  N   UNL     1       1.273   2.831 -23.191  0.00  0.00    -0.318 N 
ATOM     14  H   UNL     1       1.569   3.770 -23.200  0.00  0.00    +0.148 HD
ATOM     15  C   UNL     1       0.058   2.534 -22.837  0.00  0.00    +0.217 C 
ATOM     16  O   UNL     1      -0.332   1.295 -22.825  0.00  0.00    -0.275 OA
ENDBRANCH  11  15
ENDBRANCH   1  11
TORSDOF 2
ENDMDL
