MODEL 1
REMARK VINA RESULT:    -9.314      0.000      0.000
REMARK INTER + INTRA:          -9.858
REMARK INTER:                  -9.858
REMARK INTRA:                   0.000
REMARK UNBOUND:                 0.000
REMARK  Name = ZINC000004104703
REMARK  4 active torsions:
REMARK  status: ('A' for Active; 'I' for Inactive)
REMARK    1  A    between atoms: C_1  and  C_2
REMARK    2  A    between atoms: C_5  and  O_6
REMARK    3  A    between atoms: C_14  and  C_15
REMARK    4  A    between atoms: C_14  and  C_16
REMARK                            x       y       z     vdW  Elec       q    Type
REMARK                         _______ _______ _______ _____ _____    ______ ____
ROOT
ATOM      1  C   UNL     1      -1.796   3.751 -25.437  0.00  0.00    +0.008 C 
ATOM      2  C   UNL     1      -2.923   3.766 -24.792  0.00  0.00    -0.007 C 
ATOM      3  C   UNL     1      -4.051   4.235 -25.236  0.00  0.00    +0.007 C 
ATOM      4  C   UNL     1      -4.948   4.075 -24.307  0.00  0.00    +0.043 C 
ATOM      5  C   UNL     1      -4.373   3.506 -23.290  0.00  0.00    +0.127 C 
ATOM      6  C   UNL     1      -4.998   3.206 -22.190  0.00  0.00    +0.165 C 
ATOM      7  C   UNL     1      -4.526   2.641 -21.117  0.00  0.00    +0.078 C 
ATOM      8  C   UNL     1      -3.314   2.237 -20.880  0.00  0.00    +0.012 C 
ATOM      9  C   UNL     1      -2.273   2.298 -21.657  0.00  0.00    -0.001 C 
ATOM     10  C   UNL     1      -2.187   2.778 -22.862  0.00  0.00    +0.005 C 
ATOM     11  C   UNL     1      -1.136   2.274 -22.287  0.00  0.00    -0.028 C 
ATOM     12  C   UNL     1      -0.389   1.710 -21.384  0.00  0.00    +0.011 C 
ATOM     13  C   UNL     1      -0.259   2.445 -23.230  0.00  0.00    +0.011 C 
ATOM     14  O   UNL     1      -6.261   3.511 -22.158  0.00  0.00    -0.294 OA
ATOM     15  C   UNL     1      -3.122   3.315 -23.588  0.00  0.00    +0.035 C 
ENDROOT
BRANCH   5  16
ATOM     16  O   UNL     1      -5.639   3.789 -23.203  0.00  0.00    -0.381 OA
ATOM     17  H   UNL     1      -6.156   2.969 -23.229  0.00  0.00    +0.211 HD
ENDBRANCH   5  16
TORSDOF 1
ENDMDL
