MODEL 1
REMARK VINA RESULT:   -10.996      0.000      0.000
REMARK INTER + INTRA:         -10.996
REMARK INTER:                 -10.996
REMARK INTRA:                   0.000
REMARK UNBOUND:                 0.000
REMARK  Name = ZINC000001615142
REMARK  3 active torsions:
REMARK  status: ('A' for Active; 'I' for Inactive)
REMARK    1  A    between atoms: C_1  and  C_2
REMARK    2  A    between atoms: C_16  and  C_17
REMARK    3  A    between atoms: C_16  and  C_18
REMARK                            x       y       z     vdW  Elec       q    Type
REMARK                         _______ _______ _______ _____ _____    ______ ____
ROOT
ATOM      1  C   UNL     1       0.650   3.776 -25.405  0.00  0.00    +0.047 C 
ATOM      2  C   UNL     1      -0.070   3.374 -24.400  0.00  0.00    -0.007 A 
ATOM      3  C   UNL     1      -1.351   3.601 -24.386  0.00  0.00    +0.017 A 
ATOM      4  C   UNL     1      -2.071   3.200 -23.383  0.00  0.00    +0.008 A 
ATOM      5  C   UNL     1      -1.512   2.571 -22.391  0.00  0.00    +0.058 A 
ATOM      6  C   UNL     1      -0.232   2.344 -22.405  0.00  0.00    +0.041 A 
ATOM      7  C   UNL     1       0.328   1.715 -21.414  0.00  0.00    +0.013 C 
ATOM      8  C   UNL     1       1.608   1.488 -21.428  0.00  0.00    +0.020 C 
ATOM      9  C   UNL     1       2.328   1.890 -22.433  0.00  0.00    +0.124 C 
ATOM     10  C   UNL     1       3.368   2.098 -23.184  0.00  0.00    +0.060 C 
ATOM     11  C   UNL     1       3.249   1.334 -21.703  0.00  0.00    +0.060 C 
ATOM     12  O   UNL     1       1.769   2.518 -23.423  0.00  0.00    -0.481 OA
ATOM     13  N   UNL     1      -2.437   2.281 -21.525  0.00  0.00    -0.354 N 
ATOM     14  H   UNL     1      -2.305   1.805 -20.674  0.00  0.00    +0.166 HD
ATOM     15  C   UNL     1      -3.569   2.731 -21.981  0.00  0.00    +0.047 A 
ATOM     16  C   UNL     1      -4.776   2.697 -21.500  0.00  0.00    +0.026 A 
ATOM     17  C   UNL     1      -5.757   3.230 -22.166  0.00  0.00    +0.002 A 
ATOM     18  C   UNL     1      -5.530   3.798 -23.313  0.00  0.00    +0.001 A 
ATOM     19  C   UNL     1      -4.323   3.832 -23.795  0.00  0.00    +0.010 A 
ATOM     20  C   UNL     1      -3.343   3.299 -23.129  0.00  0.00    +0.007 A 
ATOM     21  C   UNL     1       0.489   2.746 -23.410  0.00  0.00    +0.134 A 
ENDROOT
TORSDOF 0
ENDMDL
