MODEL 1
REMARK VINA RESULT:    -7.547      0.000      0.000
REMARK INTER + INTRA:         -11.445
REMARK INTER:                 -10.666
REMARK INTRA:                  -0.778
REMARK UNBOUND:                -0.809
REMARK  Name = ZINC000000347587
REMARK  9 active torsions:
REMARK  status: ('A' for Active; 'I' for Inactive)
REMARK    1  A    between atoms: C_1  and  O_2
REMARK    2  A    between atoms: O_2  and  C_3
REMARK    3  A    between atoms: C_3  and  C_5
REMARK    4  A    between atoms: C_5  and  C_6
REMARK    5  A    between atoms: C_6  and  C_7
REMARK    6  A    between atoms: N_9  and  C_10
REMARK    7  A    between atoms: C_15  and  C_16
REMARK    8  A    between atoms: C_16  and  O_18
REMARK    9  A    between atoms: O_18  and  C_19
REMARK                            x       y       z     vdW  Elec       q    Type
REMARK                         _______ _______ _______ _____ _____    ______ ____
ROOT
ATOM      1  C   UNL     1      -1.198   3.913 -23.379  0.00  0.00    +0.218 C 
ATOM      2  N   UNL     1      -2.112   3.051 -23.714  0.00  0.00    -0.285 N 
ATOM      3  H   UNL     1      -1.910   2.352 -24.377  0.00  0.00    +0.155 HD
ATOM      4  O   UNL     1      -1.466   4.835 -22.503  0.00  0.00    -0.275 OA
ENDROOT
BRANCH   2   5
ATOM      5  C   UNL     1      -3.293   3.112 -23.174  0.00  0.00    +0.047 A 
ATOM      6  C   UNL     1      -3.471   2.705 -21.952  0.00  0.00    +0.024 A 
ATOM      7  C   UNL     1      -4.652   2.766 -21.412  0.00  0.00    +0.002 A 
ATOM      8  C   UNL     1      -5.655   3.234 -22.093  0.00  0.00    +0.001 A 
ATOM      9  C   UNL     1      -5.477   3.641 -23.316  0.00  0.00    +0.017 A 
ATOM     10  C   UNL     1      -4.296   3.580 -23.856  0.00  0.00    +0.080 A 
BRANCH  10  11
ATOM     11  C   UNL     1      -4.118   3.987 -25.078  0.00  0.00    +0.341 C 
ATOM     12  O   UNL     1      -4.045   5.259 -25.335  0.00  0.00    -0.245 OA
BRANCH  11  13
ATOM     13  O   UNL     1      -4.013   3.121 -26.042  0.00  0.00    -0.464 OA
ATOM     14  C   UNL     1      -3.294   3.399 -27.088  0.00  0.00    +0.280 C 
ENDBRANCH  11  13
ENDBRANCH  10  11
ENDBRANCH   2   5
BRANCH   1  15
ATOM     15  C   UNL     1      -0.017   3.852 -23.919  0.00  0.00    +0.107 C 
BRANCH  15  16
ATOM     16  C   UNL     1       0.970   3.318 -23.263  0.00  0.00    +0.130 C 
BRANCH  16  17
ATOM     17  C   UNL     1       1.145   2.030 -23.288  0.00  0.00    +0.307 C 
ATOM     18  O   UNL     1       2.056   1.512 -24.056  0.00  0.00    -0.251 OA
BRANCH  17  20
ATOM     19  C   UNL     1       0.341   1.463 -21.262  0.00  0.00    +0.280 C 
ATOM     20  O   UNL     1       0.407   1.259 -22.544  0.00  0.00    -0.468 OA
ENDBRANCH  17  20
ENDBRANCH  16  17
ENDBRANCH  15  16
ENDBRANCH   1  15
TORSDOF 7
ENDMDL
