MODEL 1
REMARK VINA RESULT:    -8.529      0.000      0.000
REMARK INTER + INTRA:         -11.565
REMARK INTER:                 -11.183
REMARK INTRA:                  -0.382
REMARK UNBOUND:                -0.543
REMARK  Name = ZINC000008382457
REMARK  5 active torsions:
REMARK  status: ('A' for Active; 'I' for Inactive)
REMARK    1  A    between atoms: C_11  and  O_12
REMARK    2  A    between atoms: O_12  and  C_13
REMARK    3  A    between atoms: C_13  and  C_14
REMARK    4  A    between atoms: N_23  and  C_24
REMARK    5  A    between atoms: C_24  and  C_25
REMARK                            x       y       z     vdW  Elec       q    Type
REMARK                         _______ _______ _______ _____ _____    ______ ____
ROOT
ATOM      1  O   UNL     1       7.312   5.061 -22.041  0.00  0.00    -0.270 OA
ATOM      2  C   UNL     1       6.062   5.308 -22.297  0.00  0.00    +0.248 C 
ATOM      3  C   UNL     1       5.579   6.498 -22.093  0.00  0.00    +0.044 A 
ATOM      4  C   UNL     1       6.348   7.440 -21.631  0.00  0.00    +0.063 A 
ATOM      5  C   UNL     1       5.866   8.629 -21.426  0.00  0.00    +0.167 A 
ATOM      6  C   UNL     1       4.615   8.877 -21.683  0.00  0.00    +0.167 A 
ATOM      7  O   UNL     1       4.386  10.124 -21.396  0.00  0.00    -0.453 OA
ATOM      8  C   UNL     1       5.495  10.648 -20.962  0.00  0.00    +0.466 C 
ATOM      9  C   UNL     1       3.848   7.936 -22.143  0.00  0.00    +0.054 A 
ATOM     10  O   UNL     1       6.410   9.724 -20.981  0.00  0.00    -0.453 OA
ATOM     11  C   UNL     1       4.329   6.746 -22.349  0.00  0.00    -0.027 A 
ATOM     12  C   UNL     1       3.562   5.803 -22.810  0.00  0.00    +0.043 C 
ATOM     13  C   UNL     1       2.311   6.052 -23.066  0.00  0.00    +0.041 C 
ATOM     14  C   UNL     1       1.544   5.110 -23.527  0.00  0.00    +0.119 C 
ATOM     15  C   UNL     1       2.025   3.920 -23.733  0.00  0.00    +0.033 C 
ATOM     16  C   UNL     1       3.276   3.672 -23.476  0.00  0.00    +0.025 C 
ATOM     17  C   UNL     1       4.043   4.614 -23.015  0.00  0.00    +0.084 C 
ATOM     18  N   UNL     1       5.294   4.367 -22.759  0.00  0.00    -0.290 N 
ENDROOT
BRANCH  14  19
ATOM     19  O   UNL     1       0.293   5.357 -23.784  0.00  0.00    -0.372 OA
BRANCH  19  20
ATOM     20  C   UNL     1      -0.589   5.305 -22.830  0.00  0.00    +0.195 C 
BRANCH  20  21
ATOM     21  C   UNL     1      -1.655   4.574 -22.970  0.00  0.00    -0.022 A 
ATOM     22  C   UNL     1      -2.258   4.519 -24.120  0.00  0.00    +0.006 A 
ATOM     23  C   UNL     1      -3.325   3.788 -24.260  0.00  0.00    +0.000 A 
ATOM     24  C   UNL     1      -3.787   3.113 -23.249  0.00  0.00    +0.000 A 
ATOM     25  C   UNL     1      -3.184   3.169 -22.099  0.00  0.00    +0.000 A 
ATOM     26  C   UNL     1      -2.117   3.900 -21.959  0.00  0.00    +0.006 A 
ENDBRANCH  20  21
ENDBRANCH  19  20
ENDBRANCH  14  19
BRANCH  18  27
ATOM     27  C   UNL     1       5.776   3.177 -22.964  0.00  0.00    +0.143 C 
BRANCH  27  28
ATOM     28  C   UNL     1       5.429   2.192 -22.191  0.00  0.00    -0.030 A 
ATOM     29  C   UNL     1       4.837   1.150 -22.694  0.00  0.00    +0.005 A 
ATOM     30  C   UNL     1       4.489   0.163 -21.921  0.00  0.00    +0.000 A 
ATOM     31  C   UNL     1       4.733   0.220 -20.646  0.00  0.00    +0.000 A 
ATOM     32  C   UNL     1       5.325   1.262 -20.142  0.00  0.00    +0.000 A 
ATOM     33  C   UNL     1       5.673   2.248 -20.916  0.00  0.00    +0.005 A 
ENDBRANCH  27  28
ENDBRANCH  18  27
TORSDOF 5
ENDMDL
