MODEL 1
REMARK VINA RESULT:    -8.324      0.000      0.000
REMARK INTER + INTRA:         -11.478
REMARK INTER:                 -12.856
REMARK INTRA:                   1.378
REMARK UNBOUND:                 1.226
REMARK  Name = ZINC000000689870
REMARK  15 active torsions:
REMARK  status: ('A' for Active; 'I' for Inactive)
REMARK    1  A    between atoms: C_1  and  C_2
REMARK    2  A    between atoms: C_2  and  N_3
REMARK    3  A    between atoms: N_3  and  C_4
REMARK    4  A    between atoms: N_3  and  C_6
REMARK    5  A    between atoms: C_4  and  C_5
REMARK    6  A    between atoms: C_6  and  C_7
REMARK    7  A    between atoms: C_7  and  N_8
REMARK    8  A    between atoms: C_11  and  C_12
REMARK    9  A    between atoms: C_12  and  C_13
REMARK   10  A    between atoms: C_15  and  O_16
REMARK   11  A    between atoms: O_16  and  C_17
REMARK   12  A    between atoms: C_18  and  O_19
REMARK   13  A    between atoms: O_19  and  C_20
REMARK   14  A    between atoms: C_21  and  O_22
REMARK   15  A    between atoms: O_22  and  C_23
REMARK                            x       y       z     vdW  Elec       q    Type
REMARK                         _______ _______ _______ _____ _____    ______ ____
ROOT
ATOM      1  N   UNL     1       3.246   4.124 -23.126  0.00  0.00    -0.300 N 
ATOM      2  C   UNL     1       2.159   4.797 -23.362  0.00  0.00    +0.274 A 
ATOM      3  C   UNL     1       1.001   4.211 -23.276  0.00  0.00    +0.111 A 
ATOM      4  N   UNL     1       0.931   2.954 -22.955  0.00  0.00    -0.244 NA
ATOM      5  C   UNL     1       2.018   2.281 -22.719  0.00  0.00    +0.088 A 
ATOM      6  C   UNL     1       1.948   1.024 -22.398  0.00  0.00    +0.030 A 
ATOM      7  C   UNL     1       3.036   0.351 -22.163  0.00  0.00    +0.002 A 
ATOM      8  C   UNL     1       4.193   0.937 -22.248  0.00  0.00    +0.002 A 
ATOM      9  C   UNL     1       4.263   2.194 -22.569  0.00  0.00    +0.028 A 
ATOM     10  O   UNL     1       2.229   6.055 -23.683  0.00  0.00    -0.266 OA
ATOM     11  C   UNL     1       3.176   2.867 -22.805  0.00  0.00    +0.071 A 
ENDROOT
BRANCH   1  12
ATOM     12  C   UNL     1       4.404   4.709 -23.212  0.00  0.00    +0.176 C 
BRANCH  12  13
ATOM     13  C   UNL     1       4.795   5.517 -22.271  0.00  0.00    +0.153 C 
BRANCH  13  14
ATOM     14  N   UNL     1       6.063   5.753 -22.102  0.00  0.00    +0.236 N 
ATOM     15  H   UNL     1       6.901   6.316 -21.963  0.00  0.00    +0.203 HD
BRANCH  14  16
ATOM     16  C   UNL     1       6.908   4.766 -22.065  0.00  0.00    +0.128 C 
ATOM     17  C   UNL     1       7.015   4.041 -20.992  0.00  0.00    +0.060 C 
ENDBRANCH  14  16
BRANCH  14  19
ATOM     18  C   UNL     1       6.111   7.685 -20.947  0.00  0.00    +0.060 C 
ATOM     19  C   UNL     1       6.485   6.975 -21.970  0.00  0.00    +0.128 C 
ENDBRANCH  14  19
ENDBRANCH  13  14
ENDBRANCH  12  13
ENDBRANCH   1  12
BRANCH   3  20
ATOM     20  C   UNL     1      -0.086   4.884 -23.512  0.00  0.00    +0.096 C 
BRANCH  20  21
ATOM     21  C   UNL     1      -1.247   4.339 -23.296  0.00  0.00    -0.034 A 
ATOM     22  C   UNL     1      -2.093   4.204 -24.272  0.00  0.00    +0.053 A 
ATOM     23  C   UNL     1      -3.254   3.659 -24.056  0.00  0.00    +0.165 A 
ATOM     24  C   UNL     1      -3.567   3.249 -22.863  0.00  0.00    +0.204 A 
ATOM     25  C   UNL     1      -2.721   3.384 -21.886  0.00  0.00    +0.165 A 
ATOM     26  C   UNL     1      -1.560   3.930 -22.102  0.00  0.00    +0.053 A 
BRANCH  25  27
ATOM     27  O   UNL     1      -3.034   2.975 -20.693  0.00  0.00    -0.491 OA
ATOM     28  C   UNL     1      -3.152   3.832 -19.722  0.00  0.00    +0.277 C 
ENDBRANCH  25  27
BRANCH  23  29
ATOM     29  O   UNL     1      -4.101   3.524 -25.033  0.00  0.00    -0.491 OA
ATOM     30  C   UNL     1      -3.671   3.339 -26.246  0.00  0.00    +0.277 C 
ENDBRANCH  23  29
BRANCH  24  31
ATOM     31  O   UNL     1      -4.728   2.705 -22.647  0.00  0.00    -0.488 OA
ATOM     32  C   UNL     1      -5.748   3.448 -22.337  0.00  0.00    +0.277 C 
ENDBRANCH  24  31
ENDBRANCH  20  21
ENDBRANCH   3  20
TORSDOF 10
ENDMDL
