MODEL 1
REMARK VINA RESULT:   -10.119      0.000      0.000
REMARK INTER + INTRA:         -10.119
REMARK INTER:                 -10.119
REMARK INTRA:                   0.000
REMARK UNBOUND:                 0.000
REMARK  Name = ZINC000000525655
REMARK  1 active torsions:
REMARK  status: ('A' for Active; 'I' for Inactive)
REMARK    1  A    between atoms: C_8  and  C_9
REMARK                            x       y       z     vdW  Elec       q    Type
REMARK                         _______ _______ _______ _____ _____    ______ ____
ROOT
ATOM      1  C   UNL     1       0.468   1.508 -21.166  0.00  0.00    +0.020 C 
ATOM      2  C   UNL     1       0.097   2.051 -22.286  0.00  0.00    +0.036 C 
ATOM      3  C   UNL     1       0.862   2.299 -23.307  0.00  0.00    +0.335 C 
ATOM      4  O   UNL     1       0.132   2.843 -24.234  0.00  0.00    -0.457 OA
ATOM      5  C   UNL     1      -1.085   2.932 -23.786  0.00  0.00    +0.185 C 
ATOM      6  C   UNL     1      -2.176   3.395 -24.320  0.00  0.00    +0.052 C 
ATOM      7  C   UNL     1      -3.290   3.370 -23.650  0.00  0.00    -0.022 C 
ATOM      8  C   UNL     1      -4.381   3.833 -24.183  0.00  0.00    +0.007 C 
ATOM      9  C   UNL     1      -5.494   3.807 -23.512  0.00  0.00    +0.005 C 
ATOM     10  C   UNL     1      -5.516   3.317 -22.308  0.00  0.00    +0.030 C 
ATOM     11  C   UNL     1      -4.425   2.853 -21.774  0.00  0.00    -0.073 C 
ATOM     12  C   UNL     1      -4.447   2.364 -20.570  0.00  0.00    +0.008 C 
ATOM     13  C   UNL     1      -3.268   3.859 -24.854  0.00  0.00    +0.012 C 
ATOM     14  C   UNL     1      -3.311   2.880 -22.445  0.00  0.00    +0.021 C 
ATOM     15  C   UNL     1      -2.220   2.416 -21.912  0.00  0.00    +0.020 C 
ATOM     16  O   UNL     1       2.135   2.046 -23.386  0.00  0.00    -0.245 OA
ATOM     17  C   UNL     1      -1.107   2.442 -22.582  0.00  0.00    +0.067 C 
ENDROOT
TORSDOF 0
ENDMDL
