MODEL 1
REMARK VINA RESULT:    -7.953      0.000      0.000
REMARK INTER + INTRA:         -15.630
REMARK INTER:                 -15.780
REMARK INTRA:                   0.150
REMARK UNBOUND:                -0.239
REMARK  Name = CCCCCCCCCCCC1=C(O)/C(=N\CCO)C=C(O)/C1=N/CCO                          ZINC000100393423
REMARK  19 active torsions:
REMARK  status: ('A' for Active; 'I' for Inactive)
REMARK    1  A    between atoms: C_1  and  C_2
REMARK    2  A    between atoms: C_2  and  C_3
REMARK    3  A    between atoms: C_3  and  C_4
REMARK    4  A    between atoms: C_4  and  C_5
REMARK    5  A    between atoms: C_5  and  C_6
REMARK    6  A    between atoms: C_6  and  C_7
REMARK    7  A    between atoms: C_7  and  C_8
REMARK    8  A    between atoms: C_8  and  C_9
REMARK    9  A    between atoms: C_9  and  C_10
REMARK   10  A    between atoms: C_10  and  C_11
REMARK   11  A    between atoms: C_11  and  C_12
REMARK   12  A    between atoms: C_13  and  O_14
REMARK   13  A    between atoms: N_16  and  C_17
REMARK   14  A    between atoms: C_17  and  C_18
REMARK   15  A    between atoms: C_18  and  O_19
REMARK   16  A    between atoms: C_21  and  O_22
REMARK   17  A    between atoms: N_24  and  C_25
REMARK   18  A    between atoms: C_25  and  C_26
REMARK   19  A    between atoms: C_26  and  O_27
REMARK                            x       y       z     vdW  Elec       q    Type
REMARK                         _______ _______ _______ _____ _____    ______ ____
ROOT
ATOM      1  C   UNL     1       0.935   2.318 -22.900  0.00  0.00    +0.025 C 
ATOM      2  C   UNL     1       1.921   1.686 -22.335  0.00  0.00    +0.147 C 
ATOM      3  C   UNL     1       2.922   1.269 -23.051  0.00  0.00    +0.104 C 
ATOM      4  C   UNL     1       2.937   1.483 -24.333  0.00  0.00    +0.078 C 
ATOM      5  C   UNL     1       1.952   2.115 -24.898  0.00  0.00    +0.144 C 
ATOM      6  N   UNL     1       3.907   0.637 -22.485  0.00  0.00    -0.278 NA
ATOM      7  C   UNL     1       0.951   2.532 -24.182  0.00  0.00    +0.107 C 
ATOM      8  N   UNL     1      -0.035   3.164 -24.747  0.00  0.00    -0.278 NA
ENDROOT
BRANCH   2   9
ATOM      9  O   UNL     1       1.905   1.471 -21.053  0.00  0.00    -0.504 OA
ATOM     10  H   UNL     1       2.278   0.685 -20.705  0.00  0.00    +0.292 HD
ENDBRANCH   2   9
BRANCH   5  11
ATOM     11  O   UNL     1       1.968   2.330 -26.181  0.00  0.00    -0.505 OA
ATOM     12  H   UNL     1       2.514   3.003 -26.537  0.00  0.00    +0.292 HD
ENDBRANCH   5  11
BRANCH   6  13
ATOM     13  C   UNL     1       3.892   0.422 -21.204  0.00  0.00    +0.170 C 
BRANCH  13  14
ATOM     14  C   UNL     1       4.995   0.134 -20.579  0.00  0.00    +0.179 C 
BRANCH  14  15
ATOM     15  O   UNL     1       5.569   1.027 -19.829  0.00  0.00    -0.393 OA
ATOM     16  H   UNL     1       4.893   1.528 -19.346  0.00  0.00    +0.209 HD
ENDBRANCH  14  15
ENDBRANCH  13  14
ENDBRANCH   6  13
BRANCH   8  17
ATOM     17  C   UNL     1      -1.036   3.581 -24.031  0.00  0.00    +0.170 C 
BRANCH  17  18
ATOM     18  C   UNL     1      -1.305   4.851 -23.969  0.00  0.00    +0.179 C 
BRANCH  18  19
ATOM     19  O   UNL     1      -0.391   5.692 -23.582  0.00  0.00    -0.393 OA
ATOM     20  H   UNL     1      -0.565   6.561 -23.975  0.00  0.00    +0.209 HD
ENDBRANCH  18  19
ENDBRANCH  17  18
ENDBRANCH   8  17
BRANCH   1  21
ATOM     21  C   UNL     1      -0.066   2.735 -22.183  0.00  0.00    +0.041 C 
BRANCH  21  22
ATOM     22  C   UNL     1      -0.686   1.912 -21.390  0.00  0.00    +0.005 C 
BRANCH  22  23
ATOM     23  C   UNL     1      -1.959   2.053 -21.174  0.00  0.00    +0.000 C 
BRANCH  23  24
ATOM     24  C   UNL     1      -2.419   3.174 -20.705  0.00  0.00    +0.000 C 
BRANCH  24  25
ATOM     25  C   UNL     1      -3.689   3.304 -20.459  0.00  0.00    +0.000 C 
BRANCH  25  26
ATOM     26  C   UNL     1      -4.561   2.681 -21.196  0.00  0.00    +0.000 C 
BRANCH  26  27
ATOM     27  C   UNL     1      -5.238   3.334 -22.092  0.00  0.00    -0.000 C 
BRANCH  27  28
ATOM     28  C   UNL     1      -4.646   3.770 -23.165  0.00  0.00    -0.000 C 
BRANCH  28  29
ATOM     29  C   UNL     1      -5.285   3.792 -24.297  0.00  0.00    -0.000 C 
BRANCH  29  31
ATOM     30  C   UNL     1      -4.155   3.138 -26.132  0.00  0.00    +0.004 C 
ATOM     31  C   UNL     1      -4.653   4.086 -25.394  0.00  0.00    -0.003 C 
ENDBRANCH  29  31
ENDBRANCH  28  29
ENDBRANCH  27  28
ENDBRANCH  26  27
ENDBRANCH  25  26
ENDBRANCH  24  25
ENDBRANCH  23  24
ENDBRANCH  22  23
ENDBRANCH  21  22
ENDBRANCH   1  21
TORSDOF 18
ENDMDL
