MODEL 1
REMARK VINA RESULT:    -8.288      0.000      0.000
REMARK INTER + INTRA:         -10.174
REMARK INTER:                  -9.567
REMARK INTRA:                  -0.607
REMARK UNBOUND:                -0.433
REMARK  Name = ZINC000000388776
REMARK  5 active torsions:
REMARK  status: ('A' for Active; 'I' for Inactive)
REMARK    1  A    between atoms: C_1  and  C_2
REMARK    2  A    between atoms: C_2  and  C_3
REMARK    3  A    between atoms: C_4  and  C_5
REMARK    4  A    between atoms: C_5  and  O_6
REMARK    5  A    between atoms: O_6  and  C_7
REMARK                            x       y       z     vdW  Elec       q    Type
REMARK                         _______ _______ _______ _____ _____    ______ ____
ROOT
ATOM      1  C   UNL     1      -0.268   2.126 -23.044  0.00  0.00    +0.124 A 
ATOM      2  C   UNL     1      -0.255   1.994 -21.750  0.00  0.00    +0.046 A 
ATOM      3  C   UNL     1      -1.330   2.240 -21.062  0.00  0.00    +0.015 A 
ATOM      4  C   UNL     1      -2.417   2.617 -21.666  0.00  0.00    +0.018 A 
ATOM      5  C   UNL     1      -3.492   2.863 -20.978  0.00  0.00    +0.018 A 
ATOM      6  C   UNL     1      -4.579   3.240 -21.583  0.00  0.00    +0.092 A 
ATOM      7  C   UNL     1      -4.592   3.371 -22.876  0.00  0.00    +0.337 A 
ATOM      8  O   UNL     1      -3.516   3.125 -23.565  0.00  0.00    -0.422 OA
ATOM      9  O   UNL     1      -5.679   3.748 -23.481  0.00  0.00    -0.245 OA
ATOM     10  C   UNL     1      -2.429   2.748 -22.960  0.00  0.00    +0.143 A 
ATOM     11  C   UNL     1      -1.355   2.502 -23.648  0.00  0.00    +0.092 A 
ENDROOT
BRANCH   1  12
ATOM     12  O   UNL     1       0.808   1.880 -23.732  0.00  0.00    -0.488 OA
BRANCH  12  13
ATOM     13  C   UNL     1       1.447   2.852 -24.311  0.00  0.00    +0.256 C 
BRANCH  13  16
ATOM     14  C   UNL     1       4.268   4.456 -23.172  0.00  0.00    +0.038 C 
ATOM     15  C   UNL     1       3.026   4.223 -23.475  0.00  0.00    -0.076 C 
ATOM     16  C   UNL     1       2.689   3.085 -24.008  0.00  0.00    +0.012 C 
ATOM     17  C   UNL     1       2.120   5.127 -23.246  0.00  0.00    +0.038 C 
ENDBRANCH  13  16
ENDBRANCH  12  13
ENDBRANCH   1  12
TORSDOF 3
ENDMDL
