MODEL 1
REMARK VINA RESULT:    -9.792      0.000      0.000
REMARK INTER + INTRA:         -11.580
REMARK INTER:                 -11.553
REMARK INTRA:                  -0.027
REMARK UNBOUND:                 0.216
REMARK  Name = ZINC000003881680
REMARK  4 active torsions:
REMARK  status: ('A' for Active; 'I' for Inactive)
REMARK    1  A    between atoms: C_2  and  C_3
REMARK    2  A    between atoms: C_10  and  C_11
REMARK    3  A    between atoms: C_11  and  O_12
REMARK    4  A    between atoms: C_11  and  C_13
REMARK                            x       y       z     vdW  Elec       q    Type
REMARK                         _______ _______ _______ _____ _____    ______ ____
ROOT
ATOM      1  C   UNL     1       0.385   3.135 -24.349  0.00  0.00    +0.193 C 
ENDROOT
BRANCH   1   2
ATOM      2  C   UNL     1       1.472   3.666 -23.803  0.00  0.00    -0.003 A 
ATOM      3  C   UNL     1       1.559   4.979 -23.641  0.00  0.00    +0.026 A 
ATOM      4  C   UNL     1       2.646   5.510 -23.094  0.00  0.00    +0.112 A 
ATOM      5  N   UNL     1       3.645   4.726 -22.711  0.00  0.00    -0.255 NA
ATOM      6  C   UNL     1       3.558   3.412 -22.873  0.00  0.00    +0.071 A 
ATOM      7  C   UNL     1       4.557   2.629 -22.490  0.00  0.00    +0.028 A 
ATOM      8  C   UNL     1       4.470   1.315 -22.652  0.00  0.00    +0.002 A 
ATOM      9  C   UNL     1       3.384   0.785 -23.198  0.00  0.00    +0.001 A 
ATOM     10  C   UNL     1       2.384   1.568 -23.582  0.00  0.00    +0.010 A 
ATOM     11  C   UNL     1       2.471   2.882 -23.419  0.00  0.00    +0.006 A 
ENDBRANCH   1   2
BRANCH   1  18
ATOM     12  C   UNL     1      -3.022   2.957 -22.256  0.00  0.00    +0.060 C 
ATOM     13  C   UNL     1      -1.936   2.288 -21.833  0.00  0.00    +0.139 C 
ATOM     14  N   UNL     1      -0.800   2.354 -22.541  0.00  0.00    +0.240 N 
ATOM     15  H   UNL     1       0.124   1.940 -22.415  0.00  0.00    +0.204 HD
ATOM     16  C   UNL     1      -1.834   2.672 -22.465  0.00  0.00    +0.132 C 
ATOM     17  C   UNL     1      -2.006   3.342 -23.379  0.00  0.00    +0.055 C 
ATOM     18  C   UNL     1      -0.743   3.074 -23.653  0.00  0.00    +0.098 C 
ATOM     19  C   UNL     1      -1.828   3.743 -24.076  0.00  0.00    +0.062 C 
ATOM     20  C   UNL     1      -2.956   3.683 -23.381  0.00  0.00    +0.011 C 
BRANCH  12  22
ATOM     21  C   UNL     1      -5.304   3.287 -22.114  0.00  0.00    +0.004 C 
ATOM     22  C   UNL     1      -4.164   2.899 -21.557  0.00  0.00    -0.026 C 
ENDBRANCH  12  22
ENDBRANCH   1  18
BRANCH   1  23
ATOM     23  O   UNL     1       0.427   2.664 -25.588  0.00  0.00    -0.382 OA
ATOM     24  H   UNL     1      -0.125   3.218 -26.162  0.00  0.00    +0.211 HD
ENDBRANCH   1  23
TORSDOF 4
ENDMDL
