MODEL 1
REMARK VINA RESULT:    -7.949      0.000      0.000
REMARK INTER + INTRA:         -10.643
REMARK INTER:                  -9.717
REMARK INTRA:                  -0.926
REMARK UNBOUND:                -0.836
REMARK  Name = ZINC000000117559
REMARK  5 active torsions:
REMARK  status: ('A' for Active; 'I' for Inactive)
REMARK    1  A    between atoms: C_2  and  C_3
REMARK    2  A    between atoms: C_2  and  C_10
REMARK    3  A    between atoms: C_3  and  C_4
REMARK    4  A    between atoms: C_13  and  O_14
REMARK    5  A    between atoms: C_16  and  O_17
REMARK                            x       y       z     vdW  Elec       q    Type
REMARK                         _______ _______ _______ _____ _____    ______ ____
ROOT
ATOM      1  C   UNL     1       0.297   3.834 -23.818  0.00  0.00    +0.059 A 
ATOM      2  C   UNL     1       1.060   4.883 -23.727  0.00  0.00    +0.018 A 
ATOM      3  C   UNL     1       2.264   4.771 -23.251  0.00  0.00    +0.046 A 
ATOM      4  C   UNL     1       2.706   3.609 -22.866  0.00  0.00    +0.120 A 
ATOM      5  C   UNL     1       1.943   2.562 -22.957  0.00  0.00    +0.091 A 
ATOM      6  C   UNL     1       0.739   2.674 -23.434  0.00  0.00    +0.131 A 
ENDROOT
BRANCH   1   8
ATOM      7  O   UNL     1      -1.222   3.360 -25.412  0.00  0.00    -0.292 OA
ATOM      8  C   UNL     1      -0.908   3.946 -24.295  0.00  0.00    +0.171 C 
BRANCH   8   9
ATOM      9  C   UNL     1      -1.798   4.643 -23.653  0.00  0.00    +0.114 C 
BRANCH   9  10
ATOM     10  C   UNL     1      -2.558   4.070 -22.768  0.00  0.00    -0.040 A 
ATOM     11  C   UNL     1      -3.701   3.563 -23.124  0.00  0.00    +0.004 A 
ATOM     12  C   UNL     1      -4.462   2.990 -22.239  0.00  0.00    +0.000 A 
ATOM     13  C   UNL     1      -4.079   2.924 -20.998  0.00  0.00    +0.000 A 
ATOM     14  C   UNL     1      -2.935   3.431 -20.643  0.00  0.00    +0.000 A 
ATOM     15  C   UNL     1      -2.175   4.004 -21.528  0.00  0.00    +0.004 A 
ENDBRANCH   9  10
ENDBRANCH   8   9
ENDBRANCH   1   8
BRANCH   4  16
ATOM     16  O   UNL     1       3.911   3.498 -22.390  0.00  0.00    -0.507 OA
ATOM     17  H   UNL     1       4.596   4.047 -22.716  0.00  0.00    +0.292 HD
ENDBRANCH   4  16
BRANCH   6  18
ATOM     18  O   UNL     1      -0.025   1.625 -23.525  0.00  0.00    -0.506 OA
ATOM     19  H   UNL     1      -0.261   1.149 -22.754  0.00  0.00    +0.292 HD
ENDBRANCH   6  18
TORSDOF 5
ENDMDL
