MODEL 1
REMARK VINA RESULT:   -10.785      0.000      0.000
REMARK INTER + INTRA:         -11.533
REMARK INTER:                 -11.393
REMARK INTRA:                  -0.140
REMARK UNBOUND:                -0.117
REMARK  Name = COc1ccc2c(c1)[C@]13CCN[C@@H](C2)[C@@H]1CCC(=O)C3                     ZINC000100392451
REMARK  2 active torsions:
REMARK  status: ('A' for Active; 'I' for Inactive)
REMARK    1  A    between atoms: C_1  and  O_2
REMARK    2  A    between atoms: O_2  and  C_3
REMARK                            x       y       z     vdW  Elec       q    Type
REMARK                         _______ _______ _______ _____ _____    ______ ____
ROOT
ATOM      1  C   UNL     1      -4.124   3.986 -25.025  0.00  0.00    +0.120 A 
ATOM      2  C   UNL     1      -5.208   4.122 -24.387  0.00  0.00    +0.046 A 
ATOM      3  C   UNL     1      -5.257   3.756 -23.177  0.00  0.00    +0.008 A 
ATOM      4  C   UNL     1      -4.060   3.190 -22.558  0.00  0.00    -0.038 A 
ATOM      5  C   UNL     1      -3.184   3.103 -23.142  0.00  0.00    -0.033 A 
ATOM      6  C   UNL     1      -2.319   2.772 -22.942  0.00  0.00    +0.015 C 
ATOM      7  C   UNL     1      -3.805   3.399 -23.474  0.00  0.00    +0.063 C 
ATOM      8  C   UNL     1      -4.973   3.464 -22.528  0.00  0.00    +0.130 C 
ATOM      9  N   UNL     1      -4.821   3.064 -21.406  0.00  0.00    +0.230 N 
ATOM     10  H   UNL     1      -4.907   3.917 -20.854  0.00  0.00    +0.202 HD
ATOM     11  H   UNL     1      -5.509   2.323 -21.268  0.00  0.00    +0.202 HD
ATOM     12  C   UNL     1      -3.437   2.483 -20.923  0.00  0.00    +0.071 C 
ATOM     13  C   UNL     1      -1.274   2.677 -23.672  0.00  0.00    +0.086 C 
ATOM     14  C   UNL     1      -0.180   2.181 -23.172  0.00  0.00    +0.134 C 
ATOM     15  O   UNL     1       0.877   2.085 -23.911  0.00  0.00    -0.297 OA
ATOM     16  C   UNL     1      -0.140   1.772 -21.911  0.00  0.00    +0.075 C 
ATOM     17  C   UNL     1      -1.193   1.853 -21.131  0.00  0.00    +0.017 C 
ATOM     18  C   UNL     1      -2.279   2.332 -21.584  0.00  0.00    +0.049 C 
ATOM     19  C   UNL     1      -4.146   2.858 -21.414  0.00  0.00    +0.090 C 
ATOM     20  C   UNL     1      -3.101   3.478 -24.417  0.00  0.00    +0.050 A 
ENDROOT
BRANCH   1  22
ATOM     21  C   UNL     1      -3.285   3.637 -27.131  0.00  0.00    +0.277 C 
ATOM     22  O   UNL     1      -3.961   4.334 -26.295  0.00  0.00    -0.495 OA
ENDBRANCH   1  22
TORSDOF 1
ENDMDL
