MODEL 1
REMARK VINA RESULT:   -10.161      0.000      0.000
REMARK INTER + INTRA:         -10.161
REMARK INTER:                 -10.161
REMARK INTRA:                   0.000
REMARK UNBOUND:                 0.000
REMARK  Name = C=C1C(=O)O[C@H]2[C@H]1CC/C(C)=C/CC[C@]1(C)O[C@H]21                   ZINC000100066686
REMARK  2 active torsions:
REMARK  status: ('A' for Active; 'I' for Inactive)
REMARK    1  A    between atoms: C_10  and  C_11
REMARK    2  A    between atoms: C_15  and  C_16
REMARK                            x       y       z     vdW  Elec       q    Type
REMARK                         _______ _______ _______ _____ _____    ______ ____
ROOT
ATOM      1  C   UNL     1       0.666   2.439 -23.065  0.00  0.00    +0.020 C 
ATOM      2  C   UNL     1      -0.111   2.976 -23.973  0.00  0.00    +0.036 C 
ATOM      3  C   UNL     1       0.260   3.396 -25.157  0.00  0.00    +0.335 C 
ATOM      4  O   UNL     1      -0.799   3.866 -25.772  0.00  0.00    -0.455 OA
ATOM      5  C   UNL     1      -1.826   3.737 -24.968  0.00  0.00    +0.216 C 
ATOM      6  C   UNL     1      -3.178   4.083 -25.146  0.00  0.00    +0.192 C 
ATOM      7  O   UNL     1      -4.418   4.431 -25.381  0.00  0.00    -0.361 OA
ATOM      8  C   UNL     1      -4.096   3.885 -24.231  0.00  0.00    +0.097 C 
ATOM      9  C   UNL     1      -3.397   3.341 -23.266  0.00  0.00    +0.044 C 
ATOM     10  C   UNL     1      -5.356   3.903 -23.666  0.00  0.00    +0.041 C 
ATOM     11  C   UNL     1      -5.353   3.437 -22.553  0.00  0.00    +0.030 C 
ATOM     12  C   UNL     1      -4.211   3.138 -22.389  0.00  0.00    -0.028 C 
ATOM     13  C   UNL     1      -3.625   2.631 -21.458  0.00  0.00    -0.077 C 
ATOM     14  C   UNL     1      -4.187   2.278 -20.342  0.00  0.00    +0.039 C 
ATOM     15  C   UNL     1      -2.396   2.514 -21.769  0.00  0.00    +0.031 C 
ATOM     16  C   UNL     1      -2.343   3.012 -22.987  0.00  0.00    +0.016 C 
ATOM     17  O   UNL     1       1.479   3.353 -25.641  0.00  0.00    -0.245 OA
ATOM     18  C   UNL     1      -1.401   3.188 -23.859  0.00  0.00    +0.069 C 
ENDROOT
TORSDOF 0
ENDMDL
