MODEL 1
REMARK VINA RESULT:    -9.386      0.000      0.000
REMARK INTER + INTRA:         -11.806
REMARK INTER:                 -11.434
REMARK INTRA:                  -0.372
REMARK UNBOUND:                -0.773
REMARK  Name = COc1ccc2c(c1Oc1ccccc1)[C@@]13CCN(C)[C@@H](C2)[C@@H]1[C@H](C)CC(=O)C3 ZINC000253504567
REMARK  6 active torsions:
REMARK  status: ('A' for Active; 'I' for Inactive)
REMARK    1  A    between atoms: C_1  and  O_2
REMARK    2  A    between atoms: O_2  and  C_3
REMARK    3  A    between atoms: C_8  and  O_9
REMARK    4  A    between atoms: O_9  and  C_10
REMARK    5  A    between atoms: N_19  and  C_20
REMARK    6  A    between atoms: C_24  and  C_25
REMARK                            x       y       z     vdW  Elec       q    Type
REMARK                         _______ _______ _______ _____ _____    ______ ____
ROOT
ATOM      1  C   UNL     1      -1.781   2.719 -21.220  0.00  0.00    +0.162 A 
ATOM      2  C   UNL     1      -2.934   2.740 -20.709  0.00  0.00    +0.050 A 
ATOM      3  C   UNL     1      -3.923   2.970 -21.457  0.00  0.00    +0.008 A 
ATOM      4  C   UNL     1      -3.698   3.203 -22.884  0.00  0.00    -0.035 A 
ATOM      5  C   UNL     1      -2.705   3.170 -23.238  0.00  0.00    +0.009 A 
ATOM      6  C   UNL     1      -2.344   3.290 -24.109  0.00  0.00    +0.019 C 
ATOM      7  C   UNL     1      -2.790   3.048 -22.509  0.00  0.00    +0.063 C 
ATOM      8  C   UNL     1      -4.204   3.119 -22.138  0.00  0.00    +0.132 C 
ATOM      9  N   UNL     1      -4.999   3.344 -22.962  0.00  0.00    +0.236 N 
ATOM     10  H   UNL     1      -5.427   3.547 -23.865  0.00  0.00    +0.203 HD
ATOM     11  C   UNL     1      -4.604   3.575 -24.472  0.00  0.00    +0.073 C 
ATOM     12  C   UNL     1      -5.964   3.277 -22.056  0.00  0.00    +0.190 C 
ATOM     13  C   UNL     1      -1.164   3.251 -24.534  0.00  0.00    +0.086 C 
ATOM     14  C   UNL     1      -0.935   3.452 -25.790  0.00  0.00    +0.134 C 
ATOM     15  O   UNL     1       0.263   3.415 -26.234  0.00  0.00    -0.297 OA
ATOM     16  C   UNL     1      -1.910   3.697 -26.629  0.00  0.00    +0.078 C 
ATOM     17  C   UNL     1      -3.135   3.745 -26.225  0.00  0.00    +0.002 C 
ATOM     18  C   UNL     1      -4.089   3.984 -27.046  0.00  0.00    +0.008 C 
ATOM     19  C   UNL     1      -3.405   3.555 -25.015  0.00  0.00    +0.052 C 
ATOM     20  C   UNL     1      -4.694   3.433 -23.626  0.00  0.00    +0.090 C 
ATOM     21  C   UNL     1      -1.654   2.932 -22.483  0.00  0.00    +0.174 A 
ENDROOT
BRANCH   1  23
ATOM     22  C   UNL     1       0.109   1.448 -20.646  0.00  0.00    +0.277 C 
ATOM     23  O   UNL     1      -0.581   2.495 -20.622  0.00  0.00    -0.491 OA
ENDBRANCH   1  23
BRANCH  21  24
ATOM     24  O   UNL     1      -0.377   2.976 -23.427  0.00  0.00    -0.452 OA
BRANCH  24  25
ATOM     25  C   UNL     1       0.859   3.628 -23.365  0.00  0.00    +0.129 A 
ATOM     26  C   UNL     1       1.874   2.851 -23.370  0.00  0.00    +0.046 A 
ATOM     27  C   UNL     1       3.052   3.343 -23.316  0.00  0.00    +0.004 A 
ATOM     28  C   UNL     1       3.214   4.607 -23.257  0.00  0.00    +0.000 A 
ATOM     29  C   UNL     1       2.198   5.386 -23.252  0.00  0.00    +0.004 A 
ATOM     30  C   UNL     1       1.020   4.895 -23.306  0.00  0.00    +0.046 A 
ENDBRANCH  24  25
ENDBRANCH  21  24
TORSDOF 3
ENDMDL
