MODEL 1
REMARK VINA RESULT:    -9.802      0.000      0.000
REMARK INTER + INTRA:         -11.428
REMARK INTER:                 -10.908
REMARK INTRA:                  -0.520
REMARK UNBOUND:                -0.480
REMARK  Name = ZINC000000338216
REMARK  4 active torsions:
REMARK  status: ('A' for Active; 'I' for Inactive)
REMARK    1  A    between atoms: C_1  and  C_2
REMARK    2  A    between atoms: C_3  and  O_4
REMARK    3  A    between atoms: C_6  and  O_7
REMARK    4  A    between atoms: C_12  and  C_13
REMARK                            x       y       z     vdW  Elec       q    Type
REMARK                         _______ _______ _______ _____ _____    ______ ____
ROOT
ATOM      1  C   UNL     1      -4.032   2.690 -21.021  0.00  0.00    +0.051 C 
ATOM      2  C   UNL     1      -4.192   3.061 -22.257  0.00  0.00    +0.034 A 
ATOM      3  C   UNL     1      -5.363   3.439 -22.675  0.00  0.00    +0.127 A 
ATOM      4  C   UNL     1      -5.524   3.810 -23.911  0.00  0.00    +0.092 A 
ATOM      5  C   UNL     1      -4.512   3.801 -24.728  0.00  0.00    +0.135 A 
ATOM      6  C   UNL     1      -3.342   3.422 -24.310  0.00  0.00    +0.106 A 
ATOM      7  C   UNL     1      -2.331   3.414 -25.128  0.00  0.00    +0.197 A 
ATOM      8  C   UNL     1      -1.160   3.035 -24.709  0.00  0.00    +0.098 A 
ATOM      9  C   UNL     1      -0.999   2.665 -23.473  0.00  0.00    +0.139 A 
ATOM     10  O   UNL     1      -2.011   2.674 -22.656  0.00  0.00    -0.454 OA
ATOM     11  O   UNL     1      -2.492   3.784 -26.363  0.00  0.00    -0.287 OA
ATOM     12  C   UNL     1      -3.181   3.052 -23.074  0.00  0.00    +0.149 A 
ENDROOT
BRANCH   9  13
ATOM     13  C   UNL     1       0.172   2.286 -23.054  0.00  0.00    +0.017 A 
ATOM     14  C   UNL     1       0.306   1.789 -21.861  0.00  0.00    +0.011 A 
ATOM     15  C   UNL     1       1.477   1.410 -21.442  0.00  0.00    +0.001 A 
ATOM     16  C   UNL     1       2.514   1.528 -22.217  0.00  0.00    +0.000 A 
ATOM     17  C   UNL     1       2.379   2.025 -23.411  0.00  0.00    +0.001 A 
ATOM     18  C   UNL     1       1.208   2.404 -23.830  0.00  0.00    +0.011 A 
ENDBRANCH   9  13
BRANCH   5  19
ATOM     19  O   UNL     1      -4.673   4.171 -25.964  0.00  0.00    -0.506 OA
ATOM     20  H   UNL     1      -4.022   4.699 -26.383  0.00  0.00    +0.292 HD
ENDBRANCH   5  19
BRANCH   3  21
ATOM     21  O   UNL     1      -6.374   3.448 -21.857  0.00  0.00    -0.506 OA
ATOM     22  H   UNL     1      -7.211   3.141 -22.145  0.00  0.00    +0.292 HD
ENDBRANCH   3  21
TORSDOF 3
ENDMDL
