MODEL 1
REMARK VINA RESULT:   -10.968      0.000      0.000
REMARK INTER + INTRA:         -11.732
REMARK INTER:                 -11.611
REMARK INTRA:                  -0.121
REMARK UNBOUND:                -0.123
REMARK  Name = ZINC000096316249
REMARK  3 active torsions:
REMARK  status: ('A' for Active; 'I' for Inactive)
REMARK    1  A    between atoms: C_1  and  O_2
REMARK    2  A    between atoms: O_2  and  C_3
REMARK    3  A    between atoms: N_18  and  C_19
REMARK                            x       y       z     vdW  Elec       q    Type
REMARK                         _______ _______ _______ _____ _____    ______ ____
ROOT
ATOM      1  C   UNL     1       1.140   1.867 -21.958  0.00  0.00    +0.163 A 
ATOM      2  C   UNL     1       1.934   2.026 -22.938  0.00  0.00    +0.065 A 
ATOM      3  C   UNL     1       1.507   2.437 -24.046  0.00  0.00    +0.025 A 
ATOM      4  C   UNL     1       0.284   2.695 -24.187  0.00  0.00    -0.021 A 
ATOM      5  C   UNL     1      -0.526   2.545 -23.227  0.00  0.00    +0.013 A 
ATOM      6  C   UNL     1      -1.748   2.802 -23.369  0.00  0.00    +0.054 C 
ATOM      7  C   UNL     1      -3.156   3.063 -23.417  0.00  0.00    +0.067 C 
ATOM      8  C   UNL     1      -3.667   3.530 -24.656  0.00  0.00    +0.132 C 
ATOM      9  N   UNL     1      -2.750   3.694 -25.724  0.00  0.00    +0.236 N 
ATOM     10  H   UNL     1      -3.055   4.026 -26.639  0.00  0.00    +0.203 HD
ATOM     11  C   UNL     1      -3.122   4.103 -26.854  0.00  0.00    +0.190 C 
ATOM     12  C   UNL     1      -1.380   3.372 -25.456  0.00  0.00    +0.073 C 
ATOM     13  C   UNL     1      -2.176   3.215 -24.480  0.00  0.00    +0.053 C 
ATOM     14  C   UNL     1      -3.413   3.475 -24.623  0.00  0.00    +0.015 C 
ATOM     15  C   UNL     1      -4.207   3.321 -23.660  0.00  0.00    +0.069 C 
ATOM     16  C   UNL     1      -3.780   2.905 -22.538  0.00  0.00    +0.208 C 
ATOM     17  O   UNL     1      -3.467   2.501 -21.390  0.00  0.00    -0.343 OA
ATOM     18  C   UNL     1      -4.510   2.470 -20.689  0.00  0.00    +0.191 C 
ATOM     19  C   UNL     1      -5.469   2.856 -21.406  0.00  0.00    +0.191 C 
ATOM     20  O   UNL     1      -5.018   3.125 -22.548  0.00  0.00    -0.343 OA
ATOM     21  C   UNL     1      -2.559   2.647 -22.394  0.00  0.00    +0.244 C 
ATOM     22  O   UNL     1      -1.459   2.170 -21.459  0.00  0.00    -0.479 OA
ATOM     23  C   UNL     1      -0.158   3.115 -25.315  0.00  0.00    +0.091 C 
ATOM     24 BR   UNL     1       2.299   2.592 -25.008  0.00  0.00    -0.050 Br
ATOM     25  C   UNL     1      -0.097   2.128 -22.105  0.00  0.00    +0.167 A 
ENDROOT
BRANCH   1  27
ATOM     26  C   UNL     1       2.810   1.457 -20.620  0.00  0.00    +0.277 C 
ATOM     27  O   UNL     1       1.574   1.454 -20.853  0.00  0.00    -0.491 OA
ENDBRANCH   1  27
TORSDOF 1
ENDMDL
