MODEL 1
REMARK VINA RESULT:   -10.826      0.000      0.000
REMARK INTER + INTRA:         -12.418
REMARK INTER:                 -13.122
REMARK INTRA:                   0.704
REMARK UNBOUND:                 1.256
REMARK  Name = COCO[C@@H]1C=C2[C@H]3Cc4ccc(OC)c5c4[C@]2(CCN3C)[C@@](C)(O5)[C@H]1O   ZINC000100393652
REMARK  9 active torsions:
REMARK  status: ('A' for Active; 'I' for Inactive)
REMARK    1  A    between atoms: C_1  and  O_2
REMARK    2  A    between atoms: O_2  and  C_3
REMARK    3  A    between atoms: C_3  and  O_4
REMARK    4  A    between atoms: O_4  and  C_5
REMARK    5  A    between atoms: C_13  and  O_14
REMARK    6  A    between atoms: O_14  and  C_15
REMARK    7  A    between atoms: N_21  and  C_22
REMARK    8  A    between atoms: C_23  and  C_24
REMARK    9  A    between atoms: C_26  and  O_27
REMARK                            x       y       z     vdW  Elec       q    Type
REMARK                         _______ _______ _______ _____ _____    ______ ____
ROOT
ATOM      1  C   UNL     1       0.967   2.196 -22.653  0.00  0.00    +0.176 C 
ATOM      2  C   UNL     1       0.598   2.704 -23.743  0.00  0.00    +0.013 C 
ATOM      3  C   UNL     1      -0.621   3.012 -23.924  0.00  0.00    -0.009 C 
ATOM      4  C   UNL     1      -0.986   3.525 -25.029  0.00  0.00    +0.096 C 
ATOM      5  C   UNL     1      -2.192   3.830 -25.208  0.00  0.00    +0.094 C 
ATOM      6  C   UNL     1      -3.048   3.624 -24.281  0.00  0.00    -0.034 A 
ATOM      7  C   UNL     1      -4.258   3.929 -24.461  0.00  0.00    +0.008 A 
ATOM      8  C   UNL     1      -5.097   3.725 -23.547  0.00  0.00    +0.050 A 
ATOM      9  C   UNL     1      -4.736   3.212 -22.442  0.00  0.00    +0.162 A 
ATOM     10  C   UNL     1      -3.513   2.905 -22.263  0.00  0.00    +0.167 A 
ATOM     11  O   UNL     1      -2.486   2.329 -21.321  0.00  0.00    -0.478 OA
ATOM     12  C   UNL     1      -1.085   2.292 -21.903  0.00  0.00    +0.150 C 
ATOM     13  C   UNL     1      -1.004   1.811 -20.743  0.00  0.00    +0.060 C 
ATOM     14  C   UNL     1      -2.668   3.112 -23.187  0.00  0.00    +0.016 A 
ATOM     15  N   UNL     1       0.408   3.215 -24.927  0.00  0.00    +0.239 N 
ATOM     16  H   UNL     1       1.063   3.394 -25.688  0.00  0.00    +0.204 HD
ATOM     17  C   UNL     1       1.203   3.442 -25.874  0.00  0.00    +0.191 C 
ATOM     18  C   UNL     1       0.850   2.642 -23.709  0.00  0.00    +0.133 C 
ATOM     19  C   UNL     1      -0.120   2.424 -22.697  0.00  0.00    +0.071 C 
ATOM     20  C   UNL     1      -1.462   2.809 -23.011  0.00  0.00    +0.072 C 
ATOM     21  C   UNL     1       0.122   1.989 -21.727  0.00  0.00    +0.192 C 
ENDROOT
BRANCH   9  22
ATOM     22  O   UNL     1      -5.579   3.010 -21.531  0.00  0.00    -0.491 OA
ATOM     23  C   UNL     1      -6.731   2.595 -21.819  0.00  0.00    +0.277 C 
ENDBRANCH   9  22
BRANCH  21  24
ATOM     24  O   UNL     1       0.493   1.480 -20.637  0.00  0.00    -0.385 OA
ATOM     25  H   UNL     1       0.060   1.941 -19.902  0.00  0.00    +0.210 HD
ENDBRANCH  21  24
BRANCH   1  26
ATOM     26  O   UNL     1       2.176   1.893 -22.479  0.00  0.00    -0.344 OA
BRANCH  26  27
ATOM     27  C   UNL     1       2.582   0.734 -22.754  0.00  0.00    +0.323 C 
BRANCH  27  29
ATOM     28  C   UNL     1       3.856   0.432 -21.010  0.00  0.00    +0.196 C 
ATOM     29  O   UNL     1       3.021  -0.012 -21.840  0.00  0.00    -0.357 OA
ENDBRANCH  27  29
ENDBRANCH  26  27
ENDBRANCH   1  26
TORSDOF 5
ENDMDL
