MODEL 1
REMARK VINA RESULT:    -8.425      0.000      0.000
REMARK INTER + INTRA:          -8.671
REMARK INTER:                  -8.671
REMARK INTRA:                   0.000
REMARK UNBOUND:                 0.000
REMARK  Name = O=c1c2ccccc2nc2n1CC[C@@H]2O                                          ZINC000100064968
REMARK  1 active torsions:
REMARK  status: ('A' for Active; 'I' for Inactive)
REMARK    1  A    between atoms: C_14  and  O_15
REMARK                            x       y       z     vdW  Elec       q    Type
REMARK                         _______ _______ _______ _____ _____    ______ ____
ROOT
ATOM      1  O   UNL     1      -1.893   3.698 -25.155  0.00  0.00    -0.267 OA
ATOM      2  C   UNL     1      -1.995   3.233 -23.945  0.00  0.00    +0.262 A 
ATOM      3  C   UNL     1      -3.144   3.248 -23.338  0.00  0.00    +0.065 A 
ATOM      4  C   UNL     1      -4.191   3.728 -23.940  0.00  0.00    +0.015 A 
ATOM      5  C   UNL     1      -5.340   3.743 -23.332  0.00  0.00    +0.001 A 
ATOM      6  C   UNL     1      -5.442   3.278 -22.123  0.00  0.00    +0.002 A 
ATOM      7  C   UNL     1      -4.395   2.798 -21.521  0.00  0.00    +0.028 A 
ATOM      8  C   UNL     1      -3.245   2.783 -22.128  0.00  0.00    +0.078 A 
ATOM      9  N   UNL     1      -2.198   2.303 -21.526  0.00  0.00    -0.231 NA
ATOM     10  C   UNL     1      -1.049   2.288 -22.133  0.00  0.00    +0.142 A 
ATOM     11  C   UNL     1       0.125   1.872 -21.763  0.00  0.00    +0.182 C 
ATOM     12  C   UNL     1       0.953   2.080 -22.743  0.00  0.00    +0.061 C 
ATOM     13  C   UNL     1       0.290   2.625 -23.720  0.00  0.00    +0.129 C 
ATOM     14  N   UNL     1      -0.948   2.753 -23.343  0.00  0.00    -0.294 N 
ENDROOT
BRANCH  11  15
ATOM     15  O   UNL     1       0.420   1.341 -20.613  0.00  0.00    -0.384 OA
ATOM     16  H   UNL     1       0.028   0.456 -20.555  0.00  0.00    +0.210 HD
ENDBRANCH  11  15
TORSDOF 1
ENDMDL
