MODEL 1
REMARK VINA RESULT:   -10.968      0.000      0.000
REMARK INTER + INTRA:         -12.072
REMARK INTER:                 -11.959
REMARK INTRA:                  -0.113
REMARK UNBOUND:                -0.142
REMARK  Name = COc1ccc2c3c1O[C@]1(C)[C@@H](O)[C@H](Cl)C=C4[C@@H](C2)N(C)CC[C@@]431  ZINC000100393468
REMARK  5 active torsions:
REMARK  status: ('A' for Active; 'I' for Inactive)
REMARK    1  A    between atoms: C_1  and  O_2
REMARK    2  A    between atoms: O_2  and  C_3
REMARK    3  A    between atoms: C_10  and  C_11
REMARK    4  A    between atoms: C_12  and  O_13
REMARK    5  A    between atoms: N_20  and  C_21
REMARK                            x       y       z     vdW  Elec       q    Type
REMARK                         _______ _______ _______ _____ _____    ______ ____
ROOT
ATOM      1  C   UNL     1       1.618   2.271 -23.786  0.00  0.00    +0.162 A 
ATOM      2  C   UNL     1       1.912   1.808 -22.643  0.00  0.00    +0.050 A 
ATOM      3  C   UNL     1       1.031   1.690 -21.760  0.00  0.00    +0.008 A 
ATOM      4  C   UNL     1      -0.152   2.031 -22.005  0.00  0.00    -0.034 A 
ATOM      5  C   UNL     1      -0.465   2.494 -23.137  0.00  0.00    +0.016 A 
ATOM      6  C   UNL     1      -1.646   2.834 -23.379  0.00  0.00    +0.072 C 
ATOM      7  C   UNL     1      -2.952   3.252 -23.770  0.00  0.00    +0.071 C 
ATOM      8  C   UNL     1      -3.966   3.130 -22.793  0.00  0.00    +0.133 C 
ATOM      9  N   UNL     1      -3.600   2.610 -21.532  0.00  0.00    +0.239 N 
ATOM     10  H   UNL     1      -4.291   2.500 -20.789  0.00  0.00    +0.204 HD
ATOM     11  C   UNL     1      -4.438   2.470 -20.612  0.00  0.00    +0.191 C 
ATOM     12  C   UNL     1      -2.230   2.253 -21.356  0.00  0.00    +0.096 C 
ATOM     13  C   UNL     1      -2.528   2.716 -22.497  0.00  0.00    -0.010 C 
ATOM     14  C   UNL     1      -3.722   3.060 -22.744  0.00  0.00    +0.000 C 
ATOM     15  C   UNL     1      -4.022   3.519 -23.871  0.00  0.00    +0.136 C 
ATOM     16 CL   UNL     1      -5.203   3.858 -24.111  0.00  0.00    -0.115 Cl
ATOM     17  C   UNL     1      -3.136   3.640 -24.768  0.00  0.00    +0.180 C 
ATOM     18  C   UNL     1      -1.955   3.300 -24.525  0.00  0.00    +0.149 C 
ATOM     19  C   UNL     1      -1.970   3.717 -25.708  0.00  0.00    +0.060 C 
ATOM     20  O   UNL     1      -0.540   3.176 -25.043  0.00  0.00    -0.478 OA
ATOM     21  C   UNL     1      -1.050   1.912 -21.110  0.00  0.00    +0.094 C 
ATOM     22  C   UNL     1       0.422   2.615 -24.032  0.00  0.00    +0.167 A 
ENDROOT
BRANCH   1  24
ATOM     23  C   UNL     1       3.702   2.165 -24.386  0.00  0.00    +0.277 C 
ATOM     24  O   UNL     1       2.501   2.388 -24.667  0.00  0.00    -0.491 OA
ENDBRANCH   1  24
BRANCH  17  25
ATOM     25  O   UNL     1      -3.441   4.100 -25.894  0.00  0.00    -0.386 OA
ATOM     26  H   UNL     1      -2.702   3.968 -26.508  0.00  0.00    +0.210 HD
ENDBRANCH  17  25
TORSDOF 2
ENDMDL
