MODEL 1
REMARK VINA RESULT:   -10.936      0.000      0.000
REMARK INTER + INTRA:         -12.009
REMARK INTER:                 -11.900
REMARK INTRA:                  -0.109
REMARK UNBOUND:                -0.114
REMARK  Name = COc1ccc2c3c1O[C@@H]1[C@@H](O)[C@@H](Cl)C=C4[C@@H](C2)N(C)CC[C@]431   ZINC000253505624
REMARK  4 active torsions:
REMARK  status: ('A' for Active; 'I' for Inactive)
REMARK    1  A    between atoms: C_1  and  O_2
REMARK    2  A    between atoms: O_2  and  C_3
REMARK    3  A    between atoms: C_11  and  O_12
REMARK    4  A    between atoms: N_19  and  C_20
REMARK                            x       y       z     vdW  Elec       q    Type
REMARK                         _______ _______ _______ _____ _____    ______ ____
ROOT
ATOM      1  C   UNL     1       1.255   1.768 -22.195  0.00  0.00    +0.162 A 
ATOM      2  C   UNL     1       1.792   2.122 -23.284  0.00  0.00    +0.050 A 
ATOM      3  C   UNL     1       1.114   2.677 -24.176  0.00  0.00    +0.008 A 
ATOM      4  C   UNL     1      -0.108   2.884 -23.989  0.00  0.00    -0.034 A 
ATOM      5  C   UNL     1      -0.664   2.540 -22.913  0.00  0.00    +0.015 A 
ATOM      6  C   UNL     1      -1.883   2.749 -22.733  0.00  0.00    +0.070 C 
ATOM      7  C   UNL     1      -3.261   2.934 -22.412  0.00  0.00    +0.071 C 
ATOM      8  C   UNL     1      -4.052   3.558 -23.400  0.00  0.00    +0.133 C 
ATOM      9  N   UNL     1      -3.419   3.939 -24.601  0.00  0.00    +0.239 N 
ATOM     10  H   UNL     1      -3.945   4.393 -25.347  0.00  0.00    +0.204 HD
ATOM     11  C   UNL     1      -4.048   4.497 -25.527  0.00  0.00    +0.191 C 
ATOM     12  C   UNL     1      -2.025   3.657 -24.711  0.00  0.00    +0.096 C 
ATOM     13  C   UNL     1      -2.566   3.304 -23.623  0.00  0.00    -0.010 C 
ATOM     14  C   UNL     1      -3.799   3.514 -23.437  0.00  0.00    +0.000 C 
ATOM     15  C   UNL     1      -4.339   3.167 -22.361  0.00  0.00    +0.135 C 
ATOM     16 CL   UNL     1      -5.559   3.377 -22.182  0.00  0.00    -0.115 Cl
ATOM     17  C   UNL     1      -3.656   2.605 -21.457  0.00  0.00    +0.178 C 
ATOM     18  C   UNL     1      -2.436   2.396 -21.638  0.00  0.00    +0.219 C 
ATOM     19  O   UNL     1      -1.148   1.844 -21.079  0.00  0.00    -0.481 OA
ATOM     20  C   UNL     1      -0.805   3.450 -24.897  0.00  0.00    +0.094 C 
ATOM     21  C   UNL     1       0.020   1.979 -22.011  0.00  0.00    +0.167 A 
ENDROOT
BRANCH   1  23
ATOM     22  C   UNL     1       3.068   0.750 -21.580  0.00  0.00    +0.277 C 
ATOM     23  O   UNL     1       1.937   1.213 -21.305  0.00  0.00    -0.491 OA
ENDBRANCH   1  23
BRANCH  17  24
ATOM     24  O   UNL     1      -4.199   2.259 -20.382  0.00  0.00    -0.386 OA
ATOM     25  H   UNL     1      -5.163   2.302 -20.480  0.00  0.00    +0.210 HD
ENDBRANCH  17  24
TORSDOF 2
ENDMDL
