MODEL 1
REMARK VINA RESULT:   -10.031      0.000      0.000
REMARK INTER + INTRA:         -11.349
REMARK INTER:                 -11.228
REMARK INTRA:                  -0.121
REMARK UNBOUND:                -0.144
REMARK  Name = COc1ccc2c(c1O)[C@]13CCN(C)[C@H](C2)[C@H]1C(Br)=CC=C3C                ZINC000096316404
REMARK  5 active torsions:
REMARK  status: ('A' for Active; 'I' for Inactive)
REMARK    1  A    between atoms: C_1  and  O_2
REMARK    2  A    between atoms: O_2  and  C_3
REMARK    3  A    between atoms: C_8  and  O_9
REMARK    4  A    between atoms: N_13  and  C_14
REMARK    5  A    between atoms: C_22  and  C_23
REMARK                            x       y       z     vdW  Elec       q    Type
REMARK                         _______ _______ _______ _____ _____    ______ ____
ROOT
ATOM      1  C   UNL     1      -4.877   3.448 -22.891  0.00  0.00    +0.162 A 
ATOM      2  C   UNL     1      -5.197   3.783 -24.074  0.00  0.00    +0.049 A 
ATOM      3  C   UNL     1      -4.286   3.813 -24.962  0.00  0.00    +0.008 A 
ATOM      4  C   UNL     1      -2.900   3.461 -24.588  0.00  0.00    -0.034 A 
ATOM      5  C   UNL     1      -2.713   3.190 -23.569  0.00  0.00    +0.012 A 
ATOM      6  C   UNL     1      -1.905   2.931 -23.118  0.00  0.00    +0.038 C 
ATOM      7  C   UNL     1      -3.427   3.363 -23.726  0.00  0.00    +0.067 C 
ATOM      8  C   UNL     1      -3.561   3.719 -25.156  0.00  0.00    +0.132 C 
ATOM      9  N   UNL     1      -2.609   3.697 -25.850  0.00  0.00    +0.236 N 
ATOM     10  H   UNL     1      -1.650   3.590 -26.181  0.00  0.00    +0.203 HD
ATOM     11  C   UNL     1      -1.165   3.294 -25.304  0.00  0.00    +0.078 C 
ATOM     12  C   UNL     1      -3.371   4.079 -26.871  0.00  0.00    +0.190 C 
ATOM     13  C   UNL     1      -1.670   2.608 -21.916  0.00  0.00    -0.061 C 
ATOM     14  C   UNL     1      -2.566   2.578 -21.043  0.00  0.00    +0.040 C 
ATOM     15  C   UNL     1      -0.456   2.292 -21.555  0.00  0.00    +0.001 C 
ATOM     16  C   UNL     1       0.536   2.304 -22.428  0.00  0.00    +0.011 C 
ATOM     17  C   UNL     1       0.340   2.629 -23.674  0.00  0.00    +0.005 C 
ATOM     18 BR   UNL     1       1.316   2.637 -24.517  0.00  0.00    -0.054 Br
ATOM     19  C   UNL     1      -0.823   2.942 -24.062  0.00  0.00    +0.090 C 
ATOM     20  C   UNL     1      -1.995   3.493 -25.478  0.00  0.00    +0.090 C 
ATOM     21  C   UNL     1      -3.644   3.150 -22.624  0.00  0.00    +0.163 A 
ENDROOT
BRANCH   1  23
ATOM     22  C   UNL     1      -6.747   2.642 -21.669  0.00  0.00    +0.277 C 
ATOM     23  O   UNL     1      -5.696   3.349 -21.782  0.00  0.00    -0.491 OA
ENDBRANCH   1  23
BRANCH  21  24
ATOM     24  O   UNL     1      -3.351   2.817 -21.428  0.00  0.00    -0.503 OA
ATOM     25  H   UNL     1      -3.241   1.913 -21.206  0.00  0.00    +0.292 HD
ENDBRANCH  21  24
TORSDOF 2
ENDMDL
