MODEL 1
REMARK VINA RESULT:    -6.004      0.000      0.000
REMARK INTER + INTRA:          -7.410
REMARK INTER:                  -6.922
REMARK INTRA:                  -0.488
REMARK UNBOUND:                -0.352
REMARK  Name = ZINC000000080786
REMARK  5 active torsions:
REMARK  status: ('A' for Active; 'I' for Inactive)
REMARK    1  A    between atoms: C_1  and  O_2
REMARK    2  A    between atoms: O_2  and  C_3
REMARK    3  A    between atoms: C_3  and  C_5
REMARK    4  A    between atoms: C_8  and  O_9
REMARK    5  A    between atoms: C_11  and  O_12
REMARK                            x       y       z     vdW  Elec       q    Type
REMARK                         _______ _______ _______ _____ _____    ______ ____
ROOT
ATOM      1  C   UNL     1      -1.873   2.610 -22.264  0.00  0.00    +0.100 A 
ATOM      2  C   UNL     1      -2.385   2.946 -21.116  0.00  0.00    +0.022 A 
ATOM      3  C   UNL     1      -3.620   3.343 -21.046  0.00  0.00    +0.046 A 
ATOM      4  C   UNL     1      -4.345   3.406 -22.124  0.00  0.00    +0.120 A 
ATOM      5  C   UNL     1      -3.834   3.070 -23.271  0.00  0.00    +0.091 A 
ATOM      6  C   UNL     1      -2.598   2.672 -23.341  0.00  0.00    +0.134 A 
ENDROOT
BRANCH   1   7
ATOM      7  C   UNL     1      -0.638   2.212 -22.333  0.00  0.00    +0.342 C 
ATOM      8  O   UNL     1      -0.351   0.953 -22.187  0.00  0.00    -0.245 OA
BRANCH   7  10
ATOM      9  C   UNL     1       1.395   2.707 -23.167  0.00  0.00    +0.280 C 
ATOM     10  O   UNL     1       0.311   3.073 -22.549  0.00  0.00    -0.464 OA
ENDBRANCH   7  10
ENDBRANCH   1   7
BRANCH   4  11
ATOM     11  O   UNL     1      -5.580   3.804 -22.054  0.00  0.00    -0.507 OA
ATOM     12  H   UNL     1      -6.237   3.386 -22.576  0.00  0.00    +0.292 HD
ENDBRANCH   4  11
BRANCH   6  13
ATOM     13  O   UNL     1      -2.087   2.336 -24.489  0.00  0.00    -0.506 OA
ATOM     14  H   UNL     1      -1.364   2.819 -24.838  0.00  0.00    +0.292 HD
ENDBRANCH   6  13
TORSDOF 4
ENDMDL
