MODEL 1
REMARK VINA RESULT:    -9.650      0.000      0.000
REMARK INTER + INTRA:          -7.922
REMARK INTER:                 -11.859
REMARK INTRA:                   3.937
REMARK UNBOUND:                 3.984
REMARK  Name = COC1=C2Oc3c(OC)ccc4c3[C@@]23CCN(C)[C@H](C4)C3=C[C@H]1C(C)(C)O        ZINC000096316418
REMARK  9 active torsions:
REMARK  status: ('A' for Active; 'I' for Inactive)
REMARK    1  A    between atoms: C_1  and  O_2
REMARK    2  A    between atoms: O_2  and  C_3
REMARK    3  A    between atoms: C_7  and  O_8
REMARK    4  A    between atoms: O_8  and  C_9
REMARK    5  A    between atoms: N_17  and  C_18
REMARK    6  A    between atoms: C_23  and  C_24
REMARK    7  A    between atoms: C_24  and  C_25
REMARK    8  A    between atoms: C_24  and  C_26
REMARK    9  A    between atoms: C_24  and  O_27
REMARK                            x       y       z     vdW  Elec       q    Type
REMARK                         _______ _______ _______ _____ _____    ______ ____
ROOT
ATOM      1  C   UNL     1       0.610   2.856 -24.490  0.00  0.00    +0.146 C 
ATOM      2  C   UNL     1      -0.619   3.070 -24.341  0.00  0.00    +0.159 C 
ATOM      3  O   UNL     1      -1.913   3.550 -24.968  0.00  0.00    -0.452 OA
ATOM      4  C   UNL     1      -3.093   3.498 -24.035  0.00  0.00    +0.174 A 
ATOM      5  C   UNL     1      -4.339   3.715 -23.883  0.00  0.00    +0.162 A 
ATOM      6  C   UNL     1      -4.886   3.467 -22.762  0.00  0.00    +0.050 A 
ATOM      7  C   UNL     1      -4.208   3.012 -21.808  0.00  0.00    +0.008 A 
ATOM      8  C   UNL     1      -2.977   2.799 -21.963  0.00  0.00    -0.034 A 
ATOM      9  C   UNL     1      -2.279   2.335 -20.991  0.00  0.00    +0.094 C 
ATOM     10  C   UNL     1      -1.050   2.122 -21.144  0.00  0.00    +0.096 C 
ATOM     11  C   UNL     1      -0.499   2.368 -22.263  0.00  0.00    -0.007 C 
ATOM     12  C   UNL     1       0.743   2.153 -22.417  0.00  0.00    -0.007 C 
ATOM     13  N   UNL     1       0.354   1.845 -21.213  0.00  0.00    +0.239 N 
ATOM     14  H   UNL     1       0.878   1.475 -20.419  0.00  0.00    +0.204 HD
ATOM     15  C   UNL     1       0.983   1.389 -20.225  0.00  0.00    +0.191 C 
ATOM     16  C   UNL     1       0.999   2.108 -22.447  0.00  0.00    +0.133 C 
ATOM     17  C   UNL     1       0.207   2.622 -23.506  0.00  0.00    +0.075 C 
ATOM     18  C   UNL     1      -2.410   3.038 -23.068  0.00  0.00    +0.020 A 
ATOM     19  C   UNL     1      -1.182   2.824 -23.216  0.00  0.00    +0.091 C 
ATOM     20  C   UNL     1       1.294   2.395 -23.522  0.00  0.00    +0.112 C 
ENDROOT
BRANCH  20  21
ATOM     21  C   UNL     1       2.526   2.180 -23.670  0.00  0.00    +0.074 C 
ATOM     22  C   UNL     1       3.364   3.036 -23.290  0.00  0.00    +0.042 C 
ATOM     23  C   UNL     1       3.463   1.438 -24.062  0.00  0.00    +0.042 C 
BRANCH  21  24
ATOM     24  O   UNL     1       2.269   1.067 -24.196  0.00  0.00    -0.388 OA
ATOM     25  H   UNL     1       2.241   1.164 -25.161  0.00  0.00    +0.210 HD
ENDBRANCH  21  24
ENDBRANCH  20  21
BRANCH   1  27
ATOM     26  C   UNL     1       1.168   4.268 -26.053  0.00  0.00    +0.276 C 
ATOM     27  O   UNL     1       1.163   3.097 -25.594  0.00  0.00    -0.495 OA
ENDBRANCH   1  27
BRANCH   5  28
ATOM     28  O   UNL     1      -5.022   4.170 -24.835  0.00  0.00    -0.491 OA
ATOM     29  C   UNL     1      -5.181   3.488 -25.878  0.00  0.00    +0.277 C 
ENDBRANCH   5  28
TORSDOF 4
ENDMDL
