MODEL 1
REMARK VINA RESULT:   -10.545      0.000      0.000
REMARK INTER + INTRA:         -11.254
REMARK INTER:                 -11.128
REMARK INTRA:                  -0.127
REMARK UNBOUND:                -0.093
REMARK  Name = COc1ccc2c(c1)[C@]13CCN(C)[C@@H](C2)[C@H]1CCC(=O)C3                   ZINC000100393861
REMARK  3 active torsions:
REMARK  status: ('A' for Active; 'I' for Inactive)
REMARK    1  A    between atoms: C_1  and  O_2
REMARK    2  A    between atoms: O_2  and  C_3
REMARK    3  A    between atoms: N_12  and  C_13
REMARK                            x       y       z     vdW  Elec       q    Type
REMARK                         _______ _______ _______ _____ _____    ______ ____
ROOT
ATOM      1  C   UNL     1      -0.362   2.244 -22.968  0.00  0.00    +0.120 A 
ATOM      2  C   UNL     1      -0.597   2.298 -21.726  0.00  0.00    +0.046 A 
ATOM      3  C   UNL     1      -1.744   2.677 -21.338  0.00  0.00    +0.008 A 
ATOM      4  C   UNL     1      -2.754   3.040 -22.339  0.00  0.00    -0.038 A 
ATOM      5  C   UNL     1      -2.486   2.971 -23.361  0.00  0.00    -0.033 A 
ATOM      6  C   UNL     1      -2.981   3.155 -24.153  0.00  0.00    +0.015 C 
ATOM      7  C   UNL     1      -1.953   2.780 -22.869  0.00  0.00    +0.063 C 
ATOM      8  C   UNL     1      -2.443   2.917 -21.490  0.00  0.00    +0.132 C 
ATOM      9  N   UNL     1      -3.543   3.285 -21.307  0.00  0.00    +0.236 N 
ATOM     10  H   UNL     1      -4.491   3.610 -21.500  0.00  0.00    +0.203 HD
ATOM     11  C   UNL     1      -4.526   3.643 -22.501  0.00  0.00    +0.072 C 
ATOM     12  C   UNL     1      -3.404   3.209 -19.921  0.00  0.00    +0.190 C 
ATOM     13  C   UNL     1      -2.664   3.074 -25.366  0.00  0.00    +0.086 C 
ATOM     14  C   UNL     1      -3.534   3.387 -26.274  0.00  0.00    +0.134 C 
ATOM     15  O   UNL     1      -3.215   3.305 -27.517  0.00  0.00    -0.297 OA
ATOM     16  C   UNL     1      -4.743   3.789 -25.952  0.00  0.00    +0.075 C 
ATOM     17  C   UNL     1      -5.105   3.886 -24.712  0.00  0.00    +0.017 C 
ATOM     18  C   UNL     1      -4.294   3.592 -23.797  0.00  0.00    +0.049 C 
ATOM     19  C   UNL     1      -3.899   3.419 -21.945  0.00  0.00    +0.090 C 
ATOM     20  C   UNL     1      -1.295   2.577 -23.797  0.00  0.00    +0.050 A 
ENDROOT
BRANCH   1  22
ATOM     21  C   UNL     1       1.514   2.516 -24.517  0.00  0.00    +0.277 C 
ATOM     22  O   UNL     1       0.768   1.878 -23.726  0.00  0.00    -0.495 OA
ENDBRANCH   1  22
TORSDOF 1
ENDMDL
