MODEL 1
REMARK VINA RESULT:   -12.876      0.000      0.000
REMARK INTER + INTRA:         -13.252
REMARK INTER:                 -13.252
REMARK INTRA:                   0.000
REMARK UNBOUND:                 0.000
REMARK  Name = ZINC000013408699
REMARK  3 active torsions:
REMARK  status: ('A' for Active; 'I' for Inactive)
REMARK    1  A    between atoms: C_1  and  C_2
REMARK    2  A    between atoms: C_2  and  C_3
REMARK    3  A    between atoms: C_20  and  O_21
REMARK                            x       y       z     vdW  Elec       q    Type
REMARK                         _______ _______ _______ _____ _____    ______ ____
ROOT
ATOM      1  C   UNL     1      -5.955   3.360 -22.132  0.00  0.00    +0.055 C 
ATOM      2  C   UNL     1      -4.762   3.268 -22.640  0.00  0.00    +0.105 C 
ATOM      3  C   UNL     1      -4.538   2.790 -21.452  0.00  0.00    +0.052 C 
ATOM      4  C   UNL     1      -3.343   2.398 -21.124  0.00  0.00    +0.043 C 
ATOM      5  C   UNL     1      -2.372   2.483 -21.984  0.00  0.00    -0.005 A 
ATOM      6  C   UNL     1      -1.177   2.090 -21.655  0.00  0.00    +0.022 A 
ATOM      7  C   UNL     1      -0.206   2.175 -22.516  0.00  0.00    +0.061 A 
ATOM      8  C   UNL     1      -0.430   2.653 -23.704  0.00  0.00    +0.146 A 
ATOM      9  O   UNL     1       0.542   2.738 -24.564  0.00  0.00    -0.421 OA
ATOM     10  C   UNL     1       1.737   2.345 -24.235  0.00  0.00    +0.349 A 
ATOM     11  C   UNL     1       1.961   1.867 -23.047  0.00  0.00    +0.113 A 
ATOM     12  C   UNL     1       3.040   1.416 -22.481  0.00  0.00    +0.035 A 
ATOM     13  C   UNL     1       4.260   1.289 -22.910  0.00  0.00    +0.016 A 
ATOM     14  C   UNL     1       5.176   0.798 -22.129  0.00  0.00    +0.046 A 
ATOM     15  C   UNL     1       4.872   0.433 -20.919  0.00  0.00    +0.120 A 
ATOM     16  C   UNL     1       3.652   0.560 -20.490  0.00  0.00    +0.092 A 
ATOM     17  C   UNL     1       2.735   1.051 -21.271  0.00  0.00    +0.140 A 
ATOM     18  O   UNL     1       1.468   1.278 -21.089  0.00  0.00    -0.454 OA
ATOM     19  O   UNL     1       2.707   2.431 -25.096  0.00  0.00    -0.244 OA
ATOM     20  C   UNL     1      -1.625   3.046 -24.032  0.00  0.00    +0.093 A 
ATOM     21  C   UNL     1       0.989   1.782 -22.187  0.00  0.00    +0.154 A 
ATOM     22  C   UNL     1      -2.595   2.961 -23.172  0.00  0.00    +0.128 A 
ATOM     23  C   UNL     1      -5.400   3.778 -23.651  0.00  0.00    +0.055 C 
ATOM     24  O   UNL     1      -3.790   3.354 -23.500  0.00  0.00    -0.486 OA
ENDROOT
BRANCH  15  25
ATOM     25  O   UNL     1       5.788  -0.058 -20.138  0.00  0.00    -0.507 OA
ATOM     26  H   UNL     1       5.557  -0.377 -19.288  0.00  0.00    +0.292 HD
ENDBRANCH  15  25
TORSDOF 1
ENDMDL
