MODEL 1
REMARK VINA RESULT:   -12.098      0.000      0.000
REMARK INTER + INTRA:         -12.452
REMARK INTER:                 -12.452
REMARK INTRA:                   0.000
REMARK UNBOUND:                 0.000
REMARK  Name = C[C@]12CC[C@@H]3[C@H](CC(=O)[C@H]4C[C@@H](O)CC[C@@]43C)[C@@H]1CCC2=O ZINC000253504578
REMARK  3 active torsions:
REMARK  status: ('A' for Active; 'I' for Inactive)
REMARK    1  A    between atoms: C_1  and  C_2
REMARK    2  A    between atoms: C_12  and  O_13
REMARK    3  A    between atoms: C_16  and  C_17
REMARK                            x       y       z     vdW  Elec       q    Type
REMARK                         _______ _______ _______ _____ _____    ______ ____
ROOT
ATOM      1  C   UNL     1      -4.855   2.880 -21.663  0.00  0.00    +0.019 C 
ATOM      2  C   UNL     1      -3.991   3.152 -22.594  0.00  0.00    +0.029 C 
ATOM      3  C   UNL     1      -3.485   2.539 -21.566  0.00  0.00    +0.015 C 
ATOM      4  C   UNL     1      -2.216   2.255 -21.537  0.00  0.00    +0.005 C 
ATOM      5  C   UNL     1      -1.454   2.583 -22.538  0.00  0.00    -0.001 C 
ATOM      6  C   UNL     1      -1.960   3.196 -23.566  0.00  0.00    +0.004 C 
ATOM      7  C   UNL     1      -1.198   3.525 -24.567  0.00  0.00    +0.078 C 
ATOM      8  C   UNL     1       0.070   3.241 -24.539  0.00  0.00    +0.137 C 
ATOM      9  C   UNL     1       0.576   2.628 -23.510  0.00  0.00    +0.064 C 
ATOM     10  C   UNL     1       1.844   2.343 -23.482  0.00  0.00    +0.043 C 
ATOM     11  C   UNL     1       2.350   1.731 -22.453  0.00  0.00    +0.115 C 
ATOM     12  C   UNL     1       1.588   1.402 -21.452  0.00  0.00    +0.032 C 
ATOM     13  C   UNL     1       0.320   1.686 -21.480  0.00  0.00    +0.010 C 
ATOM     14  O   UNL     1       0.833   3.569 -25.539  0.00  0.00    -0.297 OA
ATOM     15  C   UNL     1      -0.186   2.299 -22.510  0.00  0.00    -0.019 C 
ATOM     16  C   UNL     1      -0.948   1.971 -21.509  0.00  0.00    +0.012 C 
ATOM     17  C   UNL     1      -5.200   3.543 -22.866  0.00  0.00    +0.139 C 
ATOM     18  O   UNL     1      -6.242   3.391 -22.103  0.00  0.00    -0.297 OA
ATOM     19  C   UNL     1      -5.186   4.114 -24.034  0.00  0.00    +0.075 C 
ATOM     20  C   UNL     1      -3.967   4.075 -24.484  0.00  0.00    +0.012 C 
ATOM     21  C   UNL     1      -3.229   3.481 -23.595  0.00  0.00    +0.006 C 
ENDROOT
BRANCH  11  22
ATOM     22  O   UNL     1       3.619   1.446 -22.424  0.00  0.00    -0.392 OA
ATOM     23  H   UNL     1       3.813   0.918 -21.634  0.00  0.00    +0.210 HD
ENDBRANCH  11  22
TORSDOF 1
ENDMDL
