MODEL 1
REMARK VINA RESULT:    -6.902      0.000      0.000
REMARK INTER + INTRA:          -7.643
REMARK INTER:                  -7.704
REMARK INTRA:                   0.062
REMARK UNBOUND:                 0.066
REMARK  Name = ZINC000000073686
REMARK  4 active torsions:
REMARK  status: ('A' for Active; 'I' for Inactive)
REMARK    1  A    between atoms: C_1  and  N_2
REMARK    2  A    between atoms: N_2  and  C_3
REMARK    3  A    between atoms: N_2  and  C_4
REMARK    4  A    between atoms: C_4  and  C_5
REMARK                            x       y       z     vdW  Elec       q    Type
REMARK                         _______ _______ _______ _____ _____    ______ ____
ROOT
ATOM      1  C   UNL     1      -2.393   3.427 -24.385  0.00  0.00    +0.022 A 
ATOM      2  C   UNL     1      -2.990   3.937 -25.422  0.00  0.00    +0.092 A 
ATOM      3  N   UNL     1      -4.241   4.117 -25.119  0.00  0.00    -0.360 N 
ATOM      4  H   UNL     1      -4.933   4.490 -25.712  0.00  0.00    +0.165 HD
ATOM      5  C   UNL     1      -4.418   3.719 -23.894  0.00  0.00    +0.047 A 
ATOM      6  C   UNL     1      -5.471   3.689 -23.132  0.00  0.00    +0.026 A 
ATOM      7  C   UNL     1      -5.384   3.233 -21.919  0.00  0.00    +0.002 A 
ATOM      8  C   UNL     1      -4.243   2.807 -21.466  0.00  0.00    +0.001 A 
ATOM      9  C   UNL     1      -3.189   2.837 -22.226  0.00  0.00    +0.010 A 
ATOM     10  C   UNL     1      -3.276   3.293 -23.441  0.00  0.00    +0.008 A 
ENDROOT
BRANCH   1  11
ATOM     11  C   UNL     1      -1.136   3.109 -24.307  0.00  0.00    +0.169 C 
BRANCH  11  13
ATOM     12  C   UNL     1       0.681   4.039 -25.258  0.00  0.00    +0.190 C 
ATOM     13  N   UNL     1      -0.228   4.039 -24.329  0.00  0.00    +0.234 N 
ATOM     14  H   UNL     1       0.533   4.705 -24.458  0.00  0.00    +0.203 HD
ATOM     15  C   UNL     1      -0.228   4.970 -23.422  0.00  0.00    +0.190 C 
ENDBRANCH  11  13
ENDBRANCH   1  11
TORSDOF 2
ENDMDL
