MODEL 1
REMARK VINA RESULT:   -10.333      0.000      0.000
REMARK INTER + INTRA:         -10.333
REMARK INTER:                 -10.333
REMARK INTRA:                   0.000
REMARK UNBOUND:                 0.000
REMARK  Name = C[C@@H]1CC[C@@H]2[C@@H](C)C(=O)O[C@H]3O[C@]4(C)CC[C@H]1[C@]32OO4     ZINC000100065748
REMARK  3 active torsions:
REMARK  status: ('A' for Active; 'I' for Inactive)
REMARK    1  A    between atoms: C_1  and  C_2
REMARK    2  A    between atoms: C_6  and  C_7
REMARK    3  A    between atoms: C_13  and  C_14
REMARK                            x       y       z     vdW  Elec       q    Type
REMARK                         _______ _______ _______ _____ _____    ______ ____
ROOT
ATOM      1  C   UNL     1      -5.730   3.387 -22.121  0.00  0.00    +0.008 C 
ATOM      2  C   UNL     1      -4.464   3.051 -22.105  0.00  0.00    -0.008 C 
ATOM      3  C   UNL     1      -3.894   2.699 -20.979  0.00  0.00    +0.004 C 
ATOM      4  C   UNL     1      -2.613   2.359 -20.962  0.00  0.00    +0.008 C 
ATOM      5  C   UNL     1      -1.916   2.375 -22.071  0.00  0.00    +0.044 C 
ATOM      6  C   UNL     1      -0.650   2.039 -22.055  0.00  0.00    +0.101 C 
ATOM      7  C   UNL     1       0.061   2.051 -23.163  0.00  0.00    +0.313 C 
ATOM      8  O   UNL     1      -0.523   2.409 -24.305  0.00  0.00    -0.432 OA
ATOM      9  C   UNL     1      -1.788   2.745 -24.322  0.00  0.00    +0.349 C 
ATOM     10  O   UNL     1      -2.058   3.040 -25.570  0.00  0.00    -0.305 OA
ATOM     11  C   UNL     1      -3.218   3.436 -26.073  0.00  0.00    +0.204 C 
ATOM     12  C   UNL     1      -4.351   3.620 -25.442  0.00  0.00    +0.068 C 
ATOM     13  C   UNL     1      -4.611   3.458 -24.154  0.00  0.00    +0.012 C 
ATOM     14  C   UNL     1      -3.234   3.674 -27.378  0.00  0.00    +0.077 C 
ATOM     15  O   UNL     1      -3.682   3.364 -24.993  0.00  0.00    -0.199 OA
ATOM     16  O   UNL     1      -3.406   3.090 -23.871  0.00  0.00    -0.218 OA
ATOM     17  O   UNL     1       1.334   1.712 -23.143  0.00  0.00    -0.250 OA
ATOM     18  C   UNL     1      -0.087   1.688 -20.925  0.00  0.00    +0.019 C 
ATOM     19  C   UNL     1      -2.486   2.727 -23.197  0.00  0.00    +0.173 C 
ATOM     20  C   UNL     1      -3.767   3.067 -23.214  0.00  0.00    +0.034 C 
ENDROOT
TORSDOF 0
ENDMDL
