MODEL 1
REMARK VINA RESULT:    -8.852      0.000      0.000
REMARK INTER + INTRA:         -17.281
REMARK INTER:                 -15.682
REMARK INTRA:                  -1.599
REMARK UNBOUND:                -1.701
REMARK  Name = CCCCCCCCCCCC1=C(O)C(=O)C=C(Nc2ccc(NC(C)=O)cc2)C1=O                   ZINC000100393407
REMARK  15 active torsions:
REMARK  status: ('A' for Active; 'I' for Inactive)
REMARK    1  A    between atoms: C_1  and  C_2
REMARK    2  A    between atoms: C_2  and  C_3
REMARK    3  A    between atoms: C_3  and  C_4
REMARK    4  A    between atoms: C_4  and  C_5
REMARK    5  A    between atoms: C_5  and  C_6
REMARK    6  A    between atoms: C_6  and  C_7
REMARK    7  A    between atoms: C_7  and  C_8
REMARK    8  A    between atoms: C_8  and  C_9
REMARK    9  A    between atoms: C_9  and  C_10
REMARK   10  A    between atoms: C_10  and  C_11
REMARK   11  A    between atoms: C_11  and  C_12
REMARK   12  A    between atoms: C_18  and  N_19
REMARK   13  A    between atoms: N_19  and  C_20
REMARK   14  A    between atoms: C_23  and  N_24
REMARK   15  A    between atoms: C_25  and  C_26
REMARK                            x       y       z     vdW  Elec       q    Type
REMARK                         _______ _______ _______ _____ _____    ______ ____
ROOT
ATOM      1  C   UNL     1      -0.650   2.814 -22.435  0.00  0.00    -0.008 C 
ATOM      2  C   UNL     1      -0.568   4.013 -22.931  0.00  0.00    +0.228 C 
ATOM      3  C   UNL     1       0.545   4.420 -23.466  0.00  0.00    +0.227 C 
ATOM      4  C   UNL     1       1.575   3.628 -23.505  0.00  0.00    +0.077 C 
ATOM      5  C   UNL     1       1.493   2.429 -23.009  0.00  0.00    +0.022 C 
ATOM      6  O   UNL     1       0.627   5.618 -23.963  0.00  0.00    -0.284 OA
ATOM      7  O   UNL     1      -1.598   4.804 -22.892  0.00  0.00    -0.284 OA
ATOM      8  C   UNL     1       0.381   2.022 -22.474  0.00  0.00    -0.112 C 
ATOM      9  O   UNL     1       0.298   0.824 -21.977  0.00  0.00    -0.828 OA
ENDROOT
BRANCH   5  10
ATOM     10  N   UNL     1       2.524   1.638 -23.048  0.00  0.00    -0.315 N 
ATOM     11  H   UNL     1       2.425   0.717 -23.381  0.00  0.00    +0.152 HD
BRANCH  10  12
ATOM     12  C   UNL     1       3.685   2.063 -22.646  0.00  0.00    +0.031 A 
ATOM     13  C   UNL     1       4.052   1.882 -21.412  0.00  0.00    +0.025 A 
ATOM     14  C   UNL     1       5.213   2.307 -21.011  0.00  0.00    +0.025 A 
ATOM     15  C   UNL     1       6.007   2.912 -21.842  0.00  0.00    +0.033 A 
ATOM     16  C   UNL     1       5.640   3.093 -23.077  0.00  0.00    +0.025 A 
ATOM     17  C   UNL     1       4.479   2.668 -23.479  0.00  0.00    +0.025 A 
BRANCH  15  18
ATOM     18  N   UNL     1       7.169   3.337 -21.441  0.00  0.00    -0.286 N 
ATOM     19  H   UNL     1       7.945   2.733 -21.456  0.00  0.00    +0.155 HD
ATOM     20  C   UNL     1       7.304   4.560 -21.020  0.00  0.00    +0.214 C 
ATOM     21  O   UNL     1       6.278   5.358 -21.000  0.00  0.00    -0.276 OA
ATOM     22  C   UNL     1       8.465   4.984 -20.619  0.00  0.00    +0.109 C 
ENDBRANCH  15  18
ENDBRANCH  10  12
ENDBRANCH   5  10
BRANCH   1  23
ATOM     23  C   UNL     1      -1.762   2.407 -21.900  0.00  0.00    +0.038 C 
BRANCH  23  24
ATOM     24  C   UNL     1      -2.170   2.921 -20.778  0.00  0.00    +0.005 C 
BRANCH  24  25
ATOM     25  C   UNL     1      -3.441   3.110 -20.574  0.00  0.00    +0.000 C 
BRANCH  25  26
ATOM     26  C   UNL     1      -4.308   2.275 -21.063  0.00  0.00    +0.000 C 
BRANCH  26  27
ATOM     27  C   UNL     1      -5.461   2.706 -21.481  0.00  0.00    +0.000 C 
BRANCH  27  28
ATOM     28  C   UNL     1      -5.518   3.608 -22.416  0.00  0.00    +0.000 C 
BRANCH  28  29
ATOM     29  C   UNL     1      -4.882   3.426 -23.535  0.00  0.00    -0.000 C 
BRANCH  29  30
ATOM     30  C   UNL     1      -4.900   4.349 -24.450  0.00  0.00    -0.000 C 
BRANCH  30  31
ATOM     31  C   UNL     1      -3.986   4.366 -25.374  0.00  0.00    -0.000 C 
BRANCH  31  33
ATOM     32  C   UNL     1      -2.109   3.436 -26.199  0.00  0.00    +0.004 C 
ATOM     33  C   UNL     1      -3.240   3.319 -25.570  0.00  0.00    -0.003 C 
ENDBRANCH  31  33
ENDBRANCH  30  31
ENDBRANCH  29  30
ENDBRANCH  28  29
ENDBRANCH  27  28
ENDBRANCH  26  27
ENDBRANCH  25  26
ENDBRANCH  24  25
ENDBRANCH  23  24
ENDBRANCH   1  23
TORSDOF 13
ENDMDL
