MODEL 1
REMARK VINA RESULT:   -10.579      0.000      0.000
REMARK INTER + INTRA:         -10.842
REMARK INTER:                 -11.965
REMARK INTRA:                   1.123
REMARK UNBOUND:                 0.974
REMARK  Name = COC1=C[C@]2(C)Oc3c(OC)ccc4c3[C@@]23CCN(C)[C@@H](C4)C3=C1             ZINC000253504984
REMARK  6 active torsions:
REMARK  status: ('A' for Active; 'I' for Inactive)
REMARK    1  A    between atoms: C_1  and  O_2
REMARK    2  A    between atoms: O_2  and  C_3
REMARK    3  A    between atoms: C_5  and  C_6
REMARK    4  A    between atoms: C_9  and  O_10
REMARK    5  A    between atoms: O_10  and  C_11
REMARK    6  A    between atoms: N_19  and  C_20
REMARK                            x       y       z     vdW  Elec       q    Type
REMARK                         _______ _______ _______ _____ _____    ______ ____
ROOT
ATOM      1  C   UNL     1       0.552   2.235 -22.480  0.00  0.00    +0.120 C 
ATOM      2  C   UNL     1      -0.423   2.223 -21.671  0.00  0.00    +0.066 C 
ATOM      3  C   UNL     1      -1.558   2.581 -22.060  0.00  0.00    +0.143 C 
ATOM      4  O   UNL     1      -3.011   2.800 -21.701  0.00  0.00    -0.477 OA
ATOM      5  C   UNL     1      -3.842   3.304 -22.847  0.00  0.00    +0.168 A 
ATOM      6  C   UNL     1      -4.992   3.668 -23.241  0.00  0.00    +0.162 A 
ATOM      7  C   UNL     1      -5.152   4.039 -24.442  0.00  0.00    +0.050 A 
ATOM      8  C   UNL     1      -4.185   4.050 -25.239  0.00  0.00    +0.008 A 
ATOM      9  C   UNL     1      -3.048   3.690 -24.847  0.00  0.00    -0.034 A 
ATOM     10  C   UNL     1      -2.061   3.699 -25.653  0.00  0.00    +0.094 C 
ATOM     11  C   UNL     1      -0.928   3.340 -25.262  0.00  0.00    +0.097 C 
ATOM     12  C   UNL     1      -0.764   2.967 -24.061  0.00  0.00    -0.003 C 
ATOM     13  N   UNL     1       0.402   2.951 -24.918  0.00  0.00    +0.239 N 
ATOM     14  H   UNL     1       1.167   2.971 -25.592  0.00  0.00    +0.204 HD
ATOM     15  C   UNL     1       1.331   2.981 -25.756  0.00  0.00    +0.191 C 
ATOM     16  C   UNL     1       0.619   2.530 -23.587  0.00  0.00    +0.133 C 
ATOM     17  C   UNL     1      -0.490   2.529 -22.711  0.00  0.00    +0.071 C 
ATOM     18  C   UNL     1      -2.869   3.316 -23.655  0.00  0.00    +0.016 A 
ATOM     19  C   UNL     1      -1.678   2.269 -20.851  0.00  0.00    +0.062 C 
ATOM     20  C   UNL     1      -1.732   2.957 -23.266  0.00  0.00    +0.074 C 
ATOM     21  C   UNL     1       0.384   2.604 -23.666  0.00  0.00    +0.051 C 
ENDROOT
BRANCH   1  23
ATOM     22  C   UNL     1       2.149   0.765 -22.442  0.00  0.00    +0.277 C 
ATOM     23  O   UNL     1       1.688   1.877 -22.094  0.00  0.00    -0.495 OA
ENDBRANCH   1  23
BRANCH   6  24
ATOM     24  O   UNL     1      -5.962   3.659 -22.448  0.00  0.00    -0.491 OA
ATOM     25  C   UNL     1      -6.173   2.657 -21.726  0.00  0.00    +0.277 C 
ENDBRANCH   6  24
TORSDOF 2
ENDMDL
