MODEL 1
REMARK VINA RESULT:    -8.044      0.000      0.000
REMARK INTER + INTRA:          -8.279
REMARK INTER:                  -8.279
REMARK INTRA:                   0.000
REMARK UNBOUND:                 0.000
REMARK  Name = O[C@H]1CCN2Cc3ccccc3N=C12                                            ZINC000100051847
REMARK  1 active torsions:
REMARK  status: ('A' for Active; 'I' for Inactive)
REMARK    1  A    between atoms: O_1  and  C_2
REMARK                            x       y       z     vdW  Elec       q    Type
REMARK                         _______ _______ _______ _____ _____    ______ ____
ROOT
ATOM      1  C   UNL     1       0.187   2.074 -23.264  0.00  0.00    +0.233 C 
ATOM      2  C   UNL     1       0.673   1.608 -22.152  0.00  0.00    +0.087 C 
ATOM      3  C   UNL     1      -0.274   1.623 -21.262  0.00  0.00    +0.229 C 
ATOM      4  N   UNL     1      -1.346   2.099 -21.823  0.00  0.00    -0.218 N 
ATOM      5  C   UNL     1      -2.544   2.314 -21.368  0.00  0.00    +0.266 C 
ATOM      6  C   UNL     1      -3.457   2.808 -22.150  0.00  0.00    +0.042 A 
ATOM      7  C   UNL     1      -4.656   3.024 -21.694  0.00  0.00    +0.011 A 
ATOM      8  C   UNL     1      -5.569   3.518 -22.477  0.00  0.00    +0.001 A 
ATOM      9  C   UNL     1      -5.284   3.796 -23.714  0.00  0.00    +0.004 A 
ATOM     10  C   UNL     1      -4.086   3.581 -24.169  0.00  0.00    +0.056 A 
ATOM     11  C   UNL     1      -3.173   3.087 -23.387  0.00  0.00    +0.183 A 
ATOM     12  N   UNL     1      -1.974   2.871 -23.843  0.00  0.00    -0.043 NA
ATOM     13  C   UNL     1      -1.061   2.377 -23.061  0.00  0.00    +0.318 C 
ENDROOT
BRANCH   1  14
ATOM     14  O   UNL     1       0.835   2.212 -24.382  0.00  0.00    -0.380 OA
ATOM     15  H   UNL     1       0.203   2.301 -25.113  0.00  0.00    +0.211 HD
ENDBRANCH   1  14
TORSDOF 1
ENDMDL
