MODEL 1
REMARK VINA RESULT:   -11.109      0.000      0.000
REMARK INTER + INTRA:         -11.758
REMARK INTER:                 -11.758
REMARK INTRA:                   0.000
REMARK UNBOUND:                 0.000
REMARK  Name = C[C@]12CC[C@@H]3c4cc(Br)c(O)cc4CC[C@@H]3[C@H]1CC[C@@H]2O             ZINC000105156018
REMARK  3 active torsions:
REMARK  status: ('A' for Active; 'I' for Inactive)
REMARK    1  A    between atoms: C_1  and  C_2
REMARK    2  A    between atoms: C_10  and  O_11
REMARK    3  A    between atoms: C_20  and  O_21
REMARK                            x       y       z     vdW  Elec       q    Type
REMARK                         _______ _______ _______ _____ _____    ______ ____
ROOT
ATOM      1  C   UNL     1      -4.571   3.064 -21.820  0.00  0.00    +0.014 C 
ATOM      2  C   UNL     1      -3.841   3.300 -22.869  0.00  0.00    -0.003 C 
ATOM      3  C   UNL     1      -3.183   2.788 -21.871  0.00  0.00    +0.010 C 
ATOM      4  C   UNL     1      -1.908   2.559 -21.981  0.00  0.00    +0.009 C 
ATOM      5  C   UNL     1      -1.291   2.842 -23.090  0.00  0.00    +0.023 C 
ATOM      6  C   UNL     1      -0.016   2.613 -23.200  0.00  0.00    -0.040 A 
ATOM      7  C   UNL     1       0.641   2.101 -22.203  0.00  0.00    +0.023 A 
ATOM      8  C   UNL     1       1.917   1.872 -22.312  0.00  0.00    +0.060 A 
ATOM      9  C   UNL     1       2.534   2.155 -23.422  0.00  0.00    +0.131 A 
ATOM     10  C   UNL     1       1.876   2.666 -24.420  0.00  0.00    +0.050 A 
ATOM     11 BR   UNL     1       2.574   1.361 -21.315  0.00  0.00    -0.047 Br
ATOM     12  C   UNL     1       0.602   2.895 -24.309  0.00  0.00    -0.040 A 
ATOM     13  C   UNL     1      -0.056   3.407 -25.307  0.00  0.00    +0.036 C 
ATOM     14  C   UNL     1      -1.331   3.636 -25.197  0.00  0.00    +0.009 C 
ATOM     15  C   UNL     1      -1.948   3.353 -24.089  0.00  0.00    +0.000 C 
ATOM     16  C   UNL     1      -5.092   3.619 -23.013  0.00  0.00    +0.121 C 
ATOM     17  C   UNL     1      -5.249   4.099 -24.212  0.00  0.00    +0.032 C 
ATOM     18  C   UNL     1      -4.093   4.076 -24.808  0.00  0.00    +0.007 C 
ATOM     19  C   UNL     1      -3.223   3.582 -23.978  0.00  0.00    +0.001 C 
ENDROOT
BRANCH   9  20
ATOM     20  O   UNL     1       3.809   1.925 -23.532  0.00  0.00    -0.506 OA
ATOM     21  H   UNL     1       4.180   1.732 -24.370  0.00  0.00    +0.292 HD
ENDBRANCH   9  20
BRANCH  16  22
ATOM     22  O   UNL     1      -6.024   3.483 -22.118  0.00  0.00    -0.391 OA
ATOM     23  H   UNL     1      -6.237   2.542 -22.013  0.00  0.00    +0.210 HD
ENDBRANCH  16  22
TORSDOF 2
ENDMDL
