MODEL 1
REMARK VINA RESULT:    -9.691      0.000      0.000
REMARK INTER + INTRA:         -13.639
REMARK INTER:                 -12.764
REMARK INTRA:                  -0.875
REMARK UNBOUND:                -0.832
REMARK  Name = ZINC000004257487
REMARK  7 active torsions:
REMARK  status: ('A' for Active; 'I' for Inactive)
REMARK    1  A    between atoms: O5*_1  and  C5*_2
REMARK    2  A    between atoms: C5*_2  and  C4*_3
REMARK    3  A    between atoms: C1*_5  and  N_6
REMARK    4  A    between atoms: N_11  and  C_12
REMARK    5  A    between atoms: C_12  and  C_13
REMARK    6  A    between atoms: C2*_23  and  O2*_24
REMARK    7  A    between atoms: C3*_25  and  O3*_26
REMARK                            x       y       z     vdW  Elec       q    Type
REMARK                         _______ _______ _______ _____ _____    ______ ____
ROOT
ATOM      1  N   UNL     1       3.172   2.395 -23.063  0.00  0.00    -0.286 N 
ATOM      2  C   UNL     1       2.671   1.196 -23.047  0.00  0.00    +0.203 A 
ATOM      3  N   UNL     1       1.402   1.286 -23.320  0.00  0.00    -0.231 NA
ATOM      4  C   UNL     1       1.120   2.542 -23.504  0.00  0.00    +0.147 A 
ATOM      5  C   UNL     1       0.008   3.150 -23.796  0.00  0.00    +0.150 A 
ATOM      6  N   UNL     1      -0.010   4.443 -23.929  0.00  0.00    -0.219 NA
ATOM      7  C   UNL     1       1.083   5.128 -23.771  0.00  0.00    +0.225 A 
ATOM      8  N   UNL     1       2.195   4.520 -23.479  0.00  0.00    -0.216 NA
ATOM      9  N   UNL     1      -1.085   2.464 -23.955  0.00  0.00    -0.323 N 
ATOM     10  H   UNL     1      -1.071   1.485 -23.854  0.00  0.00    +0.148 HD
ATOM     11  C   UNL     1       2.213   3.227 -23.346  0.00  0.00    +0.167 A 
ENDROOT
BRANCH   1  14
ATOM     12  C4* UNL     1       6.419   3.270 -23.127  0.00  0.00    +0.177 C 
ATOM     13  O4* UNL     1       5.298   3.021 -23.736  0.00  0.00    -0.346 OA
ATOM     14  C1* UNL     1       4.413   2.709 -22.836  0.00  0.00    +0.253 C 
ATOM     15  C2* UNL     1       4.987   2.765 -21.672  0.00  0.00    +0.195 C 
ATOM     16  C3* UNL     1       6.227   3.112 -21.851  0.00  0.00    +0.178 C 
BRANCH  15  17
ATOM     17  O2* UNL     1       4.420   2.518 -20.528  0.00  0.00    -0.385 OA
ATOM     18  H2* UNL     1       4.779   3.115 -19.854  0.00  0.00    +0.210 HD
ENDBRANCH  15  17
BRANCH  16  19
ATOM     19  O3* UNL     1       7.118   3.273 -20.918  0.00  0.00    -0.386 OA
ATOM     20  H3* UNL     1       6.979   2.611 -20.222  0.00  0.00    +0.210 HD
ENDBRANCH  16  19
BRANCH  12  21
ATOM     21  C5* UNL     1       7.536   3.617 -23.694  0.00  0.00    +0.190 C 
BRANCH  21  22
ATOM     22  O5* UNL     1       8.615   2.923 -23.483  0.00  0.00    -0.392 OA
ATOM     23  H5* UNL     1       8.884   2.485 -24.306  0.00  0.00    +0.210 HD
ENDBRANCH  21  22
ENDBRANCH  12  21
ENDBRANCH   1  14
BRANCH   9  24
ATOM     24  C   UNL     1      -2.196   3.072 -24.246  0.00  0.00    +0.138 C 
BRANCH  24  25
ATOM     25  C   UNL     1      -3.174   3.086 -23.390  0.00  0.00    -0.030 A 
ATOM     26  C   UNL     1      -4.334   3.558 -23.735  0.00  0.00    +0.005 A 
ATOM     27  C   UNL     1      -5.312   3.571 -22.879  0.00  0.00    +0.000 A 
ATOM     28  C   UNL     1      -5.129   3.113 -21.676  0.00  0.00    +0.000 A 
ATOM     29  C   UNL     1      -3.968   2.641 -21.330  0.00  0.00    +0.000 A 
ATOM     30  C   UNL     1      -2.990   2.627 -22.186  0.00  0.00    +0.005 A 
ENDBRANCH  24  25
ENDBRANCH   9  24
TORSDOF 7
ENDMDL
