MODEL 1
REMARK VINA RESULT:   -10.213      0.000      0.000
REMARK INTER + INTRA:         -10.213
REMARK INTER:                 -10.213
REMARK INTRA:                   0.000
REMARK UNBOUND:                 0.000
REMARK  Name = C=C1C(=O)O[C@@H]2C[C@]3(C)CCC[C@H](C)[C@]34O[C@@H]4[C@H]12           ZINC000105344684
REMARK  2 active torsions:
REMARK  status: ('A' for Active; 'I' for Inactive)
REMARK    1  A    between atoms: C_8  and  C_9
REMARK    2  A    between atoms: C_13  and  C_14
REMARK                            x       y       z     vdW  Elec       q    Type
REMARK                         _______ _______ _______ _____ _____    ______ ____
ROOT
ATOM      1  C   UNL     1       0.981   2.661 -24.218  0.00  0.00    +0.020 C 
ATOM      2  C   UNL     1       0.277   2.407 -23.154  0.00  0.00    +0.039 C 
ATOM      3  C   UNL     1       0.721   1.879 -22.052  0.00  0.00    +0.335 C 
ATOM      4  O   UNL     1      -0.275   1.782 -21.224  0.00  0.00    -0.457 OA
ATOM      5  C   UNL     1      -1.336   2.250 -21.813  0.00  0.00    +0.188 C 
ATOM      6  C   UNL     1      -2.567   2.374 -21.418  0.00  0.00    +0.055 C 
ATOM      7  C   UNL     1      -3.458   2.884 -22.216  0.00  0.00    +0.003 C 
ATOM      8  C   UNL     1      -4.690   3.008 -21.820  0.00  0.00    +0.010 C 
ATOM      9  C   UNL     1      -5.581   3.518 -22.618  0.00  0.00    +0.001 C 
ATOM     10  C   UNL     1      -5.239   3.905 -23.811  0.00  0.00    +0.006 C 
ATOM     11  C   UNL     1      -4.007   3.781 -24.207  0.00  0.00    +0.021 C 
ATOM     12  C   UNL     1      -3.665   4.167 -25.400  0.00  0.00    +0.010 C 
ATOM     13  C   UNL     1      -3.799   2.498 -21.023  0.00  0.00    +0.014 C 
ATOM     14  C   UNL     1      -3.116   3.270 -23.409  0.00  0.00    +0.105 C 
ATOM     15  O   UNL     1      -2.774   3.657 -24.603  0.00  0.00    -0.363 OA
ATOM     16  C   UNL     1      -1.884   3.146 -23.805  0.00  0.00    +0.163 C 
ATOM     17  O   UNL     1       1.946   1.513 -21.820  0.00  0.00    -0.245 OA
ATOM     18  C   UNL     1      -0.994   2.636 -23.006  0.00  0.00    +0.098 C 
ENDROOT
TORSDOF 0
ENDMDL
