MODEL 1
REMARK VINA RESULT:    -8.920      0.000      0.000
REMARK INTER + INTRA:         -11.266
REMARK INTER:                 -11.152
REMARK INTRA:                  -0.114
REMARK UNBOUND:                 0.001
REMARK  Name = ZINC000003871710
REMARK  8 active torsions:
REMARK  status: ('A' for Active; 'I' for Inactive)
REMARK    1  A    between atoms: C_1  and  O_2
REMARK    2  A    between atoms: O_2  and  C_3
REMARK    3  A    between atoms: C_4  and  O_5
REMARK    4  A    between atoms: C_9  and  O_10
REMARK    5  A    between atoms: C_13  and  C_14
REMARK    6  A    between atoms: C_14  and  O_15
REMARK    7  A    between atoms: C_16  and  O_17
REMARK    8  A    between atoms: C_18  and  O_19
REMARK                            x       y       z     vdW  Elec       q    Type
REMARK                         _______ _______ _______ _____ _____    ______ ____
ROOT
ATOM      1  C   UNL     1      -2.727   3.758 -25.190  0.00  0.00    +0.203 A 
ATOM      2  C   UNL     1      -3.669   3.915 -24.308  0.00  0.00    +0.163 A 
ATOM      3  C   UNL     1      -3.466   3.567 -23.072  0.00  0.00    +0.064 A 
ATOM      4  C   UNL     1      -2.322   3.062 -22.719  0.00  0.00    +0.072 A 
ATOM      5  C   UNL     1      -1.380   2.905 -23.600  0.00  0.00    +0.044 A 
ATOM      6  C   UNL     1      -0.235   2.400 -23.247  0.00  0.00    +0.196 C 
ATOM      7  O   UNL     1       0.706   2.243 -24.129  0.00  0.00    -0.360 OA
ATOM      8  C   UNL     1       1.851   1.738 -23.775  0.00  0.00    +0.175 C 
ATOM      9  C   UNL     1       2.054   1.390 -22.539  0.00  0.00    +0.178 C 
ATOM     10  C   UNL     1       1.112   1.547 -21.657  0.00  0.00    +0.189 C 
ATOM     11  C   UNL     1      -0.033   2.052 -22.011  0.00  0.00    +0.241 C 
ATOM     12  O   UNL     1      -0.975   2.209 -21.128  0.00  0.00    -0.452 OA
ATOM     13  C   UNL     1      -2.119   2.714 -21.482  0.00  0.00    +0.340 C 
ATOM     14  O   UNL     1      -3.061   2.871 -20.600  0.00  0.00    -0.245 OA
ATOM     15  C   UNL     1      -1.582   3.253 -24.836  0.00  0.00    +0.169 A 
ENDROOT
BRANCH   1  17
ATOM     16  C   UNL     1      -3.526   3.289 -27.242  0.00  0.00    +0.277 C 
ATOM     17  O   UNL     1      -2.929   4.107 -26.426  0.00  0.00    -0.489 OA
ENDBRANCH   1  17
BRANCH  10  18
ATOM     18  O   UNL     1       1.314   1.198 -20.421  0.00  0.00    -0.385 OA
ATOM     19  H   UNL     1       1.470   0.242 -20.376  0.00  0.00    +0.210 HD
ENDBRANCH  10  18
BRANCH   9  20
ATOM     20  O   UNL     1       3.198   0.885 -22.186  0.00  0.00    -0.386 OA
ATOM     21  H   UNL     1       3.916   1.429 -22.544  0.00  0.00    +0.210 HD
ENDBRANCH   9  20
BRANCH  15  22
ATOM     22  O   UNL     1      -0.640   3.097 -25.719  0.00  0.00    -0.503 OA
ATOM     23  H   UNL     1       0.247   2.978 -25.441  0.00  0.00    +0.292 HD
ENDBRANCH  15  22
BRANCH   2  24
ATOM     24  O   UNL     1      -4.813   4.420 -24.662  0.00  0.00    -0.503 OA
ATOM     25  H   UNL     1      -4.900   4.849 -25.491  0.00  0.00    +0.292 HD
ENDBRANCH   2  24
BRANCH   8  26
ATOM     26  C   UNL     1       2.793   1.581 -24.657  0.00  0.00    +0.190 C 
BRANCH  26  27
ATOM     27  O   UNL     1       3.071   0.393 -25.107  0.00  0.00    -0.392 OA
ATOM     28  H   UNL     1       2.492  -0.258 -24.680  0.00  0.00    +0.210 HD
ENDBRANCH  26  27
ENDBRANCH   8  26
TORSDOF 7
ENDMDL
