MODEL 1
REMARK VINA RESULT:    -8.627      0.000      0.000
REMARK INTER + INTRA:         -10.328
REMARK INTER:                 -10.057
REMARK INTRA:                  -0.271
REMARK UNBOUND:                -0.187
REMARK  Name = ZINC000014650529
REMARK  5 active torsions:
REMARK  status: ('A' for Active; 'I' for Inactive)
REMARK    1  A    between atoms: C_2  and  C_3
REMARK    2  A    between atoms: C_2  and  C_4
REMARK    3  A    between atoms: C_6  and  C_7
REMARK    4  A    between atoms: C_8  and  O_9
REMARK    5  A    between atoms: O_9  and  C_10
REMARK                            x       y       z     vdW  Elec       q    Type
REMARK                         _______ _______ _______ _____ _____    ______ ____
ROOT
ATOM      1  C   UNL     1      -0.421   2.787 -23.314  0.00  0.00    +0.068 A 
ATOM      2  C   UNL     1      -1.051   3.202 -24.373  0.00  0.00    +0.129 A 
ATOM      3  C   UNL     1      -0.387   3.728 -25.360  0.00  0.00    +0.047 A 
ATOM      4  C   UNL     1       0.906   3.839 -25.287  0.00  0.00    +0.015 A 
ATOM      5  C   UNL     1       1.535   3.424 -24.228  0.00  0.00    +0.018 A 
ATOM      6  C   UNL     1       2.828   3.536 -24.156  0.00  0.00    +0.018 A 
ATOM      7  C   UNL     1       3.458   3.121 -23.096  0.00  0.00    +0.092 A 
ATOM      8  C   UNL     1       2.794   2.595 -22.110  0.00  0.00    +0.337 A 
ATOM      9  O   UNL     1       1.501   2.484 -22.183  0.00  0.00    -0.422 OA
ATOM     10  O   UNL     1       3.424   2.180 -21.051  0.00  0.00    -0.245 OA
ATOM     11  C   UNL     1       0.871   2.899 -23.242  0.00  0.00    +0.148 A 
ENDROOT
BRANCH   1  14
ATOM     12  C   UNL     1      -2.069   2.311 -21.479  0.00  0.00    +0.178 C 
ATOM     13  O   UNL     1      -1.251   1.301 -21.467  0.00  0.00    -0.358 OA
ATOM     14  C   UNL     1      -1.085   2.262 -22.328  0.00  0.00    +0.189 C 
BRANCH  12  16
ATOM     15  C   UNL     1      -4.294   2.661 -21.466  0.00  0.00    +0.010 C 
ATOM     16  C   UNL     1      -3.109   2.922 -20.996  0.00  0.00    -0.049 C 
ATOM     17  C   UNL     1      -2.966   3.795 -20.043  0.00  0.00    +0.041 C 
ENDBRANCH  12  16
ENDBRANCH   1  14
BRANCH   2  18
ATOM     18  O   UNL     1      -2.345   3.091 -24.445  0.00  0.00    -0.495 OA
ATOM     19  C   UNL     1      -3.065   4.108 -24.814  0.00  0.00    +0.277 C 
ENDBRANCH   2  18
TORSDOF 3
ENDMDL
