MODEL 1
REMARK VINA RESULT:   -12.096      0.000      0.000
REMARK INTER + INTRA:         -12.449
REMARK INTER:                 -12.449
REMARK INTRA:                   0.000
REMARK UNBOUND:                 0.000
REMARK  Name = C[C@]12CC[C@@H]3[C@H](CC(=O)[C@@H]4C[C@@H](O)CC[C@@]43C)[C@H]1CCC2=O ZINC000253504580
REMARK  3 active torsions:
REMARK  status: ('A' for Active; 'I' for Inactive)
REMARK    1  A    between atoms: C_1  and  C_2
REMARK    2  A    between atoms: C_12  and  O_13
REMARK    3  A    between atoms: C_16  and  C_17
REMARK                            x       y       z     vdW  Elec       q    Type
REMARK                         _______ _______ _______ _____ _____    ______ ____
ROOT
ATOM      1  C   UNL     1      -4.845   2.882 -21.641  0.00  0.00    +0.019 C 
ATOM      2  C   UNL     1      -3.989   3.158 -22.580  0.00  0.00    +0.029 C 
ATOM      3  C   UNL     1      -3.471   2.550 -21.554  0.00  0.00    +0.015 C 
ATOM      4  C   UNL     1      -2.201   2.273 -21.536  0.00  0.00    +0.005 C 
ATOM      5  C   UNL     1      -1.449   2.605 -22.543  0.00  0.00    -0.001 C 
ATOM      6  C   UNL     1      -1.967   3.213 -23.569  0.00  0.00    +0.004 C 
ATOM      7  C   UNL     1      -1.215   3.545 -24.576  0.00  0.00    +0.078 C 
ATOM      8  C   UNL     1       0.055   3.268 -24.558  0.00  0.00    +0.137 C 
ATOM      9  C   UNL     1       0.573   2.660 -23.532  0.00  0.00    +0.064 C 
ATOM     10  C   UNL     1       1.843   2.384 -23.513  0.00  0.00    +0.043 C 
ATOM     11  C   UNL     1       2.361   1.776 -22.488  0.00  0.00    +0.115 C 
ATOM     12  C   UNL     1       1.609   1.444 -21.480  0.00  0.00    +0.032 C 
ATOM     13  C   UNL     1       0.339   1.721 -21.498  0.00  0.00    +0.010 C 
ATOM     14  O   UNL     1       0.807   3.600 -25.565  0.00  0.00    -0.297 OA
ATOM     15  C   UNL     1      -0.179   2.329 -22.525  0.00  0.00    -0.019 C 
ATOM     16  C   UNL     1      -0.931   1.997 -21.517  0.00  0.00    +0.012 C 
ATOM     17  C   UNL     1      -5.203   3.541 -22.842  0.00  0.00    +0.139 C 
ATOM     18  O   UNL     1      -6.238   3.384 -22.071  0.00  0.00    -0.297 OA
ATOM     19  C   UNL     1      -5.202   4.109 -24.012  0.00  0.00    +0.075 C 
ATOM     20  C   UNL     1      -3.987   4.077 -24.472  0.00  0.00    +0.012 C 
ATOM     21  C   UNL     1      -3.237   3.489 -23.587  0.00  0.00    +0.006 C 
ENDROOT
BRANCH  11  22
ATOM     22  O   UNL     1       3.632   1.499 -22.469  0.00  0.00    -0.392 OA
ATOM     23  H   UNL     1       3.805   0.825 -21.793  0.00  0.00    +0.210 HD
ENDBRANCH  11  22
TORSDOF 1
ENDMDL
