MODEL 1
REMARK VINA RESULT:    -7.759      0.000      0.000
REMARK INTER + INTRA:         -15.326
REMARK INTER:                 -13.200
REMARK INTRA:                  -2.126
REMARK UNBOUND:                -2.123
REMARK  Name = ZINC000038143715
REMARK  13 active torsions:
REMARK  status: ('A' for Active; 'I' for Inactive)
REMARK    1  A    between atoms: C_1  and  C_2
REMARK    2  A    between atoms: C_2  and  C_3
REMARK    3  A    between atoms: C_3  and  C_4
REMARK    4  A    between atoms: C_4  and  C_5
REMARK    5  A    between atoms: C_5  and  C_6
REMARK    6  A    between atoms: C_6  and  C_7
REMARK    7  A    between atoms: C_7  and  C_8
REMARK    8  A    between atoms: C_8  and  C_9
REMARK    9  A    between atoms: C_9  and  C_10
REMARK   10  A    between atoms: C_10  and  C_11
REMARK   11  A    between atoms: C_11  and  C_12
REMARK   12  A    between atoms: C_12  and  C_13
REMARK   13  A    between atoms: C_13  and  C_14
REMARK                            x       y       z     vdW  Elec       q    Type
REMARK                         _______ _______ _______ _____ _____    ______ ____
ROOT
ATOM      1  C   UNL     1      -0.734   1.377 -21.649  0.00  0.00    +0.005 C 
ENDROOT
BRANCH   1   2
ATOM      2  C   UNL     1      -1.936   1.872 -21.635  0.00  0.00    +0.000 C 
BRANCH   2   3
ATOM      3  C   UNL     1      -2.244   2.809 -20.788  0.00  0.00    +0.000 C 
BRANCH   3   4
ATOM      4  C   UNL     1      -3.460   3.264 -20.734  0.00  0.00    +0.000 C 
BRANCH   4   5
ATOM      5  C   UNL     1      -4.458   2.485 -21.029  0.00  0.00    +0.000 C 
BRANCH   5   6
ATOM      6  C   UNL     1      -5.356   2.875 -21.885  0.00  0.00    -0.000 C 
BRANCH   6   7
ATOM      7  C   UNL     1      -5.123   3.898 -22.651  0.00  0.00    -0.000 C 
BRANCH   7   8
ATOM      8  C   UNL     1      -5.285   3.797 -23.937  0.00  0.00    -0.000 C 
BRANCH   8   9
ATOM      9  C   UNL     1      -4.258   3.587 -24.707  0.00  0.00    -0.000 C 
BRANCH   9  10
ATOM     10  C   UNL     1      -3.316   4.478 -24.793  0.00  0.00    -0.000 C 
BRANCH  10  12
ATOM     11  C   UNL     1      -1.418   4.828 -23.632  0.00  0.00    +0.004 C 
ATOM     12  C   UNL     1      -2.088   4.154 -24.521  0.00  0.00    -0.003 C 
ENDBRANCH  10  12
ENDBRANCH   9  10
ENDBRANCH   8   9
ENDBRANCH   7   8
ENDBRANCH   6   7
ENDBRANCH   5   6
ENDBRANCH   4   5
ENDBRANCH   3   4
ENDBRANCH   2   3
ENDBRANCH   1   2
BRANCH   1  13
ATOM     13  C   UNL     1       0.294   2.169 -21.711  0.00  0.00    +0.038 C 
BRANCH  13  14
ATOM     14  C   UNL     1       1.465   1.692 -22.011  0.00  0.00    -0.011 C 
ATOM     15  C   UNL     1       1.857   1.662 -23.250  0.00  0.00    +0.169 C 
ATOM     16  C   UNL     1       3.029   1.184 -23.550  0.00  0.00    -0.089 C 
ATOM     17  C   UNL     1       3.808   0.737 -22.611  0.00  0.00    +0.039 C 
ATOM     18  C   UNL     1       3.416   0.767 -21.372  0.00  0.00    +0.166 C 
ATOM     19  O   UNL     1       4.196   0.319 -20.432  0.00  0.00    -0.289 OA
ATOM     20  O   UNL     1       3.420   1.153 -24.789  0.00  0.00    -0.826 OA
ATOM     21  O   UNL     1       1.077   2.109 -24.190  0.00  0.00    -0.289 OA
ATOM     22  C   UNL     1       2.245   1.244 -21.072  0.00  0.00    -0.086 C 
ATOM     23  O   UNL     1       1.854   1.275 -19.832  0.00  0.00    -0.826 OA
ENDBRANCH  13  14
ENDBRANCH   1  13
TORSDOF 12
ENDMDL
