MODEL 1
REMARK VINA RESULT:    -9.361      0.000      0.000
REMARK INTER + INTRA:         -10.335
REMARK INTER:                  -9.899
REMARK INTRA:                  -0.436
REMARK UNBOUND:                -0.427
REMARK  Name = ZINC000000057674
REMARK  1 active torsions:
REMARK  status: ('A' for Active; 'I' for Inactive)
REMARK    1  A    between atoms: C_4  and  C_5
REMARK                            x       y       z     vdW  Elec       q    Type
REMARK                         _______ _______ _______ _____ _____    ______ ____
ROOT
ATOM      1  O   UNL     1      -3.991   4.877 -25.278  0.00  0.00    -0.287 OA
ATOM      2  C   UNL     1      -3.343   4.327 -24.297  0.00  0.00    +0.193 A 
ATOM      3  C   UNL     1      -2.043   4.334 -24.290  0.00  0.00    +0.098 A 
ATOM      4  C   UNL     1      -1.394   3.783 -23.308  0.00  0.00    +0.139 A 
ATOM      5  O   UNL     1      -2.045   3.224 -22.331  0.00  0.00    -0.455 OA
ATOM      6  C   UNL     1      -3.344   3.216 -22.337  0.00  0.00    +0.139 A 
ATOM      7  C   UNL     1      -3.996   2.657 -21.361  0.00  0.00    +0.047 A 
ATOM      8  C   UNL     1      -5.296   2.649 -21.367  0.00  0.00    +0.004 A 
ATOM      9  C   UNL     1      -5.945   3.200 -22.349  0.00  0.00    +0.001 A 
ATOM     10  C   UNL     1      -5.294   3.759 -23.326  0.00  0.00    +0.015 A 
ATOM     11  C   UNL     1      -3.993   3.767 -23.320  0.00  0.00    +0.064 A 
ENDROOT
BRANCH   4  12
ATOM     12  C   UNL     1      -0.094   3.791 -23.302  0.00  0.00    +0.017 A 
ATOM     13  C   UNL     1       0.549   4.876 -23.615  0.00  0.00    +0.011 A 
ATOM     14  C   UNL     1       1.850   4.885 -23.610  0.00  0.00    +0.001 A 
ATOM     15  C   UNL     1       2.506   3.809 -23.292  0.00  0.00    +0.000 A 
ATOM     16  C   UNL     1       1.862   2.724 -22.979  0.00  0.00    +0.001 A 
ATOM     17  C   UNL     1       0.562   2.715 -22.984  0.00  0.00    +0.011 A 
ENDBRANCH   4  12
TORSDOF 1
ENDMDL
