MODEL 1
REMARK VINA RESULT:   -11.679      0.000      0.000
REMARK INTER + INTRA:          -8.200
REMARK INTER:                 -11.016
REMARK INTRA:                   2.816
REMARK UNBOUND:                 5.527
REMARK  Name = COC1=CC=C2[C@@H]3Cc4ccc(OC)c(Oc5ccccc5)c4[C@]2(CCN3C)C1              ZINC000096316423
REMARK  7 active torsions:
REMARK  status: ('A' for Active; 'I' for Inactive)
REMARK    1  A    between atoms: C_1  and  O_2
REMARK    2  A    between atoms: O_2  and  C_3
REMARK    3  A    between atoms: C_12  and  O_13
REMARK    4  A    between atoms: O_13  and  C_14
REMARK    5  A    between atoms: C_15  and  O_16
REMARK    6  A    between atoms: O_16  and  C_17
REMARK    7  A    between atoms: N_27  and  C_28
REMARK                            x       y       z     vdW  Elec       q    Type
REMARK                         _______ _______ _______ _____ _____    ______ ____
ROOT
ATOM      1  C   UNL     1      -2.995   2.871 -22.184  0.00  0.00    +0.098 C 
ATOM      2  C   UNL     1      -4.032   3.022 -22.621  0.00  0.00    +0.041 C 
ATOM      3  C   UNL     1      -4.116   3.211 -23.621  0.00  0.00    +0.009 C 
ATOM      4  C   UNL     1      -2.876   3.301 -24.578  0.00  0.00    -0.011 C 
ATOM      5  C   UNL     1      -3.553   3.454 -25.158  0.00  0.00    +0.096 C 
ATOM      6  C   UNL     1      -4.230   3.364 -24.416  0.00  0.00    +0.094 C 
ATOM      7  C   UNL     1      -3.304   3.071 -23.159  0.00  0.00    -0.034 A 
ATOM      8  C   UNL     1      -3.398   2.779 -21.532  0.00  0.00    +0.008 A 
ATOM      9  C   UNL     1      -2.302   2.580 -20.854  0.00  0.00    +0.050 A 
ATOM     10  C   UNL     1      -1.124   2.609 -21.454  0.00  0.00    +0.162 A 
ATOM     11  C   UNL     1      -1.019   2.839 -22.747  0.00  0.00    +0.174 A 
ATOM     12  C   UNL     1      -2.141   3.059 -23.529  0.00  0.00    +0.013 A 
ATOM     13  N   UNL     1      -3.132   3.649 -26.381  0.00  0.00    +0.239 N 
ATOM     14  H   UNL     1      -4.149   3.727 -26.423  0.00  0.00    +0.204 HD
ATOM     15  C   UNL     1      -3.832   3.882 -27.389  0.00  0.00    +0.191 C 
ATOM     16  C   UNL     1      -1.789   3.588 -26.547  0.00  0.00    +0.133 C 
ATOM     17  C   UNL     1      -1.088   3.340 -25.457  0.00  0.00    +0.067 C 
ATOM     18  C   UNL     1      -1.784   3.196 -24.412  0.00  0.00    +0.038 C 
ATOM     19  C   UNL     1      -1.757   2.924 -22.934  0.00  0.00    +0.090 C 
ENDROOT
BRANCH   1  21
ATOM     20  C   UNL     1      -6.316   2.998 -21.966  0.00  0.00    +0.276 C 
ATOM     21  O   UNL     1      -5.148   3.011 -22.143  0.00  0.00    -0.499 OA
ENDBRANCH   1  21
BRANCH  10  22
ATOM     22  O   UNL     1       0.055   2.412 -20.818  0.00  0.00    -0.491 OA
ATOM     23  C   UNL     1       0.536   1.260 -20.551  0.00  0.00    +0.277 C 
ENDBRANCH  10  22
BRANCH  11  24
ATOM     24  O   UNL     1       0.052   2.870 -23.316  0.00  0.00    -0.452 OA
BRANCH  24  25
ATOM     25  C   UNL     1       1.059   2.777 -23.623  0.00  0.00    +0.129 A 
ATOM     26  C   UNL     1       1.445   3.944 -23.254  0.00  0.00    +0.046 A 
ATOM     27  C   UNL     1       2.663   4.307 -23.432  0.00  0.00    +0.004 A 
ATOM     28  C   UNL     1       3.499   3.499 -23.982  0.00  0.00    +0.000 A 
ATOM     29  C   UNL     1       3.119   2.329 -24.353  0.00  0.00    +0.004 A 
ATOM     30  C   UNL     1       1.898   1.969 -24.173  0.00  0.00    +0.046 A 
ENDBRANCH  24  25
ENDBRANCH  11  24
TORSDOF 4
ENDMDL
