MODEL 1
REMARK VINA RESULT:    -9.634      0.000      0.000
REMARK INTER + INTRA:         -10.597
REMARK INTER:                 -10.498
REMARK INTRA:                  -0.099
REMARK UNBOUND:                -0.119
REMARK  Name = ZINC000000338130
REMARK  4 active torsions:
REMARK  status: ('A' for Active; 'I' for Inactive)
REMARK    1  A    between atoms: C_1  and  O_2
REMARK    2  A    between atoms: O_2  and  C_3
REMARK    3  A    between atoms: C_8  and  O_9
REMARK    4  A    between atoms: N_18  and  C_19
REMARK                            x       y       z     vdW  Elec       q    Type
REMARK                         _______ _______ _______ _____ _____    ______ ____
ROOT
ATOM      1  C   UNL     1      -3.042   3.787 -25.688  0.00  0.00    +0.162 A 
ATOM      2  C   UNL     1      -4.146   3.858 -25.004  0.00  0.00    +0.053 A 
ATOM      3  C   UNL     1      -4.159   3.505 -23.753  0.00  0.00    -0.030 A 
ATOM      4  C   UNL     1      -3.070   3.080 -23.186  0.00  0.00    +0.015 A 
ATOM      5  C   UNL     1      -1.965   3.009 -23.870  0.00  0.00    +0.036 A 
ATOM      6  C   UNL     1      -0.876   2.585 -23.303  0.00  0.00    -0.010 A 
ATOM      7  C   UNL     1       0.227   2.514 -23.986  0.00  0.00    +0.009 A 
ATOM      8  C   UNL     1       1.318   2.089 -23.418  0.00  0.00    +0.001 A 
ATOM      9  C   UNL     1       1.304   1.736 -22.167  0.00  0.00    +0.000 A 
ATOM     10  C   UNL     1       0.200   1.807 -21.484  0.00  0.00    +0.004 A 
ATOM     11  C   UNL     1      -0.890   2.231 -22.052  0.00  0.00    -0.034 A 
ATOM     12  C   UNL     1      -1.993   2.302 -21.368  0.00  0.00    +0.095 C 
ATOM     13  C   UNL     1      -3.083   2.727 -21.935  0.00  0.00    +0.101 C 
ATOM     14  N   UNL     1      -4.186   2.798 -21.251  0.00  0.00    +0.239 N 
ATOM     15  H   UNL     1      -4.062   2.493 -20.286  0.00  0.00    +0.204 HD
ATOM     16  C   UNL     1      -5.277   3.223 -21.820  0.00  0.00    +0.136 C 
ATOM     17  C   UNL     1      -4.200   2.444 -20.000  0.00  0.00    +0.191 C 
ATOM     18  C   UNL     1      -5.262   3.576 -23.071  0.00  0.00    +0.086 C 
ATOM     19  C   UNL     1      -1.952   3.363 -25.121  0.00  0.00    +0.167 A 
ENDROOT
BRANCH   1  21
ATOM     20  C   UNL     1      -3.607   3.392 -27.832  0.00  0.00    +0.277 C 
ATOM     21  O   UNL     1      -3.029   4.141 -26.939  0.00  0.00    -0.491 OA
ENDBRANCH   1  21
BRANCH  19  22
ATOM     22  O   UNL     1      -0.849   3.292 -25.805  0.00  0.00    -0.503 OA
ATOM     23  H   UNL     1      -0.402   2.473 -25.890  0.00  0.00    +0.292 HD
ENDBRANCH  19  22
TORSDOF 2
ENDMDL
