MODEL 1
REMARK VINA RESULT:    -9.762      0.000      0.000
REMARK INTER + INTRA:         -10.047
REMARK INTER:                 -10.047
REMARK INTRA:                   0.000
REMARK UNBOUND:                 0.000
REMARK  Name = ZINC000004104918
REMARK  1 active torsions:
REMARK  status: ('A' for Active; 'I' for Inactive)
REMARK    1  A    between atoms: C_7  and  O_8
REMARK                            x       y       z     vdW  Elec       q    Type
REMARK                         _______ _______ _______ _____ _____    ______ ____
ROOT
ATOM      1  O   UNL     1      -3.194   2.520 -20.612  0.00  0.00    -0.287 OA
ATOM      2  C   UNL     1      -2.754   2.661 -21.827  0.00  0.00    +0.195 C 
ATOM      3  C   UNL     1      -1.518   2.375 -22.108  0.00  0.00    +0.037 A 
ATOM      4  C   UNL     1      -0.721   1.948 -21.173  0.00  0.00    +0.012 A 
ATOM      5  C   UNL     1       0.516   1.662 -21.455  0.00  0.00    +0.004 A 
ATOM      6  C   UNL     1       0.955   1.803 -22.669  0.00  0.00    +0.046 A 
ATOM      7  C   UNL     1       0.159   2.230 -23.603  0.00  0.00    +0.128 A 
ATOM      8  C   UNL     1      -1.078   2.516 -23.323  0.00  0.00    +0.074 A 
ATOM      9  C   UNL     1      -1.875   2.943 -24.257  0.00  0.00    +0.199 C 
ATOM     10  C   UNL     1      -3.111   3.229 -23.976  0.00  0.00    +0.047 A 
ATOM     11  C   UNL     1      -3.908   3.656 -24.911  0.00  0.00    +0.029 A 
ATOM     12  C   UNL     1      -5.144   3.942 -24.630  0.00  0.00    +0.016 A 
ATOM     13  C   UNL     1      -5.584   3.802 -23.415  0.00  0.00    +0.002 A 
ATOM     14  C   UNL     1      -4.788   3.375 -22.481  0.00  0.00    +0.012 A 
ATOM     15 BR   UNL     1      -3.467   3.797 -26.126  0.00  0.00    -0.050 Br
ATOM     16  O   UNL     1      -1.435   3.084 -25.472  0.00  0.00    -0.286 OA
ATOM     17  C   UNL     1      -3.551   3.088 -22.761  0.00  0.00    +0.034 A 
ENDROOT
BRANCH   7  18
ATOM     18  O   UNL     1       0.599   2.370 -24.819  0.00  0.00    -0.506 OA
ATOM     19  H   UNL     1       1.105   1.689 -25.215  0.00  0.00    +0.292 HD
ENDBRANCH   7  18
TORSDOF 1
ENDMDL
