MODEL 1
REMARK VINA RESULT:    -9.824      0.000      0.000
REMARK INTER + INTRA:         -10.111
REMARK INTER:                 -10.111
REMARK INTRA:                   0.000
REMARK UNBOUND:                 0.000
REMARK  Name = C[C@@H]1CC[C@@H]2[C@@H]1[C@@H]1[C@@H](CC[C@]2(C)O)C1(C)C             ZINC000239274937
REMARK  5 active torsions:
REMARK  status: ('A' for Active; 'I' for Inactive)
REMARK    1  A    between atoms: C_1  and  C_2
REMARK    2  A    between atoms: C_11  and  C_12
REMARK    3  A    between atoms: C_11  and  O_13
REMARK    4  A    between atoms: C_14  and  C_15
REMARK    5  A    between atoms: C_14  and  C_16
REMARK                            x       y       z     vdW  Elec       q    Type
REMARK                         _______ _______ _______ _____ _____    ______ ____
ROOT
ATOM      1  C   UNL     1      -1.453   3.734 -25.506  0.00  0.00    +0.008 C 
ATOM      2  C   UNL     1      -2.636   3.778 -24.970  0.00  0.00    -0.010 C 
ATOM      3  C   UNL     1      -3.709   4.258 -25.526  0.00  0.00    +0.004 C 
ATOM      4  C   UNL     1      -4.691   4.127 -24.684  0.00  0.00    +0.007 C 
ATOM      5  C   UNL     1      -4.225   3.568 -23.607  0.00  0.00    +0.024 C 
ATOM      6  C   UNL     1      -4.955   3.298 -22.567  0.00  0.00    +0.066 C 
ATOM      7  C   UNL     1      -6.066   3.267 -21.891  0.00  0.00    +0.041 C 
ATOM      8  C   UNL     1      -4.597   2.744 -21.446  0.00  0.00    +0.035 C 
ATOM      9  C   UNL     1      -3.419   2.325 -21.089  0.00  0.00    +0.007 C 
ATOM     10  C   UNL     1      -2.309   2.356 -21.765  0.00  0.00    -0.001 C 
ATOM     11  C   UNL     1      -1.119   2.302 -22.285  0.00  0.00    -0.028 C 
ATOM     12  C   UNL     1      -0.153   2.444 -23.144  0.00  0.00    +0.011 C 
ATOM     13  C   UNL     1      -0.470   1.743 -21.307  0.00  0.00    +0.011 C 
ATOM     14  C   UNL     1      -2.102   2.813 -22.964  0.00  0.00    +0.002 C 
ATOM     15  C   UNL     1      -2.955   3.353 -23.784  0.00  0.00    +0.002 C 
ENDROOT
BRANCH   6  16
ATOM     16  O   UNL     1      -5.807   3.837 -23.386  0.00  0.00    -0.389 OA
ATOM     17  H   UNL     1      -6.203   3.147 -23.942  0.00  0.00    +0.210 HD
ENDBRANCH   6  16
TORSDOF 1
ENDMDL
