MODEL 1
REMARK VINA RESULT:   -10.768      0.000      0.000
REMARK INTER + INTRA:         -12.434
REMARK INTER:                 -13.136
REMARK INTRA:                   0.702
REMARK UNBOUND:                 1.167
REMARK  Name = COCO[C@@H]1C=C2[C@H]3Cc4ccc(OC)c5c4[C@@]2(CCN3C)[C@@](C)(O5)[C@H]1O  ZINC000253505458
REMARK  9 active torsions:
REMARK  status: ('A' for Active; 'I' for Inactive)
REMARK    1  A    between atoms: C_1  and  O_2
REMARK    2  A    between atoms: O_2  and  C_3
REMARK    3  A    between atoms: C_3  and  O_4
REMARK    4  A    between atoms: O_4  and  C_5
REMARK    5  A    between atoms: C_13  and  O_14
REMARK    6  A    between atoms: O_14  and  C_15
REMARK    7  A    between atoms: N_21  and  C_22
REMARK    8  A    between atoms: C_23  and  C_24
REMARK    9  A    between atoms: C_26  and  O_27
REMARK                            x       y       z     vdW  Elec       q    Type
REMARK                         _______ _______ _______ _____ _____    ______ ____
ROOT
ATOM      1  C   UNL     1       0.987   2.173 -22.657  0.00  0.00    +0.176 C 
ATOM      2  C   UNL     1       0.620   2.686 -23.746  0.00  0.00    +0.013 C 
ATOM      3  C   UNL     1      -0.599   2.996 -23.925  0.00  0.00    -0.009 C 
ATOM      4  C   UNL     1      -0.963   3.515 -25.028  0.00  0.00    +0.096 C 
ATOM      5  C   UNL     1      -2.168   3.822 -25.207  0.00  0.00    +0.094 C 
ATOM      6  C   UNL     1      -3.025   3.613 -24.280  0.00  0.00    -0.034 A 
ATOM      7  C   UNL     1      -4.235   3.921 -24.459  0.00  0.00    +0.008 A 
ATOM      8  C   UNL     1      -5.074   3.714 -23.546  0.00  0.00    +0.050 A 
ATOM      9  C   UNL     1      -4.714   3.196 -22.443  0.00  0.00    +0.162 A 
ATOM     10  C   UNL     1      -3.492   2.886 -22.266  0.00  0.00    +0.167 A 
ATOM     11  O   UNL     1      -2.465   2.305 -21.326  0.00  0.00    -0.478 OA
ATOM     12  C   UNL     1      -1.065   2.268 -21.908  0.00  0.00    +0.150 C 
ATOM     13  C   UNL     1      -0.985   1.783 -20.750  0.00  0.00    +0.060 C 
ATOM     14  C   UNL     1      -2.646   3.096 -23.189  0.00  0.00    +0.016 A 
ATOM     15  N   UNL     1       0.431   3.202 -24.927  0.00  0.00    +0.239 N 
ATOM     16  H   UNL     1       1.086   3.383 -25.688  0.00  0.00    +0.204 HD
ATOM     17  C   UNL     1       1.226   3.431 -25.873  0.00  0.00    +0.191 C 
ATOM     18  C   UNL     1       0.872   2.623 -23.711  0.00  0.00    +0.133 C 
ATOM     19  C   UNL     1      -0.099   2.402 -22.701  0.00  0.00    +0.071 C 
ATOM     20  C   UNL     1      -1.441   2.790 -23.014  0.00  0.00    +0.072 C 
ATOM     21  C   UNL     1       0.142   1.962 -21.733  0.00  0.00    +0.192 C 
ENDROOT
BRANCH   9  22
ATOM     22  O   UNL     1      -5.557   2.992 -21.534  0.00  0.00    -0.491 OA
ATOM     23  C   UNL     1      -6.714   2.592 -21.824  0.00  0.00    +0.277 C 
ENDBRANCH   9  22
BRANCH  21  24
ATOM     24  O   UNL     1       0.512   1.448 -20.645  0.00  0.00    -0.385 OA
ATOM     25  H   UNL     1       0.994   0.627 -20.823  0.00  0.00    +0.210 HD
ENDBRANCH  21  24
BRANCH   1  26
ATOM     26  O   UNL     1       2.196   1.867 -22.485  0.00  0.00    -0.344 OA
BRANCH  26  27
ATOM     27  C   UNL     1       2.601   0.709 -22.766  0.00  0.00    +0.323 C 
BRANCH  27  29
ATOM     28  C   UNL     1       3.852   0.401 -21.007  0.00  0.00    +0.196 C 
ATOM     29  O   UNL     1       3.038  -0.044 -21.856  0.00  0.00    -0.357 OA
ENDBRANCH  27  29
ENDBRANCH  26  27
ENDBRANCH   1  26
TORSDOF 5
ENDMDL
