MODEL 1
REMARK VINA RESULT:   -11.230      0.000      0.000
REMARK INTER + INTRA:         -12.018
REMARK INTER:                 -11.881
REMARK INTRA:                  -0.137
REMARK UNBOUND:                -0.131
REMARK  Name = ZINC000096316386
REMARK  3 active torsions:
REMARK  status: ('A' for Active; 'I' for Inactive)
REMARK    1  A    between atoms: C_1  and  O_2
REMARK    2  A    between atoms: O_2  and  C_3
REMARK    3  A    between atoms: N_17  and  C_18
REMARK                            x       y       z     vdW  Elec       q    Type
REMARK                         _______ _______ _______ _____ _____    ______ ____
ROOT
ATOM      1  C   UNL     1       0.493   2.654 -23.179  0.00  0.00    +0.162 A 
ATOM      2  C   UNL     1       0.432   2.079 -22.058  0.00  0.00    +0.050 A 
ATOM      3  C   UNL     1      -0.660   1.957 -21.468  0.00  0.00    +0.008 A 
ATOM      4  C   UNL     1      -1.700   2.406 -21.992  0.00  0.00    -0.034 A 
ATOM      5  C   UNL     1      -1.664   2.982 -23.108  0.00  0.00    +0.016 A 
ATOM      6  C   UNL     1      -2.705   3.428 -23.624  0.00  0.00    +0.071 C 
ATOM      7  C   UNL     1      -3.823   3.977 -24.313  0.00  0.00    +0.071 C 
ATOM      8  C   UNL     1      -5.069   3.854 -23.672  0.00  0.00    +0.133 C 
ATOM      9  N   UNL     1      -5.098   3.207 -22.424  0.00  0.00    +0.239 N 
ATOM     10  H   UNL     1      -5.976   3.092 -21.917  0.00  0.00    +0.204 HD
ATOM     11  C   UNL     1      -6.162   3.057 -21.791  0.00  0.00    +0.191 C 
ATOM     12  C   UNL     1      -3.859   2.733 -21.917  0.00  0.00    +0.096 C 
ATOM     13  C   UNL     1      -3.800   3.308 -23.038  0.00  0.00    -0.007 C 
ATOM     14  C   UNL     1      -4.854   3.761 -23.564  0.00  0.00    +0.006 C 
ATOM     15  C   UNL     1      -4.800   4.330 -24.672  0.00  0.00    -0.000 C 
ATOM     16  C   UNL     1      -3.701   4.458 -25.274  0.00  0.00    +0.018 C 
ATOM     17  C   UNL     1      -2.660   4.009 -24.751  0.00  0.00    +0.212 C 
ATOM     18  O   UNL     1      -1.169   3.820 -24.873  0.00  0.00    -0.480 OA
ATOM     19  C   UNL     1      -2.818   2.284 -21.395  0.00  0.00    +0.094 C 
ATOM     20  C   UNL     1      -0.563   3.107 -23.705  0.00  0.00    +0.167 A 
ENDROOT
BRANCH   1  22
ATOM     21  C   UNL     1       2.398   3.651 -23.403  0.00  0.00    +0.277 C 
ATOM     22  O   UNL     1       1.588   2.774 -23.765  0.00  0.00    -0.491 OA
ENDBRANCH   1  22
TORSDOF 1
ENDMDL
