MODEL 1
REMARK VINA RESULT:    -9.119      0.000      0.000
REMARK INTER + INTRA:         -14.060
REMARK INTER:                 -13.689
REMARK INTRA:                  -0.371
REMARK UNBOUND:                 0.657
REMARK  Name = ZINC000008382291
REMARK  18 active torsions:
REMARK  status: ('A' for Active; 'I' for Inactive)
REMARK    1  A    between atoms: C_1  and  O_2
REMARK    2  A    between atoms: O_2  and  C_3
REMARK    3  A    between atoms: C_5  and  O_6
REMARK    4  A    between atoms: O_6  and  C_7
REMARK    5  A    between atoms: C_8  and  C_9
REMARK    6  A    between atoms: C_10  and  C_11
REMARK    7  A    between atoms: C_11  and  C_13
REMARK    8  A    between atoms: C_14  and  O_15
REMARK    9  A    between atoms: O_15  and  C_16
REMARK   10  A    between atoms: C_18  and  O_19
REMARK   11  A    between atoms: O_19  and  C_20
REMARK   12  A    between atoms: C_21  and  C_22
REMARK   13  A    between atoms: C_22  and  C_23
REMARK   14  A    between atoms: C_24  and  C_25
REMARK   15  A    between atoms: C_24  and  C_26
REMARK   16  A    between atoms: C_27  and  O_28
REMARK   17  A    between atoms: C_29  and  O_30
REMARK   18  A    between atoms: O_30  and  C_31
REMARK                            x       y       z     vdW  Elec       q    Type
REMARK                         _______ _______ _______ _____ _____    ______ ____
ROOT
ATOM      1  C   UNL     1      -0.231   2.643 -23.007  0.00  0.00    +0.105 A 
ATOM      2  C   UNL     1      -0.268   3.050 -24.241  0.00  0.00    +0.138 A 
ATOM      3  C   UNL     1      -1.269   3.768 -24.658  0.00  0.00    +0.092 A 
ATOM      4  C   UNL     1      -2.232   4.078 -23.841  0.00  0.00    +0.131 A 
ATOM      5  C   UNL     1      -2.194   3.671 -22.607  0.00  0.00    +0.040 A 
ATOM      6  C   UNL     1      -1.193   2.954 -22.190  0.00  0.00    +0.138 A 
ENDROOT
BRANCH   1   7
ATOM      7  C   UNL     1       0.770   1.926 -22.591  0.00  0.00    +0.193 C 
ATOM      8  O   UNL     1       0.636   0.640 -22.452  0.00  0.00    -0.287 OA
BRANCH   7  10
ATOM      9  C   UNL     1       2.966   2.205 -23.007  0.00  0.00    +0.019 C 
ATOM     10  C   UNL     1       1.906   2.494 -22.312  0.00  0.00    +0.052 C 
BRANCH   9  14
ATOM     11  C   UNL     1       6.371   3.911 -22.169  0.00  0.00    +0.127 A 
ATOM     12  C   UNL     1       5.412   4.604 -22.708  0.00  0.00    +0.092 A 
ATOM     13  C   UNL     1       4.277   4.036 -22.987  0.00  0.00    +0.134 A 
ATOM     14  C   UNL     1       4.101   2.774 -22.728  0.00  0.00    +0.059 A 
ATOM     15  C   UNL     1       5.060   2.081 -22.189  0.00  0.00    +0.134 A 
ATOM     16  C   UNL     1       6.195   2.650 -21.910  0.00  0.00    +0.092 A 
BRANCH  15  17
ATOM     17  O   UNL     1       4.884   0.819 -21.930  0.00  0.00    -0.494 OA
ATOM     18  C   UNL     1       4.949   0.392 -20.704  0.00  0.00    +0.277 C 
ENDBRANCH  15  17
BRANCH  13  19
ATOM     19  O   UNL     1       3.318   4.728 -23.526  0.00  0.00    -0.494 OA
ATOM     20  C   UNL     1       2.923   5.835 -22.970  0.00  0.00    +0.277 C 
ENDBRANCH  13  19
BRANCH  11  22
ATOM     21  C   UNL     1       7.752   4.881 -20.679  0.00  0.00    +0.277 C 
ATOM     22  O   UNL     1       7.506   4.480 -21.890  0.00  0.00    -0.495 OA
ENDBRANCH  11  22
ENDBRANCH   9  14
ENDBRANCH   7  10
ENDBRANCH   1   7
BRANCH   4  23
ATOM     23  O   UNL     1      -3.233   4.796 -24.258  0.00  0.00    -0.495 OA
ATOM     24  C   UNL     1      -3.766   4.557 -25.419  0.00  0.00    +0.277 C 
ENDBRANCH   4  23
BRANCH   2  25
ATOM     25  O   UNL     1       0.693   2.740 -25.059  0.00  0.00    -0.494 OA
ATOM     26  C   UNL     1       1.220   3.655 -25.818  0.00  0.00    +0.277 C 
ENDBRANCH   2  25
BRANCH   6  27
ATOM     27  O   UNL     1      -1.155   2.546 -20.956  0.00  0.00    -0.506 OA
ATOM     28  H   UNL     1      -0.435   2.028 -20.656  0.00  0.00    +0.292 HD
ENDBRANCH   6  27
BRANCH   5  29
ATOM     29  C   UNL     1      -3.157   3.982 -21.790  0.00  0.00    +0.069 C 
BRANCH  29  30
ATOM     30  C   UNL     1      -4.390   3.732 -22.115  0.00  0.00    -0.023 C 
ATOM     31  C   UNL     1      -5.062   2.827 -21.466  0.00  0.00    -0.079 C 
ATOM     32  C   UNL     1      -4.500   2.173 -20.493  0.00  0.00    +0.038 C 
ATOM     33  C   UNL     1      -6.295   2.577 -21.790  0.00  0.00    +0.038 C 
ENDBRANCH  29  30
ENDBRANCH   5  29
TORSDOF 11
ENDMDL
