MODEL 1
REMARK VINA RESULT:    -9.547      0.000      0.000
REMARK INTER + INTRA:          -9.826
REMARK INTER:                  -9.826
REMARK INTRA:                   0.000
REMARK UNBOUND:                 0.000
REMARK  Name = ZINC000005037446
REMARK  5 active torsions:
REMARK  status: ('A' for Active; 'I' for Inactive)
REMARK    1  A    between atoms: C_1  and  C_2
REMARK    2  A    between atoms: C_2  and  C_3
REMARK    3  A    between atoms: C_7  and  C_8
REMARK    4  A    between atoms: C_12  and  C_13
REMARK    5  A    between atoms: C_12  and  O_14
REMARK                            x       y       z     vdW  Elec       q    Type
REMARK                         _______ _______ _______ _____ _____    ______ ____
ROOT
ATOM      1  C   UNL     1       1.207   2.648 -22.870  0.00  0.00    +0.039 C 
ATOM      2  C   UNL     1       0.228   3.091 -23.601  0.00  0.00    -0.076 C 
ATOM      3  C   UNL     1      -0.988   3.065 -23.143  0.00  0.00    -0.070 C 
ATOM      4  C   UNL     1      -1.225   2.596 -21.954  0.00  0.00    +0.031 C 
ATOM      5  C   UNL     1      -2.441   2.570 -21.496  0.00  0.00    +0.011 C 
ATOM      6  C   UNL     1      -3.421   3.013 -22.227  0.00  0.00    -0.026 C 
ATOM      7  C   UNL     1      -4.637   2.987 -21.769  0.00  0.00    +0.007 C 
ATOM      8  C   UNL     1      -5.616   3.430 -22.500  0.00  0.00    +0.003 C 
ATOM      9  C   UNL     1      -5.379   3.899 -23.689  0.00  0.00    +0.035 C 
ATOM     10  C   UNL     1      -4.163   3.926 -24.147  0.00  0.00    +0.067 C 
ATOM     11  C   UNL     1      -3.167   4.130 -24.956  0.00  0.00    +0.041 C 
ATOM     12  C   UNL     1      -3.658   2.544 -21.038  0.00  0.00    +0.011 C 
ATOM     13  C   UNL     1      -3.184   3.483 -23.416  0.00  0.00    +0.030 C 
ATOM     14  C   UNL     1      -1.968   3.509 -23.875  0.00  0.00    +0.037 C 
ATOM     15  C   UNL     1       0.465   3.561 -24.790  0.00  0.00    +0.039 C 
ENDROOT
BRANCH  10  16
ATOM     16  O   UNL     1      -4.796   4.440 -25.159  0.00  0.00    -0.389 OA
ATOM     17  H   UNL     1      -4.485   4.026 -25.980  0.00  0.00    +0.210 HD
ENDBRANCH  10  16
TORSDOF 1
ENDMDL
