MODEL 1
REMARK VINA RESULT:   -10.268      0.000      0.000
REMARK INTER + INTRA:         -10.268
REMARK INTER:                 -10.268
REMARK INTRA:                   0.000
REMARK UNBOUND:                 0.000
REMARK  Name = ZINC000000338264
REMARK  0 active torsions:
REMARK  status: ('A' for Active; 'I' for Inactive)
REMARK                            x       y       z     vdW  Elec       q    Type
REMARK                         _______ _______ _______ _____ _____    ______ ____
ROOT
ATOM      1  C   UNL     1       1.118   2.204 -23.199  0.00  0.00    +0.020 C 
ATOM      2  C   UNL     1      -0.071   2.257 -22.677  0.00  0.00    +0.036 C 
ATOM      3  C   UNL     1      -0.408   1.835 -21.495  0.00  0.00    +0.335 C 
ATOM      4  O   UNL     1      -1.678   2.059 -21.334  0.00  0.00    -0.457 OA
ATOM      5  C   UNL     1      -2.127   2.619 -22.419  0.00  0.00    +0.192 C 
ATOM      6  C   UNL     1      -3.368   2.971 -22.582  0.00  0.00    +0.063 C 
ATOM      7  C   UNL     1      -4.286   2.801 -21.677  0.00  0.00    -0.069 C 
ATOM      8  C   UNL     1      -4.113   2.267 -20.504  0.00  0.00    +0.008 C 
ATOM      9  C   UNL     1      -5.406   3.257 -22.151  0.00  0.00    +0.031 C 
ATOM     10  C   UNL     1      -5.181   3.710 -23.349  0.00  0.00    +0.013 C 
ATOM     11  C   UNL     1      -3.922   3.533 -23.614  0.00  0.00    +0.025 C 
ATOM     12  C   UNL     1      -3.372   3.882 -24.740  0.00  0.00    -0.073 C 
ATOM     13  C   UNL     1      -4.167   4.430 -25.610  0.00  0.00    +0.008 C 
ATOM     14  C   UNL     1      -2.132   3.754 -25.111  0.00  0.00    +0.031 C 
ATOM     15  C   UNL     1      -1.136   3.246 -24.446  0.00  0.00    +0.016 C 
ATOM     16  O   UNL     1       0.388   1.286 -20.624  0.00  0.00    -0.245 OA
ATOM     17  C   UNL     1      -1.134   2.741 -23.249  0.00  0.00    +0.067 C 
ENDROOT
TORSDOF 0
ENDMDL
