MODEL 1
REMARK VINA RESULT:    -9.502      0.000      0.000
REMARK INTER + INTRA:         -10.336
REMARK INTER:                 -10.336
REMARK INTRA:                   0.000
REMARK UNBOUND:                 0.000
REMARK  Name = ZINC000004104721
REMARK  6 active torsions:
REMARK  status: ('A' for Active; 'I' for Inactive)
REMARK    1  A    between atoms: C_1  and  C_2
REMARK    2  A    between atoms: C_2  and  C_3
REMARK    3  A    between atoms: C_7  and  O_8
REMARK    4  A    between atoms: C_9  and  C_10
REMARK    5  A    between atoms: C_13  and  C_14
REMARK    6  A    between atoms: C_13  and  O_15
REMARK                            x       y       z     vdW  Elec       q    Type
REMARK                         _______ _______ _______ _____ _____    ______ ____
ROOT
ATOM      1  C   UNL     1      -0.317   1.871 -21.283  0.00  0.00    +0.011 C 
ATOM      2  C   UNL     1      -1.043   2.282 -22.281  0.00  0.00    -0.028 C 
ATOM      3  C   UNL     1      -2.175   2.477 -21.673  0.00  0.00    -0.001 C 
ATOM      4  C   UNL     1      -3.214   2.613 -20.905  0.00  0.00    +0.007 C 
ATOM      5  C   UNL     1      -4.408   3.016 -21.221  0.00  0.00    +0.032 C 
ATOM      6  C   UNL     1      -4.858   3.384 -22.383  0.00  0.00    +0.121 C 
ATOM      7  C   UNL     1      -4.225   3.439 -23.518  0.00  0.00    -0.000 C 
ATOM      8  C   UNL     1      -4.778   3.825 -24.629  0.00  0.00    +0.012 C 
ATOM      9  C   UNL     1      -3.879   3.764 -25.567  0.00  0.00    +0.035 C 
ATOM     10  C   UNL     1      -2.771   3.340 -25.035  0.00  0.00    +0.067 C 
ATOM     11  C   UNL     1      -2.307   3.458 -26.244  0.00  0.00    +0.041 C 
ATOM     12  C   UNL     1      -5.476   3.788 -23.493  0.00  0.00    +0.014 C 
ATOM     13  C   UNL     1      -2.985   3.139 -23.769  0.00  0.00    +0.033 C 
ATOM     14  C   UNL     1      -0.161   2.230 -23.236  0.00  0.00    +0.011 C 
ATOM     15  C   UNL     1      -2.072   2.711 -22.948  0.00  0.00    +0.005 C 
ENDROOT
BRANCH  10  16
ATOM     16  O   UNL     1      -1.566   2.941 -24.756  0.00  0.00    -0.389 OA
ATOM     17  H   UNL     1      -1.106   3.631 -24.254  0.00  0.00    +0.210 HD
ENDBRANCH  10  16
BRANCH   6  18
ATOM     18  O   UNL     1      -6.107   3.745 -22.417  0.00  0.00    -0.391 OA
ATOM     19  H   UNL     1      -6.660   2.976 -22.630  0.00  0.00    +0.210 HD
ENDBRANCH   6  18
TORSDOF 2
ENDMDL
