MODEL 1
REMARK VINA RESULT:    -8.904      0.000      0.000
REMARK INTER + INTRA:          -8.125
REMARK INTER:                 -10.450
REMARK INTRA:                   2.325
REMARK UNBOUND:                 2.341
REMARK  Name = ZINC000000323343
REMARK  4 active torsions:
REMARK  status: ('A' for Active; 'I' for Inactive)
REMARK    1  A    between atoms: C_2  and  C_3
REMARK    2  A    between atoms: C_4  and  N_5
REMARK    3  A    between atoms: C_18  and  C_19
REMARK    4  A    between atoms: C_22  and  O_23
REMARK                            x       y       z     vdW  Elec       q    Type
REMARK                         _______ _______ _______ _____ _____    ______ ____
ROOT
ATOM      1  C   UNL     1       3.018   4.563 -22.882  0.00  0.00    +0.098 C 
ATOM      2  C   UNL     1       2.233   5.503 -23.315  0.00  0.00    +0.199 C 
ATOM      3  O   UNL     1       0.994   5.234 -23.605  0.00  0.00    -0.440 OA
ATOM      4  C   UNL     1       0.541   4.024 -23.461  0.00  0.00    +0.152 A 
ATOM      5  C   UNL     1       1.327   3.083 -23.028  0.00  0.00    +0.092 A 
ATOM      6  C   UNL     1       0.874   1.873 -22.884  0.00  0.00    +0.345 A 
ATOM      7  O   UNL     1      -0.364   1.604 -23.173  0.00  0.00    -0.422 OA
ATOM      8  C   UNL     1      -1.150   2.544 -23.606  0.00  0.00    +0.143 A 
ATOM      9  C   UNL     1      -2.388   2.275 -23.896  0.00  0.00    +0.047 A 
ATOM     10  C   UNL     1      -3.174   3.216 -24.329  0.00  0.00    +0.004 A 
ATOM     11  C   UNL     1      -2.721   4.426 -24.473  0.00  0.00    +0.001 A 
ATOM     12  C   UNL     1      -1.482   4.695 -24.183  0.00  0.00    +0.015 A 
ATOM     13  O   UNL     1       1.660   0.932 -22.450  0.00  0.00    -0.245 OA
ATOM     14  C   UNL     1      -0.697   3.754 -23.750  0.00  0.00    +0.060 A 
ATOM     15  C   UNL     1       2.566   3.352 -22.738  0.00  0.00    +0.105 C 
ENDROOT
BRANCH  15  16
ATOM     16  C   UNL     1       3.351   2.412 -22.305  0.00  0.00    -0.034 A 
ATOM     17  C   UNL     1       4.120   1.773 -23.136  0.00  0.00    +0.008 A 
ATOM     18  C   UNL     1       4.905   0.832 -22.702  0.00  0.00    +0.046 A 
ATOM     19  C   UNL     1       4.922   0.530 -21.437  0.00  0.00    +0.117 A 
ATOM     20  C   UNL     1       4.153   1.170 -20.606  0.00  0.00    +0.046 A 
ATOM     21  C   UNL     1       3.367   2.111 -21.040  0.00  0.00    +0.008 A 
BRANCH  19  22
ATOM     22  O   UNL     1       5.707  -0.410 -21.004  0.00  0.00    -0.507 OA
ATOM     23  H   UNL     1       5.761  -1.225 -21.464  0.00  0.00    +0.292 HD
ENDBRANCH  19  22
ENDBRANCH  15  16
BRANCH   2  24
ATOM     24  N   UNL     1       2.685   6.713 -23.459  0.00  0.00    -0.328 N 
ATOM     25  H   UNL     1       3.365   7.062 -22.837  0.00  0.00    +0.145 HD
ATOM     26  H   UNL     1       2.350   7.281 -24.189  0.00  0.00    +0.145 HD
ENDBRANCH   2  24
BRANCH   1  28
ATOM     27  N   UNL     1       5.495   5.102 -22.304  0.00  0.00    -0.191 NA
ATOM     28  C   UNL     1       4.256   4.832 -22.593  0.00  0.00    +0.101 C 
ENDBRANCH   1  28
TORSDOF 4
ENDMDL
