MODEL 1
REMARK VINA RESULT:   -10.632      0.000      0.000
REMARK INTER + INTRA:         -10.843
REMARK INTER:                 -11.882
REMARK INTRA:                   1.039
REMARK UNBOUND:                 1.032
REMARK  Name = COC1=C[C@@]2(C)Oc3c(OC)ccc4c3[C@@]23CCN(C)[C@@H](C4)C3=C1            ZINC000253504979
REMARK  6 active torsions:
REMARK  status: ('A' for Active; 'I' for Inactive)
REMARK    1  A    between atoms: C_1  and  O_2
REMARK    2  A    between atoms: O_2  and  C_3
REMARK    3  A    between atoms: C_5  and  C_6
REMARK    4  A    between atoms: C_9  and  O_10
REMARK    5  A    between atoms: O_10  and  C_11
REMARK    6  A    between atoms: N_19  and  C_20
REMARK                            x       y       z     vdW  Elec       q    Type
REMARK                         _______ _______ _______ _____ _____    ______ ____
ROOT
ATOM      1  C   UNL     1       0.598   2.287 -22.473  0.00  0.00    +0.120 C 
ATOM      2  C   UNL     1      -0.361   2.278 -21.645  0.00  0.00    +0.066 C 
ATOM      3  C   UNL     1      -1.507   2.617 -22.016  0.00  0.00    +0.143 C 
ATOM      4  O   UNL     1      -2.955   2.826 -21.632  0.00  0.00    -0.477 OA
ATOM      5  C   UNL     1      -3.815   3.300 -22.769  0.00  0.00    +0.168 A 
ATOM      6  C   UNL     1      -4.977   3.644 -23.146  0.00  0.00    +0.162 A 
ATOM      7  C   UNL     1      -5.166   3.992 -24.350  0.00  0.00    +0.050 A 
ATOM      8  C   UNL     1      -4.215   3.999 -25.167  0.00  0.00    +0.008 A 
ATOM      9  C   UNL     1      -3.066   3.658 -24.791  0.00  0.00    -0.034 A 
ATOM     10  C   UNL     1      -2.096   3.664 -25.618  0.00  0.00    +0.094 C 
ATOM     11  C   UNL     1      -0.951   3.325 -25.243  0.00  0.00    +0.097 C 
ATOM     12  C   UNL     1      -0.759   2.976 -24.040  0.00  0.00    -0.003 C 
ATOM     13  N   UNL     1       0.389   2.957 -24.920  0.00  0.00    +0.239 N 
ATOM     14  H   UNL     1       1.141   2.974 -25.610  0.00  0.00    +0.204 HD
ATOM     15  C   UNL     1       1.302   2.982 -25.777  0.00  0.00    +0.191 C 
ATOM     16  C   UNL     1       0.639   2.563 -23.586  0.00  0.00    +0.133 C 
ATOM     17  C   UNL     1      -0.453   2.565 -22.688  0.00  0.00    +0.071 C 
ATOM     18  C   UNL     1      -2.858   3.309 -23.596  0.00  0.00    +0.016 A 
ATOM     19  C   UNL     1      -1.599   2.325 -20.800  0.00  0.00    +0.062 C 
ATOM     20  C   UNL     1      -1.711   2.970 -23.225  0.00  0.00    +0.074 C 
ATOM     21  C   UNL     1       0.401   2.633 -23.662  0.00  0.00    +0.051 C 
ENDROOT
BRANCH   1  23
ATOM     22  C   UNL     1       2.183   0.807 -22.380  0.00  0.00    +0.277 C 
ATOM     23  O   UNL     1       1.745   1.948 -22.104  0.00  0.00    -0.495 OA
ENDBRANCH   1  23
BRANCH   6  24
ATOM     24  O   UNL     1      -5.931   3.639 -22.333  0.00  0.00    -0.491 OA
ATOM     25  C   UNL     1      -6.225   2.588 -21.718  0.00  0.00    +0.277 C 
ENDBRANCH   6  24
TORSDOF 2
ENDMDL
