MODEL 1
REMARK VINA RESULT:    -9.905      0.000      0.000
REMARK INTER + INTRA:         -10.484
REMARK INTER:                 -10.484
REMARK INTRA:                   0.000
REMARK UNBOUND:                 0.000
REMARK  Name = ZINC000004104695
REMARK  6 active torsions:
REMARK  status: ('A' for Active; 'I' for Inactive)
REMARK    1  A    between atoms: C_1  and  C_2
REMARK    2  A    between atoms: C_2  and  C_3
REMARK    3  A    between atoms: C_9  and  C_10
REMARK    4  A    between atoms: C_9  and  O_11
REMARK    5  A    between atoms: C_12  and  C_13
REMARK    6  A    between atoms: C_12  and  O_14
REMARK                            x       y       z     vdW  Elec       q    Type
REMARK                         _______ _______ _______ _____ _____    ______ ____
ROOT
ATOM      1  C   UNL     1       0.004   2.201 -22.987  0.00  0.00    +0.011 C 
ATOM      2  C   UNL     1      -1.018   2.294 -22.189  0.00  0.00    -0.028 C 
ATOM      3  C   UNL     1      -1.912   2.746 -23.017  0.00  0.00    +0.005 C 
ATOM      4  C   UNL     1      -2.664   3.191 -23.979  0.00  0.00    +0.030 C 
ATOM      5  C   UNL     1      -3.918   3.532 -23.937  0.00  0.00    +0.027 C 
ATOM      6  C   UNL     1      -4.729   3.513 -22.920  0.00  0.00    +0.066 C 
ATOM      7  C   UNL     1      -4.486   3.147 -21.696  0.00  0.00    +0.035 C 
ATOM      8  C   UNL     1      -3.373   2.711 -21.186  0.00  0.00    +0.007 C 
ATOM      9  C   UNL     1      -5.481   3.957 -23.882  0.00  0.00    +0.041 C 
ATOM     10  C   UNL     1      -4.271   3.920 -25.126  0.00  0.00    +0.009 C 
ATOM     11  C   UNL     1      -3.234   3.819 -25.904  0.00  0.00    +0.035 C 
ATOM     12  C   UNL     1      -2.242   3.368 -25.196  0.00  0.00    +0.067 C 
ATOM     13  C   UNL     1      -1.112   2.936 -24.722  0.00  0.00    +0.041 C 
ATOM     14  C   UNL     1      -0.479   1.874 -21.082  0.00  0.00    +0.011 C 
ATOM     15  C   UNL     1      -2.227   2.532 -21.775  0.00  0.00    -0.001 C 
ENDROOT
BRANCH   6  16
ATOM     16  O   UNL     1      -5.875   3.691 -22.332  0.00  0.00    -0.389 OA
ATOM     17  H   UNL     1      -5.776   3.549 -21.379  0.00  0.00    +0.210 HD
ENDBRANCH   6  16
BRANCH  12  18
ATOM     18  O   UNL     1      -1.583   3.455 -26.313  0.00  0.00    -0.389 OA
ATOM     19  H   UNL     1      -1.510   4.387 -26.574  0.00  0.00    +0.210 HD
ENDBRANCH  12  18
TORSDOF 2
ENDMDL
