MODEL 1
REMARK VINA RESULT:   -10.053      0.000      0.000
REMARK INTER + INTRA:         -11.370
REMARK INTER:                 -11.267
REMARK INTRA:                  -0.103
REMARK UNBOUND:                -0.142
REMARK  Name = COc1ccc2c(c1O)[C@@]13CCN(C)[C@H](C2)[C@@H]1C(Br)=CC=C3C              ZINC000100393691
REMARK  5 active torsions:
REMARK  status: ('A' for Active; 'I' for Inactive)
REMARK    1  A    between atoms: C_1  and  O_2
REMARK    2  A    between atoms: O_2  and  C_3
REMARK    3  A    between atoms: C_8  and  O_9
REMARK    4  A    between atoms: N_13  and  C_14
REMARK    5  A    between atoms: C_22  and  C_23
REMARK                            x       y       z     vdW  Elec       q    Type
REMARK                         _______ _______ _______ _____ _____    ______ ____
ROOT
ATOM      1  C   UNL     1      -4.902   3.463 -22.896  0.00  0.00    +0.162 A 
ATOM      2  C   UNL     1      -5.208   3.796 -24.083  0.00  0.00    +0.049 A 
ATOM      3  C   UNL     1      -4.288   3.818 -24.961  0.00  0.00    +0.008 A 
ATOM      4  C   UNL     1      -2.908   3.459 -24.572  0.00  0.00    -0.034 A 
ATOM      5  C   UNL     1      -2.733   3.190 -23.550  0.00  0.00    +0.012 A 
ATOM      6  C   UNL     1      -1.931   2.928 -23.091  0.00  0.00    +0.038 C 
ATOM      7  C   UNL     1      -3.445   3.367 -23.716  0.00  0.00    +0.067 C 
ATOM      8  C   UNL     1      -3.563   3.719 -25.148  0.00  0.00    +0.132 C 
ATOM      9  N   UNL     1      -2.603   3.689 -25.832  0.00  0.00    +0.236 N 
ATOM     10  H   UNL     1      -1.642   3.575 -26.153  0.00  0.00    +0.203 HD
ATOM     11  C   UNL     1      -1.167   3.280 -25.271  0.00  0.00    +0.078 C 
ATOM     12  C   UNL     1      -3.353   4.072 -26.862  0.00  0.00    +0.190 C 
ATOM     13  C   UNL     1      -1.710   2.607 -21.885  0.00  0.00    -0.061 C 
ATOM     14  C   UNL     1      -2.615   2.585 -21.021  0.00  0.00    +0.040 C 
ATOM     15  C   UNL     1      -0.502   2.286 -21.511  0.00  0.00    +0.001 C 
ATOM     16  C   UNL     1       0.499   2.289 -22.375  0.00  0.00    +0.011 C 
ATOM     17  C   UNL     1       0.317   2.611 -23.623  0.00  0.00    +0.005 C 
ATOM     18 BR   UNL     1       1.302   2.611 -24.457  0.00  0.00    -0.054 Br
ATOM     19  C   UNL     1      -0.839   2.929 -24.024  0.00  0.00    +0.090 C 
ATOM     20  C   UNL     1      -1.994   3.483 -25.453  0.00  0.00    +0.090 C 
ATOM     21  C   UNL     1      -3.674   3.159 -22.615  0.00  0.00    +0.163 A 
ENDROOT
BRANCH   1  23
ATOM     22  C   UNL     1      -6.737   2.604 -21.656  0.00  0.00    +0.277 C 
ATOM     23  O   UNL     1      -5.733   3.372 -21.794  0.00  0.00    -0.491 OA
ENDBRANCH   1  23
BRANCH  21  24
ATOM     24  O   UNL     1      -3.394   2.828 -21.416  0.00  0.00    -0.503 OA
ATOM     25  H   UNL     1      -3.662   1.993 -21.084  0.00  0.00    +0.292 HD
ENDBRANCH  21  24
TORSDOF 2
ENDMDL
