MODEL 1
REMARK VINA RESULT:    -9.659      0.000      0.000
REMARK INTER + INTRA:          -9.659
REMARK INTER:                  -9.659
REMARK INTRA:                   0.000
REMARK UNBOUND:                 0.000
REMARK  Name = ZINC000000338304
REMARK  2 active torsions:
REMARK  status: ('A' for Active; 'I' for Inactive)
REMARK    1  A    between atoms: C_1  and  C_2
REMARK    2  A    between atoms: C_2  and  C_3
REMARK                            x       y       z     vdW  Elec       q    Type
REMARK                         _______ _______ _______ _____ _____    ______ ____
ROOT
ATOM      1  C   UNL     1      -5.826   3.394 -22.239  0.00  0.00    +0.060 C 
ATOM      2  C   UNL     1      -4.611   3.215 -22.667  0.00  0.00    +0.124 C 
ATOM      3  C   UNL     1      -4.475   2.828 -21.433  0.00  0.00    +0.020 C 
ATOM      4  C   UNL     1      -3.319   2.419 -21.004  0.00  0.00    +0.011 C 
ATOM      5  C   UNL     1      -2.297   2.395 -21.809  0.00  0.00    +0.017 A 
ATOM      6  C   UNL     1      -1.141   1.986 -21.380  0.00  0.00    +0.023 A 
ATOM      7  C   UNL     1      -0.121   1.963 -22.185  0.00  0.00    +0.018 A 
ATOM      8  C   UNL     1       1.037   1.552 -21.755  0.00  0.00    +0.018 A 
ATOM      9  C   UNL     1       2.057   1.529 -22.559  0.00  0.00    +0.092 A 
ATOM     10  C   UNL     1       1.921   1.916 -23.793  0.00  0.00    +0.337 A 
ATOM     11  O   UNL     1       0.765   2.325 -24.222  0.00  0.00    -0.422 OA
ATOM     12  O   UNL     1       2.942   1.892 -24.598  0.00  0.00    -0.245 OA
ATOM     13  C   UNL     1      -0.256   2.349 -23.418  0.00  0.00    +0.143 A 
ATOM     14  C   UNL     1      -1.413   2.759 -23.848  0.00  0.00    +0.093 A 
ATOM     15  C   UNL     1      -2.433   2.782 -23.043  0.00  0.00    +0.132 A 
ATOM     16  C   UNL     1      -5.169   3.663 -23.752  0.00  0.00    +0.060 C 
ATOM     17  O   UNL     1      -3.591   3.192 -23.472  0.00  0.00    -0.482 OA
ENDROOT
TORSDOF 0
ENDMDL
