MODEL 1
REMARK VINA RESULT:    -9.985      0.000      0.000
REMARK INTER + INTRA:         -13.648
REMARK INTER:                 -12.759
REMARK INTRA:                  -0.890
REMARK UNBOUND:                -0.453
REMARK  Name = ZINC000000580569
REMARK  7 active torsions:
REMARK  status: ('A' for Active; 'I' for Inactive)
REMARK    1  A    between atoms: O5*_1  and  C5*_2
REMARK    2  A    between atoms: C5*_2  and  C4*_3
REMARK    3  A    between atoms: C1*_5  and  N_6
REMARK    4  A    between atoms: N_11  and  C_12
REMARK    5  A    between atoms: C_12  and  C_13
REMARK    6  A    between atoms: C2*_23  and  O2*_24
REMARK    7  A    between atoms: C3*_25  and  O3*_26
REMARK                            x       y       z     vdW  Elec       q    Type
REMARK                         _______ _______ _______ _____ _____    ______ ____
ROOT
ATOM      1  N   UNL     1       3.156   2.391 -23.043  0.00  0.00    -0.286 N 
ATOM      2  C   UNL     1       2.648   1.195 -23.020  0.00  0.00    +0.203 A 
ATOM      3  N   UNL     1       1.378   1.292 -23.285  0.00  0.00    -0.231 NA
ATOM      4  C   UNL     1       1.102   2.549 -23.471  0.00  0.00    +0.147 A 
ATOM      5  C   UNL     1      -0.008   3.163 -23.757  0.00  0.00    +0.150 A 
ATOM      6  N   UNL     1      -0.019   4.455 -23.893  0.00  0.00    -0.219 NA
ATOM      7  C   UNL     1       1.079   5.134 -23.744  0.00  0.00    +0.225 A 
ATOM      8  N   UNL     1       2.189   4.520 -23.457  0.00  0.00    -0.216 NA
ATOM      9  N   UNL     1      -1.106   2.483 -23.906  0.00  0.00    -0.323 N 
ATOM     10  H   UNL     1      -1.097   1.503 -23.803  0.00  0.00    +0.148 HD
ATOM     11  C   UNL     1       2.200   3.228 -23.321  0.00  0.00    +0.167 A 
ENDROOT
BRANCH   1  14
ATOM     12  C4* UNL     1       6.409   3.242 -23.131  0.00  0.00    +0.177 C 
ATOM     13  O4* UNL     1       5.284   2.994 -23.732  0.00  0.00    -0.346 OA
ATOM     14  C1* UNL     1       4.400   2.698 -22.825  0.00  0.00    +0.253 C 
ATOM     15  C2* UNL     1       4.980   2.762 -21.664  0.00  0.00    +0.195 C 
ATOM     16  C3* UNL     1       6.222   3.098 -21.852  0.00  0.00    +0.178 C 
BRANCH  15  17
ATOM     17  O2* UNL     1       4.417   2.530 -20.515  0.00  0.00    -0.385 OA
ATOM     18  H2* UNL     1       5.064   2.130 -19.913  0.00  0.00    +0.210 HD
ENDBRANCH  15  17
BRANCH  16  19
ATOM     19  O3* UNL     1       7.118   3.262 -20.925  0.00  0.00    -0.386 OA
ATOM     20  H3* UNL     1       7.521   2.405 -20.712  0.00  0.00    +0.210 HD
ENDBRANCH  16  19
BRANCH  12  21
ATOM     21  C5* UNL     1       7.526   3.574 -23.706  0.00  0.00    +0.190 C 
BRANCH  21  22
ATOM     22  O5* UNL     1       8.589   2.845 -23.534  0.00  0.00    -0.392 OA
ATOM     23  H5* UNL     1       8.740   2.304 -24.323  0.00  0.00    +0.210 HD
ENDBRANCH  21  22
ENDBRANCH  12  21
ENDBRANCH   1  14
BRANCH   9  24
ATOM     24  C   UNL     1      -2.216   3.096 -24.192  0.00  0.00    +0.138 C 
BRANCH  24  25
ATOM     25  C   UNL     1      -3.199   3.091 -23.342  0.00  0.00    -0.030 A 
ATOM     26  C   UNL     1      -4.355   3.578 -23.682  0.00  0.00    +0.005 A 
ATOM     27  C   UNL     1      -5.339   3.572 -22.832  0.00  0.00    +0.000 A 
ATOM     28  C   UNL     1      -5.166   3.079 -21.642  0.00  0.00    +0.000 A 
ATOM     29  C   UNL     1      -4.010   2.591 -21.301  0.00  0.00    +0.000 A 
ATOM     30  C   UNL     1      -3.027   2.597 -22.151  0.00  0.00    +0.005 A 
ENDBRANCH  24  25
ENDBRANCH   9  24
TORSDOF 7
ENDMDL
