MODEL 1
REMARK VINA RESULT:    -6.360      0.000      0.000
REMARK INTER + INTRA:          -8.173
REMARK INTER:                  -7.831
REMARK INTRA:                  -0.342
REMARK UNBOUND:                -0.326
REMARK  Name = ZINC000000338210
REMARK  6 active torsions:
REMARK  status: ('A' for Active; 'I' for Inactive)
REMARK    1  A    between atoms: C_1  and  C_2
REMARK    2  A    between atoms: C_2  and  O_3
REMARK    3  A    between atoms: O_3  and  C_4
REMARK    4  A    between atoms: C_4  and  C_6
REMARK    5  A    between atoms: C_8  and  O_9
REMARK    6  A    between atoms: C_11  and  O_12
REMARK                            x       y       z     vdW  Elec       q    Type
REMARK                         _______ _______ _______ _____ _____    ______ ____
ROOT
ATOM      1  C   UNL     1      -1.862   3.336 -21.856  0.00  0.00    +0.066 A 
ATOM      2  C   UNL     1      -1.119   2.275 -21.969  0.00  0.00    +0.060 A 
ATOM      3  C   UNL     1       0.018   2.342 -22.596  0.00  0.00    +0.121 A 
ATOM      4  C   UNL     1       0.412   3.471 -23.108  0.00  0.00    +0.090 A 
ATOM      5  C   UNL     1      -0.332   4.531 -22.994  0.00  0.00    +0.121 A 
ATOM      6  C   UNL     1      -1.469   4.464 -22.368  0.00  0.00    +0.060 A 
ENDROOT
BRANCH   1   7
ATOM      7  C   UNL     1      -3.000   3.268 -21.229  0.00  0.00    +0.339 C 
ATOM      8  O   UNL     1      -3.121   3.789 -20.044  0.00  0.00    -0.245 OA
BRANCH   7   9
ATOM      9  O   UNL     1      -4.016   2.680 -21.788  0.00  0.00    -0.461 OA
BRANCH   9  11
ATOM     10  C   UNL     1      -5.275   3.741 -23.324  0.00  0.00    +0.048 C 
ATOM     11  C   UNL     1      -5.076   3.366 -22.094  0.00  0.00    +0.229 C 
ENDBRANCH   9  11
ENDBRANCH   7   9
ENDBRANCH   1   7
BRANCH   5  12
ATOM     12  O   UNL     1       0.063   5.659 -23.507  0.00  0.00    -0.507 OA
ATOM     13  H   UNL     1       0.171   6.410 -22.959  0.00  0.00    +0.292 HD
ENDBRANCH   5  12
BRANCH   3  14
ATOM     14  O   UNL     1       0.761   1.282 -22.710  0.00  0.00    -0.507 OA
ATOM     15  H   UNL     1       1.536   1.197 -22.191  0.00  0.00    +0.292 HD
ENDBRANCH   3  14
TORSDOF 5
ENDMDL
