MODEL 1
REMARK VINA RESULT:    -7.092      0.000      0.000
REMARK INTER + INTRA:          -7.782
REMARK INTER:                  -7.712
REMARK INTRA:                  -0.070
REMARK UNBOUND:                -0.069
REMARK  Name = ZINC000001669260
REMARK  2 active torsions:
REMARK  status: ('A' for Active; 'I' for Inactive)
REMARK    1  A    between atoms: O_1  and  C_2
REMARK    2  A    between atoms: C_2  and  C_3
REMARK                            x       y       z     vdW  Elec       q    Type
REMARK                         _______ _______ _______ _____ _____    ______ ____
ROOT
ATOM      1  C   UNL     1      -2.651   3.771 -24.449  0.00  0.00    +0.063 C 
ATOM      2  C   UNL     1      -3.525   4.044 -25.372  0.00  0.00    +0.016 C 
ATOM      3  C   UNL     1      -4.790   4.082 -25.078  0.00  0.00    +0.051 C 
ATOM      4  C   UNL     1      -5.183   3.846 -23.862  0.00  0.00    +0.131 C 
ATOM      5  N   UNL     1      -4.310   3.573 -22.938  0.00  0.00    +0.238 N 
ATOM      6  H   UNL     1      -5.321   3.674 -23.024  0.00  0.00    +0.204 HD
ATOM      7  C   UNL     1      -4.702   3.338 -21.721  0.00  0.00    +0.131 C 
ATOM      8  C   UNL     1      -3.828   3.064 -20.799  0.00  0.00    +0.051 C 
ATOM      9  C   UNL     1      -2.563   3.027 -21.092  0.00  0.00    +0.011 C 
ATOM     10  C   UNL     1      -2.170   3.262 -22.309  0.00  0.00    +0.055 C 
ATOM     11  C   UNL     1      -3.044   3.535 -23.233  0.00  0.00    +0.070 C 
ENDROOT
BRANCH   1  12
ATOM     12  C   UNL     1      -1.385   3.733 -24.743  0.00  0.00    +0.164 C 
BRANCH  12  13
ATOM     13  O   UNL     1      -1.003   3.338 -25.921  0.00  0.00    -0.395 OA
ATOM     14  H   UNL     1      -1.426   2.491 -26.130  0.00  0.00    +0.209 HD
ENDBRANCH  12  13
ENDBRANCH   1  12
TORSDOF 2
ENDMDL
