MODEL 1
REMARK VINA RESULT:   -10.078      0.000      0.000
REMARK INTER + INTRA:         -10.373
REMARK INTER:                 -10.373
REMARK INTRA:                   0.000
REMARK UNBOUND:                 0.000
REMARK  Name = ZINC000004104910
REMARK  1 active torsions:
REMARK  status: ('A' for Active; 'I' for Inactive)
REMARK    1  A    between atoms: C_16  and  O_17
REMARK                            x       y       z     vdW  Elec       q    Type
REMARK                         _______ _______ _______ _____ _____    ______ ____
ROOT
ATOM      1  O   UNL     1      -0.971   3.532 -25.518  0.00  0.00    -0.286 OA
ATOM      2  C   UNL     1      -1.561   3.233 -24.399  0.00  0.00    +0.198 C 
ATOM      3  C   UNL     1      -2.823   3.501 -24.238  0.00  0.00    +0.034 A 
ATOM      4  C   UNL     1      -3.495   4.069 -25.196  0.00  0.00    +0.012 A 
ATOM      5  C   UNL     1      -4.756   4.337 -25.034  0.00  0.00    +0.002 A 
ATOM      6  C   UNL     1      -5.346   4.037 -23.915  0.00  0.00    +0.016 A 
ATOM      7  C   UNL     1      -4.675   3.470 -22.958  0.00  0.00    +0.029 A 
ATOM      8 BR   UNL     1      -5.265   3.171 -21.839  0.00  0.00    -0.050 Br
ATOM      9  C   UNL     1      -3.413   3.202 -23.119  0.00  0.00    +0.047 A 
ATOM     10  C   UNL     1      -2.741   2.634 -22.161  0.00  0.00    +0.196 C 
ATOM     11  C   UNL     1      -1.480   2.366 -22.323  0.00  0.00    +0.037 A 
ATOM     12  C   UNL     1      -0.808   1.799 -21.365  0.00  0.00    +0.012 A 
ATOM     13  C   UNL     1       0.454   1.531 -21.526  0.00  0.00    +0.004 A 
ATOM     14  C   UNL     1       1.044   1.830 -22.645  0.00  0.00    +0.046 A 
ATOM     15  C   UNL     1       0.373   2.398 -23.603  0.00  0.00    +0.128 A 
ATOM     16  O   UNL     1      -3.331   2.335 -21.042  0.00  0.00    -0.287 OA
ATOM     17  C   UNL     1      -0.890   2.666 -23.442  0.00  0.00    +0.074 A 
ENDROOT
BRANCH  15  18
ATOM     18  O   UNL     1       0.963   2.697 -24.722  0.00  0.00    -0.506 OA
ATOM     19  H   UNL     1       0.511   3.202 -25.369  0.00  0.00    +0.292 HD
ENDBRANCH  15  18
TORSDOF 1
ENDMDL
