MODEL 1
REMARK VINA RESULT:    -9.805      0.000      0.000
REMARK INTER + INTRA:          -7.398
REMARK INTER:                 -11.500
REMARK INTRA:                   4.102
REMARK UNBOUND:                 4.127
REMARK  Name = COc1ccc2c3c1O[C@@H]1C(OC)(OC)CC[C@H]4[C@@H](C2)N(C)CC[C@]314         ZINC000253505285
REMARK  7 active torsions:
REMARK  status: ('A' for Active; 'I' for Inactive)
REMARK    1  A    between atoms: C_1  and  O_2
REMARK    2  A    between atoms: O_2  and  C_3
REMARK    3  A    between atoms: C_11  and  O_12
REMARK    4  A    between atoms: C_11  and  O_14
REMARK    5  A    between atoms: O_12  and  C_13
REMARK    6  A    between atoms: O_14  and  C_15
REMARK    7  A    between atoms: N_21  and  C_22
REMARK                            x       y       z     vdW  Elec       q    Type
REMARK                         _______ _______ _______ _____ _____    ______ ____
ROOT
ATOM      1  C   UNL     1       1.416   1.844 -22.031  0.00  0.00    +0.162 A 
ATOM      2  C   UNL     1       2.075   1.930 -23.111  0.00  0.00    +0.050 A 
ATOM      3  C   UNL     1       1.523   2.325 -24.164  0.00  0.00    +0.008 A 
ATOM      4  C   UNL     1       0.307   2.637 -24.150  0.00  0.00    -0.035 A 
ATOM      5  C   UNL     1      -0.371   2.560 -23.088  0.00  0.00    +0.012 A 
ATOM      6  C   UNL     1      -1.584   2.873 -23.080  0.00  0.00    +0.054 C 
ATOM      7  C   UNL     1      -2.969   3.201 -22.947  0.00  0.00    +0.067 C 
ATOM      8  C   UNL     1      -3.621   3.650 -24.119  0.00  0.00    +0.132 C 
ATOM      9  N   UNL     1      -2.854   3.733 -25.304  0.00  0.00    +0.236 N 
ATOM     10  H   UNL     1      -3.274   4.050 -26.178  0.00  0.00    +0.203 HD
ATOM     11  C   UNL     1      -3.355   4.120 -26.387  0.00  0.00    +0.190 C 
ATOM     12  C   UNL     1      -1.478   3.353 -25.210  0.00  0.00    +0.072 C 
ATOM     13  C   UNL     1      -2.141   3.268 -24.132  0.00  0.00    +0.053 C 
ATOM     14  C   UNL     1      -3.369   3.585 -24.122  0.00  0.00    +0.015 C 
ATOM     15  C   UNL     1      -4.028   3.503 -23.057  0.00  0.00    +0.069 C 
ATOM     16  C   UNL     1      -3.475   3.105 -21.988  0.00  0.00    +0.208 C 
ATOM     17  C   UNL     1      -2.260   2.792 -22.001  0.00  0.00    +0.244 C 
ATOM     18  O   UNL     1      -1.072   2.294 -21.203  0.00  0.00    -0.479 OA
ATOM     19  C   UNL     1      -0.264   3.041 -25.223  0.00  0.00    +0.090 C 
ATOM     20  C   UNL     1       0.185   2.162 -22.021  0.00  0.00    +0.167 A 
ENDROOT
BRANCH   1  22
ATOM     21  C   UNL     1       3.175   1.086 -21.002  0.00  0.00    +0.277 C 
ATOM     22  O   UNL     1       1.973   1.449 -20.979  0.00  0.00    -0.491 OA
ENDBRANCH   1  22
BRANCH  16  23
ATOM     23  O   UNL     1      -4.639   3.306 -21.565  0.00  0.00    -0.349 OA
ATOM     24  C   UNL     1      -5.397   2.336 -21.328  0.00  0.00    +0.197 C 
ENDBRANCH  16  23
BRANCH  16  25
ATOM     25  O   UNL     1      -3.325   2.780 -20.787  0.00  0.00    -0.349 OA
ATOM     26  C   UNL     1      -3.326   3.660 -19.893  0.00  0.00    +0.197 C 
ENDBRANCH  16  25
TORSDOF 3
ENDMDL
