MODEL 1
REMARK VINA RESULT:   -10.016      0.000      0.000
REMARK INTER + INTRA:         -13.386
REMARK INTER:                 -13.213
REMARK INTRA:                  -0.173
REMARK UNBOUND:                 0.143
REMARK  Name = CCOc1cc2c(cc1OC)CC[N@+]1(C)Cc3c(ccc(OC)c3OCC)C[C@@H]21               ZINC000248382777
REMARK  11 active torsions:
REMARK  status: ('A' for Active; 'I' for Inactive)
REMARK    1  A    between atoms: C_1  and  C_2
REMARK    2  A    between atoms: C_2  and  O_3
REMARK    3  A    between atoms: O_3  and  C_4
REMARK    4  A    between atoms: C_9  and  O_10
REMARK    5  A    between atoms: O_10  and  C_11
REMARK    6  A    between atoms: N_14  and  C_15
REMARK    7  A    between atoms: C_21  and  O_22
REMARK    8  A    between atoms: O_22  and  C_23
REMARK    9  A    between atoms: C_24  and  O_25
REMARK   10  A    between atoms: O_25  and  C_26
REMARK   11  A    between atoms: C_26  and  C_27
REMARK                            x       y       z     vdW  Elec       q    Type
REMARK                         _______ _______ _______ _____ _____    ______ ____
ROOT
ATOM      1  C   UNL     1       3.207   2.162 -21.982  0.00  0.00    +0.162 A 
ATOM      2  C   UNL     1       1.923   2.361 -22.019  0.00  0.00    +0.058 A 
ATOM      3  C   UNL     1       1.372   2.846 -23.093  0.00  0.00    +0.008 A 
ATOM      4  C   UNL     1       2.105   3.130 -24.128  0.00  0.00    -0.030 A 
ATOM      5  C   UNL     1       1.554   3.615 -25.202  0.00  0.00    +0.086 C 
ATOM      6  C   UNL     1       0.270   3.815 -25.240  0.00  0.00    +0.138 C 
ATOM      7  N   UNL     1      -0.463   3.530 -24.205  0.00  0.00    +0.250 N 
ATOM      8  C   UNL     1      -1.747   3.730 -24.243  0.00  0.00    +0.174 C 
ATOM      9  C   UNL     1      -2.480   3.445 -23.208  0.00  0.00    +0.046 A 
ATOM     10  C   UNL     1      -1.929   2.961 -22.134  0.00  0.00    -0.030 A 
ATOM     11  C   UNL     1      -0.645   2.761 -22.096  0.00  0.00    +0.095 C 
ATOM     12  C   UNL     1      -2.662   2.676 -21.099  0.00  0.00    +0.008 A 
ATOM     13  C   UNL     1      -3.946   2.876 -21.136  0.00  0.00    +0.050 A 
ATOM     14  C   UNL     1      -4.497   3.360 -22.209  0.00  0.00    +0.162 A 
ATOM     15  C   UNL     1      -3.764   3.645 -23.245  0.00  0.00    +0.170 A 
ATOM     16  C   UNL     1      -1.014   4.014 -25.278  0.00  0.00    +0.193 C 
ATOM     17  C   UNL     1       3.389   2.931 -24.091  0.00  0.00    +0.053 A 
ATOM     18  C   UNL     1       0.088   3.045 -23.131  0.00  0.00    +0.102 C 
ATOM     19  C   UNL     1       3.940   2.447 -23.018  0.00  0.00    +0.162 A 
ENDROOT
BRANCH  14  20
ATOM     20  O   UNL     1      -5.781   3.560 -22.248  0.00  0.00    -0.491 OA
ATOM     21  C   UNL     1      -6.590   2.695 -21.711  0.00  0.00    +0.277 C 
ENDBRANCH  14  20
BRANCH  19  22
ATOM     22  O   UNL     1       5.224   2.247 -22.979  0.00  0.00    -0.491 OA
ATOM     23  C   UNL     1       6.042   3.245 -23.140  0.00  0.00    +0.277 C 
ENDBRANCH  19  22
BRANCH   1  24
ATOM     24  O   UNL     1       3.758   1.678 -20.909  0.00  0.00    -0.489 OA
BRANCH  24  26
ATOM     25  C   UNL     1       5.041  -0.143 -20.576  0.00  0.00    +0.048 C 
ATOM     26  C   UNL     1       3.870   0.391 -20.759  0.00  0.00    +0.226 C 
ENDBRANCH  24  26
ENDBRANCH   1  24
BRANCH  15  27
ATOM     27  O   UNL     1      -4.315   4.129 -24.318  0.00  0.00    -0.488 OA
BRANCH  27  28
ATOM     28  C   UNL     1      -4.992   3.351 -25.110  0.00  0.00    +0.226 C 
ATOM     29  C   UNL     1      -4.482   2.974 -26.244  0.00  0.00    +0.048 C 
ENDBRANCH  27  28
ENDBRANCH  15  27
TORSDOF 6
ENDMDL
