MODEL 1
REMARK VINA RESULT:    -8.618      0.000      0.000
REMARK INTER + INTRA:         -11.758
REMARK INTER:                 -10.672
REMARK INTRA:                  -1.087
REMARK UNBOUND:                -0.874
REMARK  Name = ZINC000004104687
REMARK  6 active torsions:
REMARK  status: ('A' for Active; 'I' for Inactive)
REMARK    1  A    between atoms: C_1  and  O_2
REMARK    2  A    between atoms: O_2  and  C_3
REMARK    3  A    between atoms: C_6  and  C_7
REMARK    4  A    between atoms: C_7  and  C_9
REMARK    5  A    between atoms: C_10  and  C_11
REMARK    6  A    between atoms: C_17  and  O_18
REMARK                            x       y       z     vdW  Elec       q    Type
REMARK                         _______ _______ _______ _____ _____    ______ ____
ROOT
ATOM      1  C   UNL     1       3.346   1.542 -23.164  0.00  0.00    +0.124 A 
ATOM      2  C   UNL     1       2.776   2.522 -22.525  0.00  0.00    +0.046 A 
ATOM      3  C   UNL     1       1.917   3.282 -23.135  0.00  0.00    +0.019 A 
ATOM      4  C   UNL     1       1.626   3.064 -24.383  0.00  0.00    +0.063 A 
ATOM      5  C   UNL     1       2.195   2.085 -25.021  0.00  0.00    +0.131 A 
ATOM      6  C   UNL     1       3.055   1.325 -24.412  0.00  0.00    +0.091 A 
ENDROOT
BRANCH   1   8
ATOM      7  C   UNL     1       3.989   0.410 -21.327  0.00  0.00    +0.277 C 
ATOM      8  O   UNL     1       4.206   0.782 -22.554  0.00  0.00    -0.495 OA
ENDBRANCH   1   8
BRANCH   5   9
ATOM      9  O   UNL     1       1.904   1.867 -26.269  0.00  0.00    -0.506 OA
ATOM     10  H   UNL     1       2.500   1.393 -26.814  0.00  0.00    +0.292 HD
ENDBRANCH   5   9
BRANCH   4  11
ATOM     11  C   UNL     1       0.766   3.825 -24.992  0.00  0.00    +0.190 C 
ATOM     12  O   UNL     1       1.108   4.452 -26.079  0.00  0.00    -0.287 OA
BRANCH  11  13
ATOM     13  C   UNL     1      -0.436   3.959 -24.516  0.00  0.00    +0.052 C 
ATOM     14  C   UNL     1      -1.439   3.384 -25.111  0.00  0.00    +0.012 C 
BRANCH  14  15
ATOM     15  C   UNL     1      -2.641   3.518 -24.634  0.00  0.00    -0.025 A 
ATOM     16  C   UNL     1      -2.882   3.231 -23.390  0.00  0.00    +0.008 A 
ATOM     17  C   UNL     1      -4.085   3.364 -22.913  0.00  0.00    +0.001 A 
ATOM     18  C   UNL     1      -5.045   3.786 -23.681  0.00  0.00    +0.000 A 
ATOM     19  C   UNL     1      -4.804   4.073 -24.925  0.00  0.00    +0.001 A 
ATOM     20  C   UNL     1      -3.601   3.939 -25.403  0.00  0.00    +0.008 A 
ENDBRANCH  14  15
ENDBRANCH  11  13
ENDBRANCH   4  11
TORSDOF 5
ENDMDL
