MODEL 1
REMARK VINA RESULT:    -5.958      0.000      0.000
REMARK INTER + INTRA:          -8.016
REMARK INTER:                  -7.343
REMARK INTRA:                  -0.673
REMARK UNBOUND:                -0.665
REMARK  Name = ZINC000000338209
REMARK  6 active torsions:
REMARK  status: ('A' for Active; 'I' for Inactive)
REMARK    1  A    between atoms: C_1  and  C_2
REMARK    2  A    between atoms: C_2  and  O_3
REMARK    3  A    between atoms: O_3  and  C_4
REMARK    4  A    between atoms: C_4  and  C_6
REMARK    5  A    between atoms: C_9  and  O_10
REMARK    6  A    between atoms: C_12  and  O_13
REMARK                            x       y       z     vdW  Elec       q    Type
REMARK                         _______ _______ _______ _____ _____    ______ ____
ROOT
ATOM      1  C   UNL     1      -1.809   2.719 -22.486  0.00  0.00    +0.100 A 
ATOM      2  C   UNL     1      -2.248   3.111 -21.327  0.00  0.00    +0.022 A 
ATOM      3  C   UNL     1      -3.490   3.467 -21.188  0.00  0.00    +0.046 A 
ATOM      4  C   UNL     1      -4.295   3.431 -22.210  0.00  0.00    +0.120 A 
ATOM      5  C   UNL     1      -3.855   3.039 -23.369  0.00  0.00    +0.091 A 
ATOM      6  C   UNL     1      -2.613   2.683 -23.507  0.00  0.00    +0.134 A 
ENDROOT
BRANCH   1   7
ATOM      7  C   UNL     1      -0.566   2.363 -22.624  0.00  0.00    +0.343 C 
ATOM      8  O   UNL     1      -0.233   1.111 -22.513  0.00  0.00    -0.245 OA
BRANCH   7   9
ATOM      9  O   UNL     1       0.342   3.258 -22.874  0.00  0.00    -0.461 OA
BRANCH   9  11
ATOM     10  C   UNL     1       0.980   3.939 -24.923  0.00  0.00    +0.048 C 
ATOM     11  C   UNL     1       1.113   3.131 -23.913  0.00  0.00    +0.229 C 
ENDBRANCH   9  11
ENDBRANCH   7   9
ENDBRANCH   1   7
BRANCH   4  12
ATOM     12  O   UNL     1      -5.537   3.787 -22.071  0.00  0.00    -0.507 OA
ATOM     13  H   UNL     1      -5.772   4.693 -22.114  0.00  0.00    +0.292 HD
ENDBRANCH   4  12
BRANCH   6  14
ATOM     14  O   UNL     1      -2.174   2.291 -24.666  0.00  0.00    -0.506 OA
ATOM     15  H   UNL     1      -2.776   2.116 -25.361  0.00  0.00    +0.292 HD
ENDBRANCH   6  14
TORSDOF 5
ENDMDL
