MODEL 1
REMARK VINA RESULT:    -9.721      0.000      0.000
REMARK INTER + INTRA:         -11.955
REMARK INTER:                 -11.674
REMARK INTRA:                  -0.281
REMARK UNBOUND:                -0.245
REMARK  Name = ZINC000003881558
REMARK  6 active torsions:
REMARK  status: ('A' for Active; 'I' for Inactive)
REMARK    1  A    between atoms: C_3  and  O_4
REMARK    2  A    between atoms: C_5  and  C_6
REMARK    3  A    between atoms: C_9  and  O_10
REMARK    4  A    between atoms: C_12  and  O_13
REMARK    5  A    between atoms: C_17  and  O_18
REMARK    6  A    between atoms: C_20  and  O_21
REMARK                            x       y       z     vdW  Elec       q    Type
REMARK                         _______ _______ _______ _____ _____    ______ ____
ROOT
ATOM      1  O   UNL     1      -2.373   3.526 -26.722  0.00  0.00    -0.283 OA
ATOM      2  C   UNL     1      -2.132   3.465 -25.446  0.00  0.00    +0.238 A 
ATOM      3  C   UNL     1      -0.909   3.365 -25.020  0.00  0.00    +0.208 A 
ATOM      4  C   UNL     1      -0.668   3.304 -23.743  0.00  0.00    +0.184 A 
ATOM      5  O   UNL     1      -1.651   3.344 -22.894  0.00  0.00    -0.451 OA
ATOM      6  C   UNL     1      -2.875   3.444 -23.321  0.00  0.00    +0.147 A 
ATOM      7  C   UNL     1      -3.859   3.483 -22.471  0.00  0.00    +0.092 A 
ATOM      8  C   UNL     1      -5.082   3.583 -22.898  0.00  0.00    +0.124 A 
ATOM      9  C   UNL     1      -5.323   3.644 -24.174  0.00  0.00    +0.091 A 
ATOM     10  C   UNL     1      -4.340   3.604 -25.024  0.00  0.00    +0.135 A 
ATOM     11  C   UNL     1      -3.115   3.504 -24.597  0.00  0.00    +0.109 A 
ENDROOT
BRANCH   4  12
ATOM     12  C   UNL     1       0.557   3.205 -23.316  0.00  0.00    +0.063 A 
ATOM     13  C   UNL     1       1.380   4.199 -23.467  0.00  0.00    +0.019 A 
ATOM     14  C   UNL     1       2.604   4.099 -23.040  0.00  0.00    +0.046 A 
ATOM     15  C   UNL     1       3.004   3.005 -22.463  0.00  0.00    +0.120 A 
ATOM     16  C   UNL     1       2.180   2.011 -22.313  0.00  0.00    +0.091 A 
ATOM     17  C   UNL     1       0.955   2.110 -22.740  0.00  0.00    +0.131 A 
BRANCH  15  18
ATOM     18  O   UNL     1       4.227   2.904 -22.037  0.00  0.00    -0.507 OA
ATOM     19  H   UNL     1       4.397   2.585 -21.172  0.00  0.00    +0.292 HD
ENDBRANCH  15  18
BRANCH  17  20
ATOM     20  O   UNL     1       0.132   1.116 -22.590  0.00  0.00    -0.506 OA
ATOM     21  H   UNL     1      -0.558   1.171 -21.957  0.00  0.00    +0.292 HD
ENDBRANCH  17  20
ENDBRANCH   4  12
BRANCH   8  22
ATOM     22  O   UNL     1      -6.065   3.623 -22.049  0.00  0.00    -0.507 OA
ATOM     23  H   UNL     1      -6.000   3.163 -21.235  0.00  0.00    +0.292 HD
ENDBRANCH   8  22
BRANCH  10  24
ATOM     24  O   UNL     1      -4.580   3.665 -26.300  0.00  0.00    -0.506 OA
ATOM     25  H   UNL     1      -5.400   3.998 -26.607  0.00  0.00    +0.292 HD
ENDBRANCH  10  24
BRANCH   3  26
ATOM     26  O   UNL     1       0.075   3.326 -25.869  0.00  0.00    -0.501 OA
ATOM     27  H   UNL     1       0.063   2.705 -26.570  0.00  0.00    +0.292 HD
ENDBRANCH   3  26
TORSDOF 6
ENDMDL
