MODEL 1
REMARK VINA RESULT:    -8.829      0.000      0.000
REMARK INTER + INTRA:         -13.833
REMARK INTER:                 -12.872
REMARK INTRA:                  -0.961
REMARK UNBOUND:                -0.101
REMARK  Name = ZINC000005796482
REMARK  11 active torsions:
REMARK  status: ('A' for Active; 'I' for Inactive)
REMARK    1  A    between atoms: C_1  and  C_2
REMARK    2  A    between atoms: C_2  and  O_3
REMARK    3  A    between atoms: O_3  and  C_4
REMARK    4  A    between atoms: C_4  and  C_6
REMARK    5  A    between atoms: C_6  and  C_7
REMARK    6  A    between atoms: C_6  and  N_15
REMARK    7  A    between atoms: C_7  and  C_8
REMARK    8  A    between atoms: C_11  and  O_12
REMARK    9  A    between atoms: C_16  and  O_18
REMARK   10  A    between atoms: O_18  and  C_19
REMARK   11  A    between atoms: C_19  and  C_20
REMARK                            x       y       z     vdW  Elec       q    Type
REMARK                         _______ _______ _______ _____ _____    ______ ____
ROOT
ATOM      1  C   UNL     1       1.796   1.853 -22.495  0.00  0.00    +0.189 C 
ENDROOT
BRANCH   1   2
ATOM      2  N   UNL     1       0.794   2.309 -21.802  0.00  0.00    -0.268 N 
ATOM      3  H   UNL     1       0.958   2.797 -20.962  0.00  0.00    +0.153 HD
ATOM      4  C   UNL     1      -0.423   2.121 -22.217  0.00  0.00    +0.401 C 
ATOM      5  O   UNL     1      -0.639   1.477 -23.326  0.00  0.00    -0.226 OA
BRANCH   4   6
ATOM      6  O   UNL     1      -1.424   2.577 -21.524  0.00  0.00    -0.446 OA
BRANCH   6   7
ATOM      7  C   UNL     1      -2.003   3.688 -21.873  0.00  0.00    +0.269 C 
BRANCH   7   8
ATOM      8  C   UNL     1      -3.211   3.667 -22.354  0.00  0.00    -0.010 A 
ATOM      9  C   UNL     1      -3.414   3.924 -23.612  0.00  0.00    +0.007 A 
ATOM     10  C   UNL     1      -4.621   3.903 -24.093  0.00  0.00    +0.000 A 
ATOM     11  C   UNL     1      -5.626   3.626 -23.316  0.00  0.00    +0.000 A 
ATOM     12  C   UNL     1      -5.423   3.369 -22.058  0.00  0.00    +0.000 A 
ATOM     13  C   UNL     1      -4.216   3.390 -21.577  0.00  0.00    +0.007 A 
ENDBRANCH   7   8
ENDBRANCH   6   7
ENDBRANCH   4   6
ENDBRANCH   1   2
BRANCH   1  14
ATOM     14  C   UNL     1       2.363   0.733 -22.158  0.00  0.00    +0.328 C 
ATOM     15  O   UNL     1       2.397  -0.257 -23.000  0.00  0.00    -0.249 OA
BRANCH  14  16
ATOM     16  O   UNL     1       2.897   0.604 -20.980  0.00  0.00    -0.464 OA
BRANCH  16  18
ATOM     17  C   UNL     1       5.038   1.192 -20.605  0.00  0.00    +0.048 C 
ATOM     18  C   UNL     1       4.151   0.279 -20.867  0.00  0.00    +0.229 C 
ENDBRANCH  16  18
ENDBRANCH  14  16
ENDBRANCH   1  14
BRANCH   1  19
ATOM     19  C   UNL     1       2.229   2.518 -23.525  0.00  0.00    +0.069 C 
BRANCH  19  20
ATOM     20  C   UNL     1       3.280   3.274 -23.415  0.00  0.00    -0.045 A 
ATOM     21  C   UNL     1       4.456   2.799 -23.701  0.00  0.00    +0.007 A 
ATOM     22  C   UNL     1       5.507   3.556 -23.591  0.00  0.00    +0.045 A 
ATOM     23  C   UNL     1       5.382   4.789 -23.195  0.00  0.00    +0.117 A 
ATOM     24  C   UNL     1       4.206   5.264 -22.909  0.00  0.00    +0.045 A 
ATOM     25  C   UNL     1       3.155   4.507 -23.020  0.00  0.00    +0.007 A 
BRANCH  23  26
ATOM     26  O   UNL     1       6.434   5.545 -23.085  0.00  0.00    -0.507 OA
ATOM     27  H   UNL     1       6.813   5.700 -22.242  0.00  0.00    +0.292 HD
ENDBRANCH  23  26
ENDBRANCH  19  20
ENDBRANCH   1  19
TORSDOF 10
ENDMDL
