MODEL 1
REMARK VINA RESULT:    -9.583      0.000      0.000
REMARK INTER + INTRA:          -4.974
REMARK INTER:                 -12.308
REMARK INTRA:                   7.334
REMARK UNBOUND:                 8.249
REMARK  Name = CCCC[C@H](O)[C@]12Oc3c(OC)ccc4c3[C@@]13CCN(C)[C@@H](C4)C3=CC=C2OC    ZINC000253505564
REMARK  11 active torsions:
REMARK  status: ('A' for Active; 'I' for Inactive)
REMARK    1  A    between atoms: C_1  and  C_2
REMARK    2  A    between atoms: C_2  and  C_3
REMARK    3  A    between atoms: C_3  and  C_4
REMARK    4  A    between atoms: C_4  and  C_5
REMARK    5  A    between atoms: C_5  and  O_6
REMARK    6  A    between atoms: C_5  and  C_7
REMARK    7  A    between atoms: C_10  and  O_11
REMARK    8  A    between atoms: O_11  and  C_12
REMARK    9  A    between atoms: N_20  and  C_21
REMARK   10  A    between atoms: C_27  and  O_28
REMARK   11  A    between atoms: O_28  and  C_29
REMARK                            x       y       z     vdW  Elec       q    Type
REMARK                         _______ _______ _______ _____ _____    ______ ____
ROOT
ATOM      1  C   UNL     1      -1.524   3.228 -23.777  0.00  0.00    +0.206 C 
ATOM      2  O   UNL     1      -1.865   3.103 -22.310  0.00  0.00    -0.470 OA
ATOM      3  C   UNL     1      -3.333   3.168 -22.023  0.00  0.00    +0.168 A 
ATOM      4  C   UNL     1      -4.243   3.137 -21.141  0.00  0.00    +0.162 A 
ATOM      5  C   UNL     1      -5.456   3.248 -21.484  0.00  0.00    +0.050 A 
ATOM      6  C   UNL     1      -5.758   3.387 -22.692  0.00  0.00    +0.008 A 
ATOM      7  C   UNL     1      -4.861   3.417 -23.563  0.00  0.00    -0.034 A 
ATOM      8  C   UNL     1      -5.164   3.558 -24.790  0.00  0.00    +0.094 C 
ATOM      9  C   UNL     1      -4.269   3.589 -25.663  0.00  0.00    +0.096 C 
ATOM     10  C   UNL     1      -3.058   3.478 -25.316  0.00  0.00    -0.007 C 
ATOM     11  C   UNL     1      -2.151   3.508 -26.196  0.00  0.00    +0.009 C 
ATOM     12  C   UNL     1      -0.947   3.400 -25.868  0.00  0.00    +0.045 C 
ATOM     13  N   UNL     1      -3.325   3.635 -26.726  0.00  0.00    +0.239 N 
ATOM     14  H   UNL     1      -3.631   3.751 -27.692  0.00  0.00    +0.204 HD
ATOM     15  C   UNL     1      -3.689   3.776 -27.916  0.00  0.00    +0.191 C 
ATOM     16  C   UNL     1      -1.962   3.515 -26.382  0.00  0.00    +0.133 C 
ATOM     17  C   UNL     1      -1.652   3.359 -25.014  0.00  0.00    +0.071 C 
ATOM     18  C   UNL     1      -3.649   3.309 -23.241  0.00  0.00    +0.016 A 
ATOM     19  C   UNL     1      -0.629   3.259 -24.655  0.00  0.00    +0.144 C 
ATOM     20  C   UNL     1      -2.750   3.339 -24.110  0.00  0.00    +0.080 C 
ENDROOT
BRANCH   4  21
ATOM     21  O   UNL     1      -3.942   2.998 -19.933  0.00  0.00    -0.491 OA
ATOM     22  C   UNL     1      -3.087   3.745 -19.410  0.00  0.00    +0.277 C 
ENDBRANCH   4  21
BRANCH  19  23
ATOM     23  O   UNL     1       0.715   3.161 -24.520  0.00  0.00    -0.495 OA
ATOM     24  C   UNL     1       1.458   3.030 -25.565  0.00  0.00    +0.276 C 
ENDBRANCH  19  23
BRANCH   1  25
ATOM     25  C   UNL     1      -0.371   3.086 -23.078  0.00  0.00    +0.167 C 
BRANCH  25  26
ATOM     26  O   UNL     1       0.281   4.097 -22.749  0.00  0.00    -0.387 OA
ATOM     27  H   UNL     1       0.761   3.919 -21.926  0.00  0.00    +0.210 HD
ENDBRANCH  25  26
BRANCH  25  28
ATOM     28  C   UNL     1       0.068   1.949 -22.747  0.00  0.00    +0.036 C 
BRANCH  28  29
ATOM     29  C   UNL     1       0.750   1.764 -21.701  0.00  0.00    +0.002 C 
BRANCH  29  31
ATOM     30  C   UNL     1       2.952   1.922 -21.773  0.00  0.00    +0.004 C 
ATOM     31  C   UNL     1       1.906   1.228 -21.817  0.00  0.00    -0.003 C 
ENDBRANCH  29  31
ENDBRANCH  28  29
ENDBRANCH  25  28
ENDBRANCH   1  25
TORSDOF 7
ENDMDL
