MODEL 1
REMARK VINA RESULT:   -10.333      0.000      0.000
REMARK INTER + INTRA:         -11.707
REMARK INTER:                 -11.495
REMARK INTRA:                  -0.212
REMARK UNBOUND:                -0.167
REMARK  Name = COc1cc2c(cc1OC)C1=C(NC2)c2cc3c(cc2CC1)OCO3                           ZINC000100392865
REMARK  4 active torsions:
REMARK  status: ('A' for Active; 'I' for Inactive)
REMARK    1  A    between atoms: C_1  and  O_2
REMARK    2  A    between atoms: O_2  and  C_3
REMARK    3  A    between atoms: C_8  and  O_9
REMARK    4  A    between atoms: O_9  and  C_10
REMARK                            x       y       z     vdW  Elec       q    Type
REMARK                         _______ _______ _______ _____ _____    ______ ____
ROOT
ATOM      1  C   UNL     1      -3.889   3.524 -23.444  0.00  0.00    +0.162 A 
ATOM      2  C   UNL     1      -3.345   2.966 -22.402  0.00  0.00    +0.055 A 
ATOM      3  C   UNL     1      -2.086   2.645 -22.420  0.00  0.00    -0.019 A 
ATOM      4  C   UNL     1      -1.370   2.881 -23.479  0.00  0.00    -0.012 A 
ATOM      5  C   UNL     1      -0.110   2.560 -23.497  0.00  0.00    -0.018 C 
ATOM      6  C   UNL     1       0.434   2.003 -22.455  0.00  0.00    +0.039 C 
ATOM      7  C   UNL     1       1.693   1.681 -22.473  0.00  0.00    +0.003 A 
ATOM      8  C   UNL     1       2.236   1.124 -21.432  0.00  0.00    +0.059 A 
ATOM      9  C   UNL     1       3.496   0.803 -21.449  0.00  0.00    +0.167 A 
ATOM     10  C   UNL     1       4.213   1.039 -22.508  0.00  0.00    +0.167 A 
ATOM     11  O   UNL     1       5.424   0.629 -22.273  0.00  0.00    -0.453 OA
ATOM     12  C   UNL     1       5.456   0.140 -21.069  0.00  0.00    +0.466 C 
ATOM     13  C   UNL     1       3.668   1.597 -23.549  0.00  0.00    +0.053 A 
ATOM     14  O   UNL     1       4.265   0.247 -20.560  0.00  0.00    -0.453 OA
ATOM     15  C   UNL     1       2.409   1.918 -23.531  0.00  0.00    -0.034 A 
ATOM     16  C   UNL     1       1.866   2.475 -24.573  0.00  0.00    +0.040 C 
ATOM     17  N   UNL     1      -0.283   1.766 -21.396  0.00  0.00    -0.339 N 
ATOM     18  H   UNL     1       0.129   1.344 -20.608  0.00  0.00    +0.146 HD
ATOM     19  C   UNL     1       0.606   2.797 -24.555  0.00  0.00    +0.042 C 
ATOM     20  C   UNL     1      -1.913   3.439 -24.520  0.00  0.00    +0.058 A 
ATOM     21  C   UNL     1      -1.543   2.087 -21.379  0.00  0.00    +0.137 C 
ATOM     22  C   UNL     1      -3.172   3.760 -24.502  0.00  0.00    +0.162 A 
ENDROOT
BRANCH   1  24
ATOM     23  C   UNL     1      -5.919   3.399 -22.479  0.00  0.00    +0.277 C 
ATOM     24  O   UNL     1      -5.147   3.845 -23.426  0.00  0.00    -0.491 OA
ENDBRANCH   1  24
BRANCH  22  25
ATOM     25  O   UNL     1      -3.716   4.318 -25.543  0.00  0.00    -0.491 OA
ATOM     26  C   UNL     1      -3.652   3.731 -26.702  0.00  0.00    +0.277 C 
ENDBRANCH  22  25
TORSDOF 2
ENDMDL
