MODEL 1
REMARK VINA RESULT:    -9.311      0.000      0.000
REMARK INTER + INTRA:         -11.142
REMARK INTER:                 -10.672
REMARK INTRA:                  -0.469
REMARK UNBOUND:                -0.470
REMARK  Name = ZINC000000156701
REMARK  4 active torsions:
REMARK  status: ('A' for Active; 'I' for Inactive)
REMARK    1  A    between atoms: C_4  and  C_5
REMARK    2  A    between atoms: C_8  and  O_9
REMARK    3  A    between atoms: C_15  and  O_16
REMARK    4  A    between atoms: C_18  and  O_19
REMARK                            x       y       z     vdW  Elec       q    Type
REMARK                         _______ _______ _______ _____ _____    ______ ____
ROOT
ATOM      1  O   UNL     1       1.172   1.208 -19.695  0.00  0.00    -0.292 OA
ATOM      2  C   UNL     1       0.783   1.583 -20.878  0.00  0.00    +0.174 C 
ATOM      3  C   UNL     1      -0.449   1.950 -21.071  0.00  0.00    +0.129 C 
ATOM      4  C   UNL     1      -0.837   2.324 -22.254  0.00  0.00    +0.211 C 
ATOM      5  O   UNL     1       0.006   2.332 -23.243  0.00  0.00    -0.483 OA
ATOM      6  C   UNL     1       1.238   1.965 -23.049  0.00  0.00    +0.139 A 
ATOM      7  C   UNL     1       2.082   1.972 -24.039  0.00  0.00    +0.092 A 
ATOM      8  C   UNL     1       3.314   1.606 -23.845  0.00  0.00    +0.124 A 
ATOM      9  C   UNL     1       3.702   1.231 -22.662  0.00  0.00    +0.091 A 
ATOM     10  C   UNL     1       2.859   1.224 -21.673  0.00  0.00    +0.134 A 
ATOM     11  C   UNL     1       1.626   1.590 -21.867  0.00  0.00    +0.101 A 
ENDROOT
BRANCH   4  12
ATOM     12  C   UNL     1      -2.070   2.691 -22.446  0.00  0.00    -0.007 A 
ATOM     13  C   UNL     1      -2.912   2.677 -21.456  0.00  0.00    +0.011 A 
ATOM     14  C   UNL     1      -4.145   3.044 -21.648  0.00  0.00    +0.046 A 
ATOM     15  C   UNL     1      -4.535   3.423 -22.828  0.00  0.00    +0.117 A 
ATOM     16  C   UNL     1      -3.691   3.436 -23.818  0.00  0.00    +0.046 A 
ATOM     17  C   UNL     1      -2.459   3.070 -23.627  0.00  0.00    +0.011 A 
BRANCH  15  18
ATOM     18  O   UNL     1      -5.767   3.789 -23.019  0.00  0.00    -0.507 OA
ATOM     19  H   UNL     1      -6.030   4.669 -22.831  0.00  0.00    +0.292 HD
ENDBRANCH  15  18
ENDBRANCH   4  12
BRANCH  10  20
ATOM     20  O   UNL     1       3.248   0.849 -20.491  0.00  0.00    -0.506 OA
ATOM     21  H   UNL     1       3.345  -0.062 -20.296  0.00  0.00    +0.292 HD
ENDBRANCH  10  20
BRANCH   8  22
ATOM     22  O   UNL     1       4.157   1.613 -24.834  0.00  0.00    -0.507 OA
ATOM     23  H   UNL     1       4.441   2.427 -25.202  0.00  0.00    +0.292 HD
ENDBRANCH   8  22
TORSDOF 4
ENDMDL
