MODEL 1
REMARK VINA RESULT:   -10.351      0.000      0.000
REMARK INTER + INTRA:         -10.654
REMARK INTER:                 -10.654
REMARK INTRA:                   0.000
REMARK UNBOUND:                 0.000
REMARK  Name = CC1=C2CC[C@](C)(O)[C@@H]2[C@H]2OC(=O)[C@@H](C)[C@H]2CC1              ZINC000106803353
REMARK  4 active torsions:
REMARK  status: ('A' for Active; 'I' for Inactive)
REMARK    1  A    between atoms: C_1  and  C_2
REMARK    2  A    between atoms: C_6  and  C_7
REMARK    3  A    between atoms: C_6  and  O_8
REMARK    4  A    between atoms: C_14  and  C_15
REMARK                            x       y       z     vdW  Elec       q    Type
REMARK                         _______ _______ _______ _____ _____    ______ ____
ROOT
ATOM      1  C   UNL     1      -5.761   3.383 -22.140  0.00  0.00    +0.039 C 
ATOM      2  C   UNL     1      -4.513   3.114 -22.388  0.00  0.00    -0.073 C 
ATOM      3  C   UNL     1      -4.134   3.277 -23.620  0.00  0.00    -0.061 C 
ATOM      4  C   UNL     1      -4.929   3.681 -24.566  0.00  0.00    +0.034 C 
ATOM      5  C   UNL     1      -4.244   3.738 -25.670  0.00  0.00    +0.039 C 
ATOM      6  C   UNL     1      -3.026   3.369 -25.406  0.00  0.00    +0.073 C 
ATOM      7  C   UNL     1      -2.830   3.586 -26.672  0.00  0.00    +0.042 C 
ATOM      8  C   UNL     1      -2.957   3.084 -24.139  0.00  0.00    +0.087 C 
ATOM      9  C   UNL     1      -1.869   2.680 -23.552  0.00  0.00    +0.190 C 
ATOM     10  O   UNL     1      -0.739   2.521 -24.173  0.00  0.00    -0.460 OA
ATOM     11  C   UNL     1       0.140   2.112 -23.307  0.00  0.00    +0.311 C 
ATOM     12  C   UNL     1      -0.448   2.019 -22.151  0.00  0.00    +0.101 C 
ATOM     13  C   UNL     1       0.109   1.641 -21.039  0.00  0.00    +0.019 C 
ATOM     14  O   UNL     1       1.389   1.843 -23.553  0.00  0.00    -0.251 OA
ATOM     15  C   UNL     1      -1.690   2.371 -22.303  0.00  0.00    +0.044 C 
ATOM     16  C   UNL     1      -2.553   2.387 -21.331  0.00  0.00    +0.012 C 
ATOM     17  C   UNL     1      -3.809   2.718 -21.368  0.00  0.00    +0.031 C 
ENDROOT
BRANCH   6  18
ATOM     18  O   UNL     1      -1.766   3.045 -25.406  0.00  0.00    -0.388 OA
ATOM     19  H   UNL     1      -1.234   3.819 -25.645  0.00  0.00    +0.210 HD
ENDBRANCH   6  18
TORSDOF 1
ENDMDL
