MODEL 1
REMARK VINA RESULT:    -9.065      0.000      0.000
REMARK INTER + INTRA:          -8.215
REMARK INTER:                 -11.463
REMARK INTRA:                   3.249
REMARK UNBOUND:                 4.030
REMARK  Name = ZINC000000199427
REMARK  11 active torsions:
REMARK  status: ('A' for Active; 'I' for Inactive)
REMARK    1  A    between atoms: C_1  and  O_2
REMARK    2  A    between atoms: O_2  and  C_3
REMARK    3  A    between atoms: C_12  and  C_13
REMARK    4  A    between atoms: C_12  and  O_19
REMARK    5  A    between atoms: C_13  and  C_14
REMARK    6  A    between atoms: C_14  and  C_15
REMARK    7  A    between atoms: C_15  and  C_16
REMARK    8  A    between atoms: C_15  and  C_17
REMARK    9  A    between atoms: C_15  and  O_18
REMARK   10  A    between atoms: O_19  and  C_20
REMARK   11  A    between atoms: C_21  and  O_22
REMARK                            x       y       z     vdW  Elec       q    Type
REMARK                         _______ _______ _______ _____ _____    ______ ____
ROOT
ATOM      1  C   UNL     1       3.425   2.319 -23.256  0.00  0.00    +0.137 A 
ATOM      2  C   UNL     1       2.243   2.777 -23.540  0.00  0.00    +0.019 A 
ATOM      3  C   UNL     1       1.232   2.468 -22.783  0.00  0.00    +0.086 A 
ATOM      4  C   UNL     1       0.046   2.925 -23.065  0.00  0.00    +0.137 C 
ATOM      5  C   UNL     1      -0.123   3.688 -24.103  0.00  0.00    +0.153 C 
ATOM      6  C   UNL     1       0.887   3.997 -24.859  0.00  0.00    +0.039 C 
ATOM      7  N   UNL     1       1.402   1.705 -21.746  0.00  0.00    -0.214 NA
ATOM      8  C   UNL     1       2.586   1.250 -21.465  0.00  0.00    +0.231 A 
ATOM      9  O   UNL     1       3.017   0.483 -20.505  0.00  0.00    -0.445 OA
ATOM     10  C   UNL     1       4.295   0.319 -20.670  0.00  0.00    +0.198 A 
ATOM     11  C   UNL     1       4.656   0.981 -21.728  0.00  0.00    +0.055 A 
ATOM     12  C   UNL     1       2.071   3.539 -24.575  0.00  0.00    +0.043 C 
ATOM     13  C   UNL     1       3.598   1.555 -22.218  0.00  0.00    +0.082 A 
ENDROOT
BRANCH   5  14
ATOM     14  O   UNL     1      -1.307   4.145 -24.385  0.00  0.00    -0.389 OA
ATOM     15  H   UNL     1      -1.978   3.514 -24.081  0.00  0.00    +0.210 HD
ENDBRANCH   5  14
BRANCH   4  16
ATOM     16  O   UNL     1      -0.207   2.215 -21.971  0.00  0.00    -0.368 OA
ATOM     17  C   UNL     1      -0.903   1.117 -22.025  0.00  0.00    +0.195 C 
ENDBRANCH   4  16
BRANCH   1  19
ATOM     18  C   UNL     1       5.341   3.456 -23.581  0.00  0.00    +0.277 C 
ATOM     19  O   UNL     1       4.438   2.627 -24.012  0.00  0.00    -0.494 OA
ENDBRANCH   1  19
BRANCH   4  20
ATOM     20  C   UNL     1      -1.237   3.151 -22.986  0.00  0.00    +0.047 C 
BRANCH  20  21
ATOM     21  C   UNL     1      -1.703   3.925 -22.076  0.00  0.00    +0.037 C 
BRANCH  21  22
ATOM     22  C   UNL     1      -2.862   3.705 -21.541  0.00  0.00    +0.061 C 
ATOM     23  C   UNL     1      -2.986   3.723 -20.247  0.00  0.00    +0.041 C 
ATOM     24  C   UNL     1      -4.126   3.442 -21.658  0.00  0.00    +0.041 C 
BRANCH  22  25
ATOM     25  O   UNL     1      -3.384   3.558 -22.719  0.00  0.00    -0.389 OA
ATOM     26  H   UNL     1      -4.272   3.948 -22.730  0.00  0.00    +0.210 HD
ENDBRANCH  22  25
ENDBRANCH  21  22
ENDBRANCH  20  21
ENDBRANCH   4  20
TORSDOF 7
ENDMDL
