MODEL 1
REMARK VINA RESULT:   -11.225      0.000      0.000
REMARK INTER + INTRA:         -12.335
REMARK INTER:                 -12.186
REMARK INTRA:                  -0.149
REMARK UNBOUND:                -0.126
REMARK  Name = COc1ccc2c3c1O[C@@]1(C)[C@H](O)C=C[C@H]4[C@@H](C2)N(C)CC[C@]341       ZINC000100393598
REMARK  5 active torsions:
REMARK  status: ('A' for Active; 'I' for Inactive)
REMARK    1  A    between atoms: C_1  and  O_2
REMARK    2  A    between atoms: O_2  and  C_3
REMARK    3  A    between atoms: C_10  and  C_11
REMARK    4  A    between atoms: C_12  and  O_13
REMARK    5  A    between atoms: N_19  and  C_20
REMARK                            x       y       z     vdW  Elec       q    Type
REMARK                         _______ _______ _______ _____ _____    ______ ____
ROOT
ATOM      1  C   UNL     1       0.448   2.226 -23.360  0.00  0.00    +0.162 A 
ATOM      2  C   UNL     1       0.426   1.853 -22.152  0.00  0.00    +0.050 A 
ATOM      3  C   UNL     1      -0.636   1.899 -21.491  0.00  0.00    +0.008 A 
ATOM      4  C   UNL     1      -1.689   2.319 -22.029  0.00  0.00    -0.034 A 
ATOM      5  C   UNL     1      -1.687   2.695 -23.232  0.00  0.00    +0.012 A 
ATOM      6  C   UNL     1      -2.737   3.113 -23.766  0.00  0.00    +0.058 C 
ATOM      7  C   UNL     1      -3.869   3.607 -24.479  0.00  0.00    +0.067 C 
ATOM      8  C   UNL     1      -5.081   3.671 -23.759  0.00  0.00    +0.132 C 
ATOM      9  N   UNL     1      -5.066   3.246 -22.415  0.00  0.00    +0.236 N 
ATOM     10  H   UNL     1      -5.913   3.270 -21.846  0.00  0.00    +0.203 HD
ATOM     11  C   UNL     1      -6.098   3.271 -21.707  0.00  0.00    +0.190 C 
ATOM     12  C   UNL     1      -3.819   2.787 -21.899  0.00  0.00    +0.076 C 
ATOM     13  C   UNL     1      -3.801   3.161 -23.108  0.00  0.00    +0.075 C 
ATOM     14  C   UNL     1      -4.862   3.584 -23.649  0.00  0.00    -0.019 C 
ATOM     15  C   UNL     1      -4.851   3.956 -24.845  0.00  0.00    +0.004 C 
ATOM     16  C   UNL     1      -3.781   3.911 -25.517  0.00  0.00    +0.181 C 
ATOM     17  C   UNL     1      -2.730   3.492 -24.983  0.00  0.00    +0.148 C 
ATOM     18  C   UNL     1      -2.435   3.791 -26.162  0.00  0.00    +0.060 C 
ATOM     19  O   UNL     1      -1.259   3.192 -25.145  0.00  0.00    -0.478 OA
ATOM     20  C   UNL     1      -2.771   2.368 -21.360  0.00  0.00    +0.090 C 
ATOM     21  C   UNL     1      -0.617   2.650 -23.902  0.00  0.00    +0.167 A 
ENDROOT
BRANCH   1  23
ATOM     22  C   UNL     1       2.183   3.217 -24.202  0.00  0.00    +0.277 C 
ATOM     23  O   UNL     1       1.512   2.177 -24.016  0.00  0.00    -0.491 OA
ENDBRANCH   1  23
BRANCH  16  24
ATOM     24  O   UNL     1      -3.773   4.283 -26.712  0.00  0.00    -0.384 OA
ATOM     25  H   UNL     1      -4.016   5.221 -26.760  0.00  0.00    +0.210 HD
ENDBRANCH  16  24
TORSDOF 2
ENDMDL
