MODEL 1
REMARK VINA RESULT:    -9.449      0.000      0.000
REMARK INTER + INTRA:          -9.725
REMARK INTER:                  -9.725
REMARK INTRA:                   0.000
REMARK UNBOUND:                 0.000
REMARK  Name = ZINC000019800967
REMARK  4 active torsions:
REMARK  status: ('A' for Active; 'I' for Inactive)
REMARK    1  A    between atoms: C_1  and  C_2
REMARK    2  A    between atoms: C_2  and  C_3
REMARK    3  A    between atoms: C_12  and  C_13
REMARK    4  A    between atoms: C_12  and  O_14
REMARK                            x       y       z     vdW  Elec       q    Type
REMARK                         _______ _______ _______ _____ _____    ______ ____
ROOT
ATOM      1  C   UNL     1      -3.681   3.969 -25.591  0.00  0.00    +0.012 C 
ATOM      2  C   UNL     1      -2.597   3.466 -25.079  0.00  0.00    -0.021 C 
ATOM      3  C   UNL     1      -1.789   2.933 -24.211  0.00  0.00    +0.065 C 
ATOM      4  C   UNL     1      -0.848   2.404 -23.486  0.00  0.00    +0.137 C 
ATOM      5  C   UNL     1      -0.902   2.019 -22.246  0.00  0.00    +0.075 C 
ATOM      6  C   UNL     1      -1.908   2.067 -21.424  0.00  0.00    +0.011 C 
ATOM      7  C   UNL     1      -3.110   2.511 -21.641  0.00  0.00    -0.004 C 
ATOM      8  C   UNL     1      -4.047   2.511 -20.740  0.00  0.00    +0.007 C 
ATOM      9  C   UNL     1      -5.118   3.018 -21.273  0.00  0.00    +0.035 C 
ATOM     10  C   UNL     1      -4.844   3.331 -22.504  0.00  0.00    +0.067 C 
ATOM     11  C   UNL     1      -4.828   3.727 -23.742  0.00  0.00    +0.041 C 
ATOM     12  C   UNL     1      -3.602   3.018 -22.732  0.00  0.00    +0.028 C 
ATOM     13  O   UNL     1       0.297   2.240 -24.079  0.00  0.00    -0.297 OA
ATOM     14  C   UNL     1      -1.803   3.551 -26.105  0.00  0.00    +0.012 C 
ATOM     15  C   UNL     1      -3.015   3.206 -23.876  0.00  0.00    +0.012 C 
ENDROOT
BRANCH  10  16
ATOM     16  O   UNL     1      -6.081   3.727 -22.536  0.00  0.00    -0.389 OA
ATOM     17  H   UNL     1      -6.644   3.067 -22.101  0.00  0.00    +0.210 HD
ENDBRANCH  10  16
TORSDOF 1
ENDMDL
