MODEL 1
REMARK VINA RESULT:    -7.100      0.000      0.000
REMARK INTER + INTRA:          -7.786
REMARK INTER:                  -7.715
REMARK INTRA:                  -0.070
REMARK UNBOUND:                -0.063
REMARK  Name = ZINC000000031166
REMARK  2 active torsions:
REMARK  status: ('A' for Active; 'I' for Inactive)
REMARK    1  A    between atoms: O_1  and  C_2
REMARK    2  A    between atoms: C_2  and  C_3
REMARK                            x       y       z     vdW  Elec       q    Type
REMARK                         _______ _______ _______ _____ _____    ______ ____
ROOT
ATOM      1  C   UNL     1      -2.668   3.779 -24.466  0.00  0.00    +0.063 C 
ATOM      2  C   UNL     1      -3.559   4.056 -25.370  0.00  0.00    +0.016 C 
ATOM      3  C   UNL     1      -4.819   4.095 -25.050  0.00  0.00    +0.051 C 
ATOM      4  C   UNL     1      -5.186   3.857 -23.826  0.00  0.00    +0.131 C 
ATOM      5  N   UNL     1      -4.295   3.580 -22.921  0.00  0.00    +0.238 N 
ATOM      6  H   UNL     1      -5.308   3.682 -22.986  0.00  0.00    +0.204 HD
ATOM      7  C   UNL     1      -4.663   3.342 -21.697  0.00  0.00    +0.131 C 
ATOM      8  C   UNL     1      -3.771   3.064 -20.793  0.00  0.00    +0.051 C 
ATOM      9  C   UNL     1      -2.511   3.025 -21.113  0.00  0.00    +0.011 C 
ATOM     10  C   UNL     1      -2.144   3.263 -22.337  0.00  0.00    +0.055 C 
ATOM     11  C   UNL     1      -3.036   3.541 -23.242  0.00  0.00    +0.070 C 
ENDROOT
BRANCH   1  12
ATOM     12  C   UNL     1      -1.408   3.739 -24.785  0.00  0.00    +0.164 C 
BRANCH  12  13
ATOM     13  O   UNL     1      -1.051   3.346 -25.971  0.00  0.00    -0.395 OA
ATOM     14  H   UNL     1      -1.634   2.626 -26.262  0.00  0.00    +0.209 HD
ENDBRANCH  12  13
ENDBRANCH   1  12
TORSDOF 2
ENDMDL
