MODEL 1
REMARK VINA RESULT:    -9.113      0.000      0.000
REMARK INTER + INTRA:         -11.811
REMARK INTER:                 -11.994
REMARK INTRA:                   0.183
REMARK UNBOUND:                 0.499
REMARK  Name = ZINC000005999141
REMARK  11 active torsions:
REMARK  status: ('A' for Active; 'I' for Inactive)
REMARK    1  A    between atoms: C_1  and  O_2
REMARK    2  A    between atoms: O_2  and  C_3
REMARK    3  A    between atoms: C_5  and  C_6
REMARK    4  A    between atoms: C_10  and  O_11
REMARK    5  A    between atoms: O_11  and  C_12
REMARK    6  A    between atoms: C_13  and  O_14
REMARK    7  A    between atoms: O_14  and  C_15
REMARK    8  A    between atoms: C_16  and  O_17
REMARK    9  A    between atoms: C_21  and  O_22
REMARK   10  A    between atoms: O_22  and  C_23
REMARK   11  A    between atoms: C_26  and  O_27
REMARK                            x       y       z     vdW  Elec       q    Type
REMARK                         _______ _______ _______ _____ _____    ______ ____
ROOT
ATOM      1  C   UNL     1       1.859   2.245 -22.699  0.00  0.00    +0.181 A 
ATOM      2  O   UNL     1       0.708   2.511 -22.158  0.00  0.00    -0.451 OA
ATOM      3  C   UNL     1      -0.287   2.894 -22.903  0.00  0.00    +0.147 A 
ATOM      4  C   UNL     1      -1.439   3.160 -22.363  0.00  0.00    +0.096 A 
ATOM      5  C   UNL     1      -2.433   3.543 -23.108  0.00  0.00    +0.169 A 
ATOM      6  C   UNL     1      -2.276   3.659 -24.393  0.00  0.00    +0.204 A 
ATOM      7  C   UNL     1      -1.124   3.393 -24.933  0.00  0.00    +0.177 A 
ATOM      8  C   UNL     1      -0.129   3.010 -24.188  0.00  0.00    +0.113 A 
ATOM      9  C   UNL     1       1.023   2.744 -24.730  0.00  0.00    +0.238 A 
ATOM     10  O   UNL     1       1.180   2.861 -26.014  0.00  0.00    -0.283 OA
ATOM     11  C   UNL     1       2.017   2.362 -23.984  0.00  0.00    +0.211 A 
ENDROOT
BRANCH   1  14
ATOM     12  C   UNL     1       4.849   2.282 -20.998  0.00  0.00    +0.162 A 
ATOM     13  C   UNL     1       3.854   2.665 -21.743  0.00  0.00    +0.061 A 
ATOM     14  C   UNL     1       2.853   1.862 -21.955  0.00  0.00    +0.025 A 
ATOM     15  C   UNL     1       2.847   0.677 -21.422  0.00  0.00    +0.015 A 
ATOM     16  C   UNL     1       3.843   0.293 -20.678  0.00  0.00    +0.050 A 
ATOM     17  C   UNL     1       4.843   1.096 -20.466  0.00  0.00    +0.158 A 
BRANCH  12  19
ATOM     18  C   UNL     1       6.457   3.645 -21.790  0.00  0.00    +0.277 C 
ATOM     19  O   UNL     1       5.849   3.084 -20.786  0.00  0.00    -0.491 OA
ENDBRANCH  12  19
BRANCH  17  20
ATOM     20  O   UNL     1       5.837   0.712 -19.722  0.00  0.00    -0.503 OA
ATOM     21  H   UNL     1       5.917  -0.187 -19.473  0.00  0.00    +0.292 HD
ENDBRANCH  17  20
ENDBRANCH   1  14
BRANCH   7  22
ATOM     22  O   UNL     1      -0.966   3.510 -26.219  0.00  0.00    -0.503 OA
ATOM     23  H   UNL     1      -1.218   2.809 -26.787  0.00  0.00    +0.292 HD
ENDBRANCH   7  22
BRANCH   6  24
ATOM     24  O   UNL     1      -3.270   4.042 -25.138  0.00  0.00    -0.488 OA
ATOM     25  C   UNL     1      -4.031   3.157 -25.711  0.00  0.00    +0.277 C 
ENDBRANCH   6  24
BRANCH   5  26
ATOM     26  O   UNL     1      -3.585   3.809 -22.568  0.00  0.00    -0.491 OA
ATOM     27  C   UNL     1      -4.131   2.959 -21.749  0.00  0.00    +0.277 C 
ENDBRANCH   5  26
BRANCH  11  28
ATOM     28  O   UNL     1       3.169   2.096 -24.525  0.00  0.00    -0.488 OA
ATOM     29  C   UNL     1       3.436   0.886 -24.922  0.00  0.00    +0.277 C 
ENDBRANCH  11  28
TORSDOF 7
ENDMDL
