MODEL 1
REMARK VINA RESULT:   -10.229      0.000      0.000
REMARK INTER + INTRA:         -13.892
REMARK INTER:                 -13.912
REMARK INTRA:                   0.020
REMARK UNBOUND:                 0.223
REMARK  Name = ZINC000085340887
REMARK  10 active torsions:
REMARK  status: ('A' for Active; 'I' for Inactive)
REMARK    1  A    between atoms: C_1  and  C_2
REMARK    2  A    between atoms: C_6  and  C_7
REMARK    3  A    between atoms: C_6  and  C_9
REMARK    4  A    between atoms: C_7  and  O_8
REMARK    5  A    between atoms: C_9  and  O_10
REMARK    6  A    between atoms: C_14  and  C_15
REMARK    7  A    between atoms: C_15  and  O_16
REMARK    8  A    between atoms: C_17  and  C_18
REMARK    9  A    between atoms: C_18  and  C_19
REMARK   10  A    between atoms: C_19  and  C_20
REMARK                            x       y       z     vdW  Elec       q    Type
REMARK                         _______ _______ _______ _____ _____    ______ ____
ROOT
ATOM      1  C   UNL     1      -0.694   2.881 -21.994  0.00  0.00    +0.012 C 
ATOM      2  C   UNL     1      -1.793   3.149 -22.633  0.00  0.00    -0.025 C 
ATOM      3  C   UNL     1      -1.833   2.863 -21.366  0.00  0.00    +0.007 C 
ATOM      4  C   UNL     1      -2.970   2.844 -20.738  0.00  0.00    +0.001 C 
ATOM      5  C   UNL     1      -4.071   3.112 -21.378  0.00  0.00    +0.012 C 
ATOM      6  C   UNL     1      -4.031   3.399 -22.645  0.00  0.00    +0.020 C 
ATOM      7  C   UNL     1      -0.656   3.168 -23.261  0.00  0.00    +0.001 C 
ATOM      8  C   UNL     1      -0.617   3.455 -24.528  0.00  0.00    +0.018 C 
ATOM      9  C   UNL     1      -1.716   3.724 -25.168  0.00  0.00    +0.006 C 
ATOM     10  C   UNL     1      -2.855   3.705 -24.540  0.00  0.00    +0.005 C 
ATOM     11  C   UNL     1      -2.893   3.418 -23.273  0.00  0.00    +0.006 C 
ENDROOT
BRANCH   6  12
ATOM     12  C   UNL     1      -4.437   3.718 -23.839  0.00  0.00    +0.165 C 
BRANCH  12  13
ATOM     13  O   UNL     1      -5.604   4.266 -24.003  0.00  0.00    -0.394 OA
ATOM     14  H   UNL     1      -5.701   5.012 -23.390  0.00  0.00    +0.209 HD
ENDBRANCH  12  13
ENDBRANCH   6  12
BRANCH   6  15
ATOM     15  C   UNL     1      -5.311   3.491 -22.431  0.00  0.00    +0.165 C 
BRANCH  15  16
ATOM     16  O   UNL     1      -5.910   2.610 -21.686  0.00  0.00    -0.394 OA
ATOM     17  H   UNL     1      -6.849   2.569 -21.927  0.00  0.00    +0.209 HD
ENDBRANCH  15  16
ENDBRANCH   6  15
BRANCH   8  18
ATOM     18  C   UNL     1       0.521   3.474 -25.155  0.00  0.00    +0.159 C 
BRANCH  18  19
ATOM     19  O   UNL     1       0.778   2.579 -26.064  0.00  0.00    -0.395 OA
ATOM     20  H   UNL     1       1.736   2.532 -26.209  0.00  0.00    +0.209 HD
ENDBRANCH  18  19
ENDBRANCH   8  18
BRANCH   7  21
ATOM     21  C   UNL     1       0.444   2.900 -22.621  0.00  0.00    +0.009 C 
BRANCH  21  22
ATOM     22  C   UNL     1       0.755   1.667 -22.352  0.00  0.00    +0.042 C 
BRANCH  22  23
ATOM     23  C   UNL     1       2.000   1.334 -22.177  0.00  0.00    +0.036 C 
ATOM     24  C   UNL     1       2.653   1.385 -21.054  0.00  0.00    +0.024 C 
ATOM     25  C   UNL     1       3.866   0.974 -21.277  0.00  0.00    +0.260 C 
ATOM     26  O   UNL     1       3.963   0.670 -22.536  0.00  0.00    -0.457 OA
ATOM     27  C   UNL     1       2.809   0.892 -23.093  0.00  0.00    +0.335 C 
ATOM     28  O   UNL     1       2.516   0.706 -24.346  0.00  0.00    -0.245 OA
ENDBRANCH  22  23
ENDBRANCH  21  22
ENDBRANCH   7  21
TORSDOF 9
ENDMDL
