MODEL 1
REMARK VINA RESULT:   -10.708      0.000      0.000
REMARK INTER + INTRA:         -13.898
REMARK INTER:                 -13.207
REMARK INTRA:                  -0.691
REMARK UNBOUND:                -0.060
REMARK  Name = ZINC000016952753
REMARK  8 active torsions:
REMARK  status: ('A' for Active; 'I' for Inactive)
REMARK    1  A    between atoms: C_1  and  O_2
REMARK    2  A    between atoms: O_2  and  C_3
REMARK    3  A    between atoms: C_5  and  C_6
REMARK    4  A    between atoms: C_15  and  C_16
REMARK    5  A    between atoms: C_19  and  O_20
REMARK    6  A    between atoms: C_21  and  O_22
REMARK    7  A    between atoms: O_22  and  C_23
REMARK    8  A    between atoms: C_27  and  O_28
REMARK                            x       y       z     vdW  Elec       q    Type
REMARK                         _______ _______ _______ _____ _____    ______ ____
ROOT
ATOM      1  C   UNL     1       1.933   3.393 -22.778  0.00  0.00    +0.221 C 
ATOM      2  O   UNL     1       1.439   4.578 -22.982  0.00  0.00    -0.455 OA
ATOM      3  C   UNL     1       0.144   4.492 -22.916  0.00  0.00    +0.316 C 
ATOM      4  C   UNL     1      -0.164   3.253 -22.671  0.00  0.00    +0.160 C 
ATOM      5  C   UNL     1      -1.155   2.434 -22.478  0.00  0.00    +0.221 C 
ATOM      6  O   UNL     1      -0.662   1.249 -22.274  0.00  0.00    -0.455 OA
ATOM      7  C   UNL     1       0.633   1.335 -22.340  0.00  0.00    +0.316 C 
ATOM      8  O   UNL     1       1.473   0.355 -22.187  0.00  0.00    -0.250 OA
ATOM      9  O   UNL     1      -0.696   5.472 -23.069  0.00  0.00    -0.250 OA
ATOM     10  C   UNL     1       0.942   2.574 -22.585  0.00  0.00    +0.160 C 
ENDROOT
BRANCH   5  11
ATOM     11  C   UNL     1      -2.417   2.745 -22.489  0.00  0.00    -0.003 A 
ATOM     12  C   UNL     1      -3.102   2.717 -21.384  0.00  0.00    +0.011 A 
ATOM     13  C   UNL     1      -4.365   3.029 -21.395  0.00  0.00    +0.049 A 
ATOM     14  C   UNL     1      -4.940   3.369 -22.510  0.00  0.00    +0.158 A 
ATOM     15  C   UNL     1      -4.255   3.398 -23.614  0.00  0.00    +0.162 A 
ATOM     16  C   UNL     1      -2.993   3.086 -23.603  0.00  0.00    +0.056 A 
BRANCH  15  17
ATOM     17  O   UNL     1      -4.831   3.739 -24.729  0.00  0.00    -0.491 OA
ATOM     18  C   UNL     1      -4.320   3.363 -25.864  0.00  0.00    +0.277 C 
ENDBRANCH  15  17
BRANCH  14  19
ATOM     19  O   UNL     1      -6.203   3.682 -22.521  0.00  0.00    -0.503 OA
ATOM     20  H   UNL     1      -6.506   4.392 -23.052  0.00  0.00    +0.292 HD
ENDBRANCH  14  19
ENDBRANCH   5  11
BRANCH   1  23
ATOM     21  C   UNL     1       4.947   2.079 -21.771  0.00  0.00    +0.162 A 
ATOM     22  C   UNL     1       3.685   2.391 -21.782  0.00  0.00    +0.056 A 
ATOM     23  C   UNL     1       3.194   3.082 -22.767  0.00  0.00    -0.003 A 
ATOM     24  C   UNL     1       3.965   3.461 -23.743  0.00  0.00    +0.011 A 
ATOM     25  C   UNL     1       5.228   3.148 -23.732  0.00  0.00    +0.049 A 
ATOM     26  C   UNL     1       5.718   2.458 -22.746  0.00  0.00    +0.158 A 
BRANCH  21  28
ATOM     27  C   UNL     1       4.997   0.187 -20.551  0.00  0.00    +0.277 C 
ATOM     28  O   UNL     1       5.437   1.388 -20.784  0.00  0.00    -0.491 OA
ENDBRANCH  21  28
BRANCH  26  29
ATOM     29  O   UNL     1       6.980   2.145 -22.736  0.00  0.00    -0.503 OA
ATOM     30  H   UNL     1       7.272   1.386 -22.270  0.00  0.00    +0.292 HD
ENDBRANCH  26  29
ENDBRANCH   1  23
TORSDOF 6
ENDMDL
