MODEL 1
REMARK VINA RESULT:    -8.199      0.000      0.000
REMARK INTER + INTRA:         -10.149
REMARK INTER:                  -9.494
REMARK INTRA:                  -0.655
REMARK UNBOUND:                -0.272
REMARK  Name = ZINC000005707473
REMARK  5 active torsions:
REMARK  status: ('A' for Active; 'I' for Inactive)
REMARK    1  A    between atoms: C_1  and  N_2
REMARK    2  A    between atoms: C_7  and  C_8
REMARK    3  A    between atoms: C_8  and  C_9
REMARK    4  A    between atoms: C_9  and  O_10
REMARK    5  A    between atoms: C_9  and  C_11
REMARK                            x       y       z     vdW  Elec       q    Type
REMARK                         _______ _______ _______ _____ _____    ______ ____
ROOT
ATOM      1  C   UNL     1      -1.011   3.639 -23.117  0.00  0.00    +0.090 C 
ENDROOT
BRANCH   1   9
ATOM      2  C   UNL     1       1.119   4.231 -24.486  0.00  0.00    +0.190 C 
ATOM      3  N   UNL     1       1.171   3.311 -23.569  0.00  0.00    +0.235 N 
ATOM      4  H   UNL     1       0.723   4.030 -24.139  0.00  0.00    +0.203 HD
ATOM      5  C   UNL     1       2.287   2.687 -23.337  0.00  0.00    +0.131 C 
ATOM      6  C   UNL     1       2.338   1.767 -22.420  0.00  0.00    +0.051 C 
ATOM      7  C   UNL     1       1.273   1.471 -21.735  0.00  0.00    +0.011 C 
ATOM      8  C   UNL     1       0.157   2.095 -21.968  0.00  0.00    +0.055 C 
ATOM      9  C   UNL     1       0.106   3.015 -22.885  0.00  0.00    +0.067 C 
ENDBRANCH   1   9
BRANCH   1  10
ATOM     10  C   UNL     1      -2.005   3.009 -23.671  0.00  0.00    +0.150 C 
BRANCH  10  11
ATOM     11  C   UNL     1      -3.201   3.117 -23.172  0.00  0.00    -0.019 A 
ATOM     12  C   UNL     1      -4.155   3.643 -23.881  0.00  0.00    +0.006 A 
ATOM     13  C   UNL     1      -5.351   3.750 -23.384  0.00  0.00    +0.000 A 
ATOM     14  C   UNL     1      -5.592   3.331 -22.177  0.00  0.00    +0.000 A 
ATOM     15  C   UNL     1      -4.638   2.805 -21.468  0.00  0.00    +0.000 A 
ATOM     16  C   UNL     1      -3.442   2.698 -21.966  0.00  0.00    +0.006 A 
ENDBRANCH  10  11
BRANCH  10  17
ATOM     17  O   UNL     1      -1.803   2.273 -24.723  0.00  0.00    -0.387 OA
ATOM     18  H   UNL     1      -2.149   1.381 -24.564  0.00  0.00    +0.210 HD
ENDBRANCH  10  17
ENDBRANCH   1  10
TORSDOF 4
ENDMDL
