MODEL 1
REMARK VINA RESULT:    -9.995      0.000      0.000
REMARK INTER + INTRA:         -13.908
REMARK INTER:                 -13.271
REMARK INTRA:                  -0.637
REMARK UNBOUND:                -0.992
REMARK  Name = ZINC000005808603
REMARK  8 active torsions:
REMARK  status: ('A' for Active; 'I' for Inactive)
REMARK    1  A    between atoms: C_1  and  O_2
REMARK    2  A    between atoms: O_2  and  C_3
REMARK    3  A    between atoms: C_5  and  C_6
REMARK    4  A    between atoms: C_15  and  C_16
REMARK    5  A    between atoms: C_19  and  O_20
REMARK    6  A    between atoms: C_21  and  O_22
REMARK    7  A    between atoms: O_22  and  C_23
REMARK    8  A    between atoms: C_27  and  O_28
REMARK                            x       y       z     vdW  Elec       q    Type
REMARK                         _______ _______ _______ _____ _____    ______ ____
ROOT
ATOM      1  C   UNL     1      -1.235   2.447 -22.460  0.00  0.00    +0.221 C 
ATOM      2  O   UNL     1      -0.736   1.266 -22.251  0.00  0.00    -0.455 OA
ATOM      3  C   UNL     1       0.558   1.357 -22.323  0.00  0.00    +0.316 C 
ATOM      4  C   UNL     1       0.861   2.595 -22.578  0.00  0.00    +0.160 C 
ATOM      5  C   UNL     1       1.848   3.417 -22.781  0.00  0.00    +0.221 C 
ATOM      6  O   UNL     1       1.349   4.599 -22.990  0.00  0.00    -0.455 OA
ATOM      7  C   UNL     1       0.054   4.508 -22.917  0.00  0.00    +0.316 C 
ATOM      8  O   UNL     1      -0.790   5.484 -23.072  0.00  0.00    -0.250 OA
ATOM      9  O   UNL     1       1.403   0.381 -22.169  0.00  0.00    -0.250 OA
ATOM     10  C   UNL     1      -0.248   3.269 -22.663  0.00  0.00    +0.160 C 
ENDROOT
BRANCH   5  11
ATOM     11  C   UNL     1       3.110   3.110 -22.774  0.00  0.00    -0.003 A 
ATOM     12  C   UNL     1       3.880   3.507 -23.744  0.00  0.00    +0.011 A 
ATOM     13  C   UNL     1       5.144   3.200 -23.737  0.00  0.00    +0.049 A 
ATOM     14  C   UNL     1       5.637   2.496 -22.761  0.00  0.00    +0.158 A 
ATOM     15  C   UNL     1       4.867   2.099 -21.792  0.00  0.00    +0.162 A 
ATOM     16  C   UNL     1       3.604   2.407 -21.799  0.00  0.00    +0.056 A 
BRANCH  15  17
ATOM     17  O   UNL     1       5.359   1.395 -20.816  0.00  0.00    -0.491 OA
ATOM     18  C   UNL     1       4.926   0.188 -20.603  0.00  0.00    +0.277 C 
ENDBRANCH  15  17
BRANCH  14  19
ATOM     19  O   UNL     1       6.900   2.189 -22.755  0.00  0.00    -0.503 OA
ATOM     20  H   UNL     1       7.165   1.292 -22.816  0.00  0.00    +0.292 HD
ENDBRANCH  14  19
ENDBRANCH   5  11
BRANCH   1  23
ATOM     21  C   UNL     1      -4.338   3.417 -23.583  0.00  0.00    +0.162 A 
ATOM     22  C   UNL     1      -3.075   3.110 -23.576  0.00  0.00    +0.056 A 
ATOM     23  C   UNL     1      -2.497   2.754 -22.467  0.00  0.00    -0.003 A 
ATOM     24  C   UNL     1      -3.184   2.705 -21.363  0.00  0.00    +0.011 A 
ATOM     25  C   UNL     1      -4.447   3.012 -21.370  0.00  0.00    +0.049 A 
ATOM     26  C   UNL     1      -5.024   3.368 -22.480  0.00  0.00    +0.158 A 
BRANCH  21  28
ATOM     27  C   UNL     1      -4.416   3.396 -25.833  0.00  0.00    +0.277 C 
ATOM     28  O   UNL     1      -4.914   3.773 -24.692  0.00  0.00    -0.491 OA
ENDBRANCH  21  28
BRANCH  26  29
ATOM     29  O   UNL     1      -6.288   3.675 -22.486  0.00  0.00    -0.503 OA
ATOM     30  H   UNL     1      -6.899   3.134 -22.945  0.00  0.00    +0.292 HD
ENDBRANCH  26  29
ENDBRANCH   1  23
TORSDOF 6
ENDMDL
