MODEL 1
REMARK VINA RESULT:   -11.011      0.000      0.000
REMARK INTER + INTRA:         -12.093
REMARK INTER:                 -11.980
REMARK INTRA:                  -0.113
REMARK UNBOUND:                -0.117
REMARK  Name = COc1ccc2c3c1O[C@]1(C)[C@@H](O)[C@H](Cl)C=C4[C@@H](C2)N(C)CC[C@]431   ZINC000253505502
REMARK  5 active torsions:
REMARK  status: ('A' for Active; 'I' for Inactive)
REMARK    1  A    between atoms: C_1  and  O_2
REMARK    2  A    between atoms: O_2  and  C_3
REMARK    3  A    between atoms: C_10  and  C_11
REMARK    4  A    between atoms: C_12  and  O_13
REMARK    5  A    between atoms: N_20  and  C_21
REMARK                            x       y       z     vdW  Elec       q    Type
REMARK                         _______ _______ _______ _____ _____    ______ ____
ROOT
ATOM      1  C   UNL     1       1.599   2.257 -23.819  0.00  0.00    +0.162 A 
ATOM      2  C   UNL     1       1.887   1.804 -22.671  0.00  0.00    +0.050 A 
ATOM      3  C   UNL     1       1.004   1.700 -21.789  0.00  0.00    +0.008 A 
ATOM      4  C   UNL     1      -0.177   2.047 -22.041  0.00  0.00    -0.034 A 
ATOM      5  C   UNL     1      -0.483   2.500 -23.179  0.00  0.00    +0.016 A 
ATOM      6  C   UNL     1      -1.662   2.845 -23.427  0.00  0.00    +0.072 C 
ATOM      7  C   UNL     1      -2.965   3.268 -23.826  0.00  0.00    +0.071 C 
ATOM      8  C   UNL     1      -3.982   3.162 -22.851  0.00  0.00    +0.133 C 
ATOM      9  N   UNL     1      -3.623   2.653 -21.583  0.00  0.00    +0.239 N 
ATOM     10  H   UNL     1      -4.316   2.554 -20.841  0.00  0.00    +0.204 HD
ATOM     11  C   UNL     1      -4.464   2.527 -20.664  0.00  0.00    +0.191 C 
ATOM     12  C   UNL     1      -2.255   2.288 -21.400  0.00  0.00    +0.096 C 
ATOM     13  C   UNL     1      -2.547   2.742 -22.547  0.00  0.00    -0.010 C 
ATOM     14  C   UNL     1      -3.738   3.091 -22.800  0.00  0.00    +0.000 C 
ATOM     15  C   UNL     1      -4.032   3.540 -23.932  0.00  0.00    +0.136 C 
ATOM     16 CL   UNL     1      -5.211   3.884 -24.180  0.00  0.00    -0.115 Cl
ATOM     17  C   UNL     1      -3.143   3.647 -24.828  0.00  0.00    +0.180 C 
ATOM     18  C   UNL     1      -1.965   3.302 -24.578  0.00  0.00    +0.149 C 
ATOM     19  C   UNL     1      -1.974   3.707 -25.766  0.00  0.00    +0.060 C 
ATOM     20  O   UNL     1      -0.549   3.163 -25.092  0.00  0.00    -0.478 OA
ATOM     21  C   UNL     1      -1.079   1.942 -21.147  0.00  0.00    +0.094 C 
ATOM     22  C   UNL     1       0.406   2.606 -24.072  0.00  0.00    +0.167 A 
ENDROOT
BRANCH   1  24
ATOM     23  C   UNL     1       3.689   2.174 -24.402  0.00  0.00    +0.277 C 
ATOM     24  O   UNL     1       2.485   2.360 -24.699  0.00  0.00    -0.491 OA
ENDBRANCH   1  24
BRANCH  17  25
ATOM     25  O   UNL     1      -3.441   4.097 -25.960  0.00  0.00    -0.386 OA
ATOM     26  H   UNL     1      -4.398   4.253 -26.004  0.00  0.00    +0.210 HD
ENDBRANCH  17  25
TORSDOF 2
ENDMDL
