MODEL 1
REMARK VINA RESULT:    -8.091      0.000      0.000
REMARK INTER + INTRA:          -8.091
REMARK INTER:                  -8.091
REMARK INTRA:                   0.000
REMARK UNBOUND:                 0.000
REMARK  Name = ZINC000000120283
REMARK  0 active torsions:
REMARK  status: ('A' for Active; 'I' for Inactive)
REMARK                            x       y       z     vdW  Elec       q    Type
REMARK                         _______ _______ _______ _____ _____    ______ ____
ROOT
ATOM      1  O   UNL     1       2.042   1.341 -23.258  0.00  0.00    -0.245 OA
ATOM      2  C   UNL     1       0.857   1.641 -22.817  0.00  0.00    +0.337 A 
ATOM      3  C   UNL     1       0.574   1.495 -21.557  0.00  0.00    +0.092 A 
ATOM      4  C   UNL     1      -0.611   1.795 -21.117  0.00  0.00    +0.018 A 
ATOM      5  C   UNL     1      -1.515   2.243 -21.939  0.00  0.00    +0.018 A 
ATOM      6  C   UNL     1      -2.701   2.543 -21.499  0.00  0.00    +0.023 A 
ATOM      7  C   UNL     1      -3.604   2.990 -22.320  0.00  0.00    +0.021 A 
ATOM      8  C   UNL     1      -4.839   3.355 -22.140  0.00  0.00    +0.049 A 
ATOM      9  C   UNL     1      -5.319   3.727 -23.290  0.00  0.00    +0.196 A 
ATOM     10  O   UNL     1      -4.382   3.592 -24.180  0.00  0.00    -0.463 OA
ATOM     11  C   UNL     1      -3.322   3.136 -23.581  0.00  0.00    +0.138 A 
ATOM     12  C   UNL     1      -2.136   2.836 -24.020  0.00  0.00    +0.093 A 
ATOM     13  C   UNL     1      -1.233   2.389 -23.199  0.00  0.00    +0.143 A 
ATOM     14  O   UNL     1      -0.047   2.088 -23.638  0.00  0.00    -0.422 OA
ENDROOT
TORSDOF 0
ENDMDL
