MODEL 1
REMARK VINA RESULT:   -11.749      0.000      0.000
REMARK INTER + INTRA:         -11.976
REMARK INTER:                 -12.289
REMARK INTRA:                   0.313
REMARK UNBOUND:                 0.460
REMARK  Name = ZINC000001619757
REMARK  2 active torsions:
REMARK  status: ('A' for Active; 'I' for Inactive)
REMARK    1  A    between atoms: C_1  and  C_2
REMARK    2  A    between atoms: C_2  and  C_3
REMARK                            x       y       z     vdW  Elec       q    Type
REMARK                         _______ _______ _______ _____ _____    ______ ____
ROOT
ATOM      1  C   UNL     1      -3.953   3.317 -22.435  0.00  0.00    +0.038 C 
ATOM      2  C   UNL     1      -5.220   3.616 -22.883  0.00  0.00    +0.017 C 
ATOM      3  C   UNL     1      -5.334   3.931 -24.392  0.00  0.00    +0.036 C 
ATOM      4  C   UNL     1      -4.138   3.903 -25.259  0.00  0.00    +0.024 C 
ATOM      5  C   UNL     1      -2.872   3.571 -24.645  0.00  0.00    +0.085 C 
ATOM      6  C   UNL     1      -1.868   3.433 -24.791  0.00  0.00    +0.029 A 
ATOM      7  N   UNL     1      -0.846   3.429 -25.638  0.00  0.00    -0.357 N 
ATOM      8  H   UNL     1      -0.897   3.627 -26.601  0.00  0.00    +0.166 HD
ATOM      9  C   UNL     1       0.257   3.114 -24.968  0.00  0.00    +0.047 A 
ATOM     10  C   UNL     1       1.524   2.987 -25.394  0.00  0.00    +0.026 A 
ATOM     11  C   UNL     1       2.493   2.657 -24.535  0.00  0.00    +0.002 A 
ATOM     12  C   UNL     1       2.195   2.450 -23.231  0.00  0.00    +0.001 A 
ATOM     13  C   UNL     1       0.915   2.576 -22.788  0.00  0.00    +0.010 A 
ATOM     14  C   UNL     1      -0.059   2.909 -23.655  0.00  0.00    +0.003 A 
ATOM     15  C   UNL     1      -1.421   3.112 -23.534  0.00  0.00    -0.014 A 
ATOM     16  C   UNL     1      -2.690   3.100 -22.397  0.00  0.00    +0.088 C 
ATOM     17  C   UNL     1      -4.170   3.464 -22.998  0.00  0.00    +0.136 C 
ATOM     18  N   UNL     1      -4.046   3.537 -23.477  0.00  0.00    +0.238 N 
ATOM     19  H   UNL     1      -5.053   3.698 -23.442  0.00  0.00    +0.204 HD
ATOM     20  C   UNL     1      -4.364   3.777 -24.426  0.00  0.00    +0.135 C 
ATOM     21  C   UNL     1      -2.916   3.361 -23.535  0.00  0.00    +0.076 C 
ENDROOT
BRANCH   1  23
ATOM     22  C   UNL     1      -3.221   3.602 -20.295  0.00  0.00    +0.004 C 
ATOM     23  C   UNL     1      -3.817   3.056 -21.222  0.00  0.00    +0.006 C 
ENDBRANCH   1  23
TORSDOF 1
ENDMDL
