MODEL 1
REMARK VINA RESULT:    -5.915      0.000      0.000
REMARK INTER + INTRA:          -6.989
REMARK INTER:                  -7.493
REMARK INTRA:                   0.503
REMARK UNBOUND:                -0.210
REMARK  Name = ZINC000000000181
REMARK  6 active torsions:
REMARK  status: ('A' for Active; 'I' for Inactive)
REMARK    1  A    between atoms: C_1  and  O_2
REMARK    2  A    between atoms: O_2  and  C_3
REMARK    3  A    between atoms: C_11  and  O_12
REMARK    4  A    between atoms: O_12  and  C_13
REMARK    5  A    between atoms: C_14  and  O_15
REMARK    6  A    between atoms: N_20  and  C_21
REMARK                            x       y       z     vdW  Elec       q    Type
REMARK                         _______ _______ _______ _____ _____    ______ ____
ROOT
ATOM      1  C   UNL     1       1.189   1.478 -21.404  0.00  0.00    +0.159 C 
ATOM      2  C   UNL     1       0.302   2.282 -22.037  0.00  0.00    +0.032 C 
ATOM      3  C   UNL     1       0.352   2.609 -23.526  0.00  0.00    +0.075 C 
ATOM      4  C   UNL     1      -0.195   4.006 -23.857  0.00  0.00    +0.076 C 
ATOM      5  C   UNL     1       0.666   5.092 -23.186  0.00  0.00    +0.090 C 
ATOM      6  C   UNL     1       2.166   4.823 -23.184  0.00  0.00    -0.035 A 
ATOM      7  C   UNL     1       2.999   5.859 -22.723  0.00  0.00    +0.008 A 
ATOM      8  C   UNL     1       4.394   5.724 -22.750  0.00  0.00    +0.049 A 
ATOM      9  C   UNL     1       4.982   4.555 -23.281  0.00  0.00    +0.162 A 
ATOM     10  C   UNL     1       4.146   3.514 -23.749  0.00  0.00    +0.163 A 
ATOM     11  C   UNL     1       2.725   3.599 -23.654  0.00  0.00    +0.009 A 
ATOM     12  N   UNL     1      -0.277   4.198 -25.318  0.00  0.00    +0.236 N 
ATOM     13  H   UNL     1      -0.444   5.199 -25.425  0.00  0.00    +0.203 HD
ATOM     14  C   UNL     1      -1.408   3.495 -25.921  0.00  0.00    +0.190 C 
ATOM     15  C   UNL     1       0.973   3.924 -26.041  0.00  0.00    +0.132 C 
ATOM     16  C   UNL     1       1.598   2.564 -25.647  0.00  0.00    +0.064 C 
ATOM     17  C   UNL     1       1.780   2.452 -24.118  0.00  0.00    +0.023 C 
ATOM     18  C   UNL     1       2.244   1.023 -23.710  0.00  0.00    +0.095 C 
ATOM     19  C   UNL     1       2.257   0.825 -22.191  0.00  0.00    +0.198 C 
ATOM     20  O   UNL     1       3.114   0.095 -21.697  0.00  0.00    -0.289 OA
ENDROOT
BRANCH   1  22
ATOM     21  C   UNL     1       2.418   1.234 -19.358  0.00  0.00    +0.277 C 
ATOM     22  O   UNL     1       1.181   1.197 -20.055  0.00  0.00    -0.492 OA
ENDBRANCH   1  22
BRANCH  10  23
ATOM     23  O   UNL     1       4.767   2.445 -24.328  0.00  0.00    -0.503 OA
ATOM     24  H   UNL     1       4.603   1.579 -24.008  0.00  0.00    +0.292 HD
ENDBRANCH  10  23
BRANCH   9  25
ATOM     25  O   UNL     1       6.345   4.369 -23.384  0.00  0.00    -0.491 OA
ATOM     26  C   UNL     1       7.082   4.077 -22.206  0.00  0.00    +0.277 C 
ENDBRANCH   9  25
TORSDOF 3
ENDMDL
