MODEL 1
REMARK VINA RESULT:    -7.621      0.000      0.000
REMARK INTER + INTRA:          -8.572
REMARK INTER:                  -8.678
REMARK INTRA:                   0.106
REMARK UNBOUND:                 0.162
REMARK  Name = ZINC000014776248
REMARK  5 active torsions:
REMARK  status: ('A' for Active; 'I' for Inactive)
REMARK    1  A    between atoms: C_1  and  O_2
REMARK    2  A    between atoms: O_2  and  C_3
REMARK    3  A    between atoms: C_5  and  O_6
REMARK    4  A    between atoms: C_7  and  O_8
REMARK    5  A    between atoms: O_8  and  C_9
REMARK                            x       y       z     vdW  Elec       q    Type
REMARK                         _______ _______ _______ _____ _____    ______ ____
ROOT
ATOM      1  C   UNL     1      -1.199   2.499 -22.574  0.00  0.00    +0.134 A 
ATOM      2  C   UNL     1      -0.630   2.732 -23.719  0.00  0.00    +0.095 A 
ATOM      3  C   UNL     1      -1.335   3.178 -24.717  0.00  0.00    +0.166 A 
ATOM      4  C   UNL     1      -2.609   3.389 -24.569  0.00  0.00    +0.205 A 
ATOM      5  C   UNL     1      -3.179   3.156 -23.423  0.00  0.00    +0.188 A 
ATOM      6  O   UNL     1      -4.453   3.367 -23.275  0.00  0.00    -0.418 OA
ATOM      7  C   UNL     1      -5.021   3.134 -22.131  0.00  0.00    +0.337 A 
ATOM      8  C   UNL     1      -4.316   2.688 -21.133  0.00  0.00    +0.093 A 
ATOM      9  C   UNL     1      -3.042   2.477 -21.281  0.00  0.00    +0.022 A 
ATOM     10  O   UNL     1      -6.295   3.345 -21.983  0.00  0.00    -0.245 OA
ATOM     11  C   UNL     1      -2.474   2.710 -22.426  0.00  0.00    +0.063 A 
ENDROOT
BRANCH   1  13
ATOM     12  C   UNL     1       0.654   1.482 -21.797  0.00  0.00    +0.277 C 
ATOM     13  O   UNL     1      -0.494   2.053 -21.577  0.00  0.00    -0.494 OA
ENDBRANCH   1  13
BRANCH   4  14
ATOM     14  O   UNL     1      -3.314   3.835 -25.566  0.00  0.00    -0.488 OA
ATOM     15  C   UNL     1      -4.012   3.010 -26.289  0.00  0.00    +0.277 C 
ENDBRANCH   4  14
BRANCH   3  16
ATOM     16  O   UNL     1      -0.767   3.412 -25.862  0.00  0.00    -0.503 OA
ATOM     17  H   UNL     1      -0.984   2.889 -26.609  0.00  0.00    +0.292 HD
ENDBRANCH   3  16
TORSDOF 3
ENDMDL
