MODEL 1
REMARK VINA RESULT:    -9.460      0.000      0.000
REMARK INTER + INTRA:          -9.736
REMARK INTER:                  -9.736
REMARK INTRA:                   0.000
REMARK UNBOUND:                 0.000
REMARK  Name = ZINC000019800969
REMARK  4 active torsions:
REMARK  status: ('A' for Active; 'I' for Inactive)
REMARK    1  A    between atoms: C_1  and  C_2
REMARK    2  A    between atoms: C_2  and  C_3
REMARK    3  A    between atoms: C_12  and  C_13
REMARK    4  A    between atoms: C_12  and  O_14
REMARK                            x       y       z     vdW  Elec       q    Type
REMARK                         _______ _______ _______ _____ _____    ______ ____
ROOT
ATOM      1  C   UNL     1      -3.681   3.970 -25.576  0.00  0.00    +0.012 C 
ATOM      2  C   UNL     1      -2.591   3.474 -25.069  0.00  0.00    -0.021 C 
ATOM      3  C   UNL     1      -1.775   2.948 -24.203  0.00  0.00    +0.065 C 
ATOM      4  C   UNL     1      -0.826   2.428 -23.482  0.00  0.00    +0.137 C 
ATOM      5  C   UNL     1      -0.870   2.048 -22.240  0.00  0.00    +0.075 C 
ATOM      6  C   UNL     1      -1.872   2.094 -21.412  0.00  0.00    +0.011 C 
ATOM      7  C   UNL     1      -3.077   2.532 -21.623  0.00  0.00    -0.004 C 
ATOM      8  C   UNL     1      -4.008   2.531 -20.715  0.00  0.00    +0.007 C 
ATOM      9  C   UNL     1      -5.085   3.030 -21.244  0.00  0.00    +0.035 C 
ATOM     10  C   UNL     1      -4.821   3.340 -22.478  0.00  0.00    +0.067 C 
ATOM     11  C   UNL     1      -4.814   3.730 -23.718  0.00  0.00    +0.041 C 
ATOM     12  C   UNL     1      -3.579   3.032 -22.713  0.00  0.00    +0.028 C 
ATOM     13  O   UNL     1       0.315   2.266 -24.082  0.00  0.00    -0.297 OA
ATOM     14  C   UNL     1      -1.804   3.558 -26.100  0.00  0.00    +0.012 C 
ATOM     15  C   UNL     1      -3.000   3.217 -23.862  0.00  0.00    +0.012 C 
ENDROOT
BRANCH  10  16
ATOM     16  O   UNL     1      -6.060   3.729 -22.504  0.00  0.00    -0.389 OA
ATOM     17  H   UNL     1      -6.270   4.081 -23.384  0.00  0.00    +0.210 HD
ENDBRANCH  10  16
TORSDOF 1
ENDMDL
