MODEL 1
REMARK VINA RESULT:    -9.916      0.000      0.000
REMARK INTER + INTRA:         -10.495
REMARK INTER:                 -10.495
REMARK INTRA:                   0.000
REMARK UNBOUND:                 0.000
REMARK  Name = ZINC000004104693
REMARK  6 active torsions:
REMARK  status: ('A' for Active; 'I' for Inactive)
REMARK    1  A    between atoms: C_1  and  C_2
REMARK    2  A    between atoms: C_2  and  C_3
REMARK    3  A    between atoms: C_7  and  C_8
REMARK    4  A    between atoms: C_7  and  O_9
REMARK    5  A    between atoms: C_13  and  C_14
REMARK    6  A    between atoms: C_13  and  O_15
REMARK                            x       y       z     vdW  Elec       q    Type
REMARK                         _______ _______ _______ _____ _____    ______ ____
ROOT
ATOM      1  C   UNL     1      -0.000   2.200 -22.977  0.00  0.00    +0.011 C 
ATOM      2  C   UNL     1      -1.008   2.284 -22.159  0.00  0.00    -0.028 C 
ATOM      3  C   UNL     1      -2.211   2.510 -21.723  0.00  0.00    -0.001 C 
ATOM      4  C   UNL     1      -3.347   2.678 -21.114  0.00  0.00    +0.007 C 
ATOM      5  C   UNL     1      -4.475   3.101 -21.603  0.00  0.00    +0.035 C 
ATOM      6  C   UNL     1      -4.745   3.463 -22.822  0.00  0.00    +0.066 C 
ATOM      7  C   UNL     1      -3.954   3.489 -23.853  0.00  0.00    +0.027 C 
ATOM      8  C   UNL     1      -4.332   3.871 -25.037  0.00  0.00    +0.009 C 
ATOM      9  C   UNL     1      -3.310   3.780 -25.835  0.00  0.00    +0.035 C 
ATOM     10  C   UNL     1      -2.299   3.340 -25.145  0.00  0.00    +0.067 C 
ATOM     11  C   UNL     1      -1.156   2.921 -24.691  0.00  0.00    +0.041 C 
ATOM     12  C   UNL     1      -2.697   3.161 -23.921  0.00  0.00    +0.030 C 
ATOM     13  C   UNL     1      -5.520   3.898 -23.771  0.00  0.00    +0.041 C 
ATOM     14  C   UNL     1      -0.444   1.871 -21.063  0.00  0.00    +0.011 C 
ATOM     15  C   UNL     1      -1.922   2.725 -22.972  0.00  0.00    +0.005 C 
ENDROOT
BRANCH  10  16
ATOM     16  O   UNL     1      -1.662   3.432 -26.274  0.00  0.00    -0.389 OA
ATOM     17  H   UNL     1      -2.105   2.881 -26.940  0.00  0.00    +0.210 HD
ENDBRANCH  10  16
BRANCH   6  18
ATOM     18  O   UNL     1      -5.881   3.630 -22.213  0.00  0.00    -0.389 OA
ATOM     19  H   UNL     1      -5.819   3.280 -21.310  0.00  0.00    +0.210 HD
ENDBRANCH   6  18
TORSDOF 2
ENDMDL
