MODEL 1
REMARK VINA RESULT:    -8.640      0.000      0.000
REMARK INTER + INTRA:         -17.085
REMARK INTER:                 -14.947
REMARK INTRA:                  -2.137
REMARK UNBOUND:                -0.868
REMARK  Name = CCCCCCCCCCCC1=C(O)C(=O)C=C(Nc2cc(OC)c(OC)c(OC)c2)C1=O                ZINC000100392827
REMARK  19 active torsions:
REMARK  status: ('A' for Active; 'I' for Inactive)
REMARK    1  A    between atoms: C_1  and  C_2
REMARK    2  A    between atoms: C_2  and  C_3
REMARK    3  A    between atoms: C_3  and  C_4
REMARK    4  A    between atoms: C_4  and  C_5
REMARK    5  A    between atoms: C_5  and  C_6
REMARK    6  A    between atoms: C_6  and  C_7
REMARK    7  A    between atoms: C_7  and  C_8
REMARK    8  A    between atoms: C_8  and  C_9
REMARK    9  A    between atoms: C_9  and  C_10
REMARK   10  A    between atoms: C_10  and  C_11
REMARK   11  A    between atoms: C_11  and  C_12
REMARK   12  A    between atoms: C_18  and  N_19
REMARK   13  A    between atoms: N_19  and  C_20
REMARK   14  A    between atoms: C_22  and  O_23
REMARK   15  A    between atoms: O_23  and  C_24
REMARK   16  A    between atoms: C_25  and  O_26
REMARK   17  A    between atoms: O_26  and  C_27
REMARK   18  A    between atoms: C_28  and  O_29
REMARK   19  A    between atoms: O_29  and  C_30
REMARK                            x       y       z     vdW  Elec       q    Type
REMARK                         _______ _______ _______ _____ _____    ______ ____
ROOT
ATOM      1  C   UNL     1       0.790   2.472 -23.109  0.00  0.00    -0.008 C 
ATOM      2  C   UNL     1       0.887   1.899 -21.946  0.00  0.00    +0.228 C 
ATOM      3  C   UNL     1       2.058   1.631 -21.449  0.00  0.00    +0.227 C 
ATOM      4  C   UNL     1       3.131   1.935 -22.115  0.00  0.00    +0.077 C 
ATOM      5  C   UNL     1       3.035   2.508 -23.278  0.00  0.00    +0.022 C 
ATOM      6  O   UNL     1       2.154   1.058 -20.286  0.00  0.00    -0.284 OA
ATOM      7  O   UNL     1      -0.188   1.594 -21.280  0.00  0.00    -0.284 OA
ATOM      8  C   UNL     1       1.864   2.776 -23.775  0.00  0.00    -0.112 C 
ATOM      9  O   UNL     1       1.768   3.349 -24.938  0.00  0.00    -0.828 OA
ENDROOT
BRANCH   5  10
ATOM     10  N   UNL     1       4.109   2.813 -23.944  0.00  0.00    -0.315 N 
ATOM     11  H   UNL     1       4.271   2.412 -24.828  0.00  0.00    +0.152 HD
BRANCH  10  12
ATOM     12  C   UNL     1       4.970   3.648 -23.442  0.00  0.00    +0.038 A 
ATOM     13  C   UNL     1       6.244   3.412 -23.548  0.00  0.00    +0.072 A 
ATOM     14  C   UNL     1       7.104   4.247 -23.046  0.00  0.00    +0.167 A 
ATOM     15  C   UNL     1       6.690   5.319 -22.437  0.00  0.00    +0.204 A 
ATOM     16  C   UNL     1       5.416   5.556 -22.331  0.00  0.00    +0.167 A 
ATOM     17  C   UNL     1       4.556   4.720 -22.833  0.00  0.00    +0.072 A 
BRANCH  14  18
ATOM     18  O   UNL     1       8.378   4.011 -23.152  0.00  0.00    -0.491 OA
ATOM     19  C   UNL     1       8.869   3.593 -24.281  0.00  0.00    +0.277 C 
ENDBRANCH  14  18
BRANCH  15  20
ATOM     20  O   UNL     1       7.550   6.154 -21.935  0.00  0.00    -0.488 OA
ATOM     21  C   UNL     1       8.072   7.079 -22.685  0.00  0.00    +0.277 C 
ENDBRANCH  15  20
BRANCH  16  22
ATOM     22  O   UNL     1       5.002   6.627 -21.722  0.00  0.00    -0.491 OA
ATOM     23  C   UNL     1       4.063   7.352 -22.251  0.00  0.00    +0.277 C 
ENDBRANCH  16  22
ENDBRANCH  10  12
ENDBRANCH   5  10
BRANCH   1  24
ATOM     24  C   UNL     1      -0.381   2.740 -23.606  0.00  0.00    +0.038 C 
BRANCH  24  25
ATOM     25  C   UNL     1      -0.973   3.858 -23.307  0.00  0.00    +0.005 C 
BRANCH  25  26
ATOM     26  C   UNL     1      -1.891   4.339 -24.094  0.00  0.00    +0.000 C 
BRANCH  26  27
ATOM     27  C   UNL     1      -2.633   3.534 -24.794  0.00  0.00    +0.000 C 
BRANCH  27  28
ATOM     28  C   UNL     1      -3.853   3.869 -25.091  0.00  0.00    +0.000 C 
BRANCH  28  29
ATOM     29  C   UNL     1      -4.620   4.399 -24.186  0.00  0.00    +0.000 C 
BRANCH  29  30
ATOM     30  C   UNL     1      -5.329   3.639 -23.405  0.00  0.00    -0.000 C 
BRANCH  30  31
ATOM     31  C   UNL     1      -5.115   3.641 -22.124  0.00  0.00    -0.000 C 
BRANCH  31  32
ATOM     32  C   UNL     1      -4.625   2.585 -21.545  0.00  0.00    -0.000 C 
BRANCH  32  34
ATOM     33  C   UNL     1      -3.123   3.709 -20.300  0.00  0.00    +0.004 C 
ATOM     34  C   UNL     1      -3.465   2.643 -20.960  0.00  0.00    -0.003 C 
ENDBRANCH  32  34
ENDBRANCH  31  32
ENDBRANCH  30  31
ENDBRANCH  29  30
ENDBRANCH  28  29
ENDBRANCH  27  28
ENDBRANCH  26  27
ENDBRANCH  25  26
ENDBRANCH  24  25
ENDBRANCH   1  24
TORSDOF 15
ENDMDL
