MODEL 1
REMARK VINA RESULT:    -9.793      0.000      0.000
REMARK INTER + INTRA:          -7.387
REMARK INTER:                 -11.497
REMARK INTRA:                   4.110
REMARK UNBOUND:                 4.124
REMARK  Name = COc1ccc2c3c1O[C@@H]1C(OC)(OC)CC[C@@H]4[C@H](C2)N(C)CC[C@]341         ZINC000096316412
REMARK  7 active torsions:
REMARK  status: ('A' for Active; 'I' for Inactive)
REMARK    1  A    between atoms: C_1  and  O_2
REMARK    2  A    between atoms: O_2  and  C_3
REMARK    3  A    between atoms: C_11  and  O_12
REMARK    4  A    between atoms: C_11  and  O_14
REMARK    5  A    between atoms: O_12  and  C_13
REMARK    6  A    between atoms: O_14  and  C_15
REMARK    7  A    between atoms: N_21  and  C_22
REMARK                            x       y       z     vdW  Elec       q    Type
REMARK                         _______ _______ _______ _____ _____    ______ ____
ROOT
ATOM      1  C   UNL     1       1.439   1.869 -22.043  0.00  0.00    +0.162 A 
ATOM      2  C   UNL     1       2.091   1.951 -23.128  0.00  0.00    +0.050 A 
ATOM      3  C   UNL     1       1.533   2.341 -24.179  0.00  0.00    +0.008 A 
ATOM      4  C   UNL     1       0.317   2.654 -24.159  0.00  0.00    -0.035 A 
ATOM      5  C   UNL     1      -0.354   2.581 -23.092  0.00  0.00    +0.012 A 
ATOM      6  C   UNL     1      -1.567   2.895 -23.078  0.00  0.00    +0.054 C 
ATOM      7  C   UNL     1      -2.951   3.224 -22.937  0.00  0.00    +0.067 C 
ATOM      8  C   UNL     1      -3.610   3.668 -24.107  0.00  0.00    +0.132 C 
ATOM      9  N   UNL     1      -2.850   3.747 -25.298  0.00  0.00    +0.236 N 
ATOM     10  H   UNL     1      -3.275   4.061 -26.170  0.00  0.00    +0.203 HD
ATOM     11  C   UNL     1      -3.358   4.131 -26.378  0.00  0.00    +0.190 C 
ATOM     12  C   UNL     1      -1.474   3.367 -25.211  0.00  0.00    +0.072 C 
ATOM     13  C   UNL     1      -2.130   3.286 -24.128  0.00  0.00    +0.053 C 
ATOM     14  C   UNL     1      -3.359   3.604 -24.112  0.00  0.00    +0.015 C 
ATOM     15  C   UNL     1      -4.010   3.525 -23.042  0.00  0.00    +0.069 C 
ATOM     16  C   UNL     1      -3.452   3.131 -21.976  0.00  0.00    +0.208 C 
ATOM     17  C   UNL     1      -2.236   2.818 -21.995  0.00  0.00    +0.244 C 
ATOM     18  O   UNL     1      -1.044   2.322 -21.202  0.00  0.00    -0.479 OA
ATOM     19  C   UNL     1      -0.260   3.054 -25.229  0.00  0.00    +0.090 C 
ATOM     20  C   UNL     1       0.208   2.187 -22.027  0.00  0.00    +0.167 A 
ENDROOT
BRANCH   1  22
ATOM     21  C   UNL     1       3.204   1.116 -21.022  0.00  0.00    +0.277 C 
ATOM     22  O   UNL     1       2.002   1.477 -20.993  0.00  0.00    -0.491 OA
ENDBRANCH   1  22
BRANCH  16  23
ATOM     23  O   UNL     1      -4.612   3.334 -21.546  0.00  0.00    -0.349 OA
ATOM     24  C   UNL     1      -5.373   2.365 -21.310  0.00  0.00    +0.197 C 
ENDBRANCH  16  23
BRANCH  16  25
ATOM     25  O   UNL     1      -3.294   2.810 -20.774  0.00  0.00    -0.349 OA
ATOM     26  C   UNL     1      -3.289   3.693 -19.883  0.00  0.00    +0.197 C 
ENDBRANCH  16  25
TORSDOF 3
ENDMDL
