MODEL 1
REMARK VINA RESULT:   -10.070      0.000      0.000
REMARK INTER + INTRA:         -14.352
REMARK INTER:                 -13.654
REMARK INTRA:                  -0.698
REMARK UNBOUND:                -1.044
REMARK  Name = CC1(C)O[C@H]2[C@H](O1)[C@H](COC(=O)c1ccccc1)O[C@H]2n1cnc2c(O)ncnc21  ZINC000103133248
REMARK  8 active torsions:
REMARK  status: ('A' for Active; 'I' for Inactive)
REMARK    1  A    between atoms: C_1  and  C_2
REMARK    2  A    between atoms: C_2  and  C_3
REMARK    3  A    between atoms: C_8  and  C_9
REMARK    4  A    between atoms: C_9  and  O_10
REMARK    5  A    between atoms: O_10  and  C_11
REMARK    6  A    between atoms: C_11  and  C_13
REMARK    7  A    between atoms: C_20  and  N_21
REMARK    8  A    between atoms: C_25  and  O_26
REMARK                            x       y       z     vdW  Elec       q    Type
REMARK                         _______ _______ _______ _____ _____    ______ ____
ROOT
ATOM      1  C   UNL     1       1.000   3.961 -25.901  0.00  0.00    +0.074 C 
ATOM      2  C   UNL     1       0.459   3.414 -24.852  0.00  0.00    +0.166 C 
ATOM      3  O   UNL     1       1.691   3.200 -24.497  0.00  0.00    -0.339 OA
ATOM      4  C   UNL     1       1.677   2.589 -23.349  0.00  0.00    +0.203 C 
ATOM      5  C   UNL     1       0.437   2.426 -22.995  0.00  0.00    +0.187 C 
ATOM      6  C   UNL     1       0.423   1.816 -21.848  0.00  0.00    +0.190 C 
ATOM      7  O   UNL     1       1.655   1.601 -21.492  0.00  0.00    -0.345 OA
ATOM      8  C   UNL     1       2.431   2.079 -22.420  0.00  0.00    +0.254 C 
ATOM      9  C   UNL     1      -0.660   3.743 -25.428  0.00  0.00    +0.074 C 
ATOM     10  O   UNL     1      -0.316   2.936 -23.925  0.00  0.00    -0.341 OA
ENDROOT
BRANCH   8  11
ATOM     11  N   UNL     1       3.730   2.052 -22.419  0.00  0.00    -0.285 N 
ATOM     12  C   UNL     1       4.473   0.994 -22.274  0.00  0.00    +0.203 A 
ATOM     13  N   UNL     1       5.717   1.367 -22.328  0.00  0.00    -0.229 NA
ATOM     14  C   UNL     1       5.744   2.656 -22.506  0.00  0.00    +0.169 A 
ATOM     15  C   UNL     1       6.725   3.496 -22.624  0.00  0.00    +0.244 A 
ATOM     16  N   UNL     1       6.483   4.762 -22.798  0.00  0.00    -0.200 NA
ATOM     17  C   UNL     1       5.254   5.184 -22.854  0.00  0.00    +0.227 A 
ATOM     18  N   UNL     1       4.270   4.343 -22.736  0.00  0.00    -0.216 NA
ATOM     19  C   UNL     1       4.515   3.077 -22.562  0.00  0.00    +0.169 A 
BRANCH  15  20
ATOM     20  O   UNL     1       7.954   3.073 -22.568  0.00  0.00    -0.491 OA
ATOM     21  H   UNL     1       8.481   3.063 -23.343  0.00  0.00    +0.294 HD
ENDBRANCH  15  20
ENDBRANCH   8  11
BRANCH   6  22
ATOM     22  C   UNL     1      -0.636   1.479 -21.175  0.00  0.00    +0.266 C 
BRANCH  22  23
ATOM     23  O   UNL     1      -1.816   1.635 -21.698  0.00  0.00    -0.458 OA
BRANCH  23  24
ATOM     24  C   UNL     1      -2.585   2.602 -21.292  0.00  0.00    +0.339 C 
ATOM     25  O   UNL     1      -2.355   3.179 -20.150  0.00  0.00    -0.245 OA
BRANCH  24  26
ATOM     26  C   UNL     1      -3.583   2.991 -22.027  0.00  0.00    +0.059 A 
ATOM     27  C   UNL     1      -3.374   3.420 -23.236  0.00  0.00    +0.015 A 
ATOM     28  C   UNL     1      -4.371   3.809 -23.971  0.00  0.00    +0.001 A 
ATOM     29  C   UNL     1      -5.582   3.769 -23.498  0.00  0.00    +0.000 A 
ATOM     30  C   UNL     1      -5.792   3.339 -22.289  0.00  0.00    +0.001 A 
ATOM     31  C   UNL     1      -4.794   2.950 -21.554  0.00  0.00    +0.015 A 
ENDBRANCH  24  26
ENDBRANCH  23  24
ENDBRANCH  22  23
ENDBRANCH   6  22
TORSDOF 6
ENDMDL
