MODEL 1
REMARK VINA RESULT:    -8.125      0.000      0.000
REMARK INTER + INTRA:          -9.269
REMARK INTER:                  -9.082
REMARK INTRA:                  -0.187
REMARK UNBOUND:                -0.194
REMARK  Name = ZINC000000338166
REMARK  6 active torsions:
REMARK  status: ('A' for Active; 'I' for Inactive)
REMARK    1  A    between atoms: C_1  and  O_2
REMARK    2  A    between atoms: O_2  and  C_3
REMARK    3  A    between atoms: C_5  and  O_6
REMARK    4  A    between atoms: O_6  and  C_7
REMARK    5  A    between atoms: C_12  and  C_13
REMARK    6  A    between atoms: C_12  and  C_14
REMARK                            x       y       z     vdW  Elec       q    Type
REMARK                         _______ _______ _______ _____ _____    ______ ____
ROOT
ATOM      1  C   UNL     1       0.487   1.716 -22.025  0.00  0.00    +0.127 A 
ATOM      2  C   UNL     1       0.655   2.311 -23.170  0.00  0.00    +0.092 A 
ATOM      3  C   UNL     1      -0.348   2.901 -23.748  0.00  0.00    +0.138 A 
ATOM      4  C   UNL     1      -1.520   2.897 -23.183  0.00  0.00    +0.101 A 
ATOM      5  C   UNL     1      -1.687   2.302 -22.039  0.00  0.00    +0.139 A 
ATOM      6  O   UNL     1      -2.857   2.297 -21.474  0.00  0.00    -0.485 OA
ATOM      7  C   UNL     1      -3.861   2.887 -22.052  0.00  0.00    +0.112 C 
ATOM      8  C   UNL     1      -3.693   3.482 -23.196  0.00  0.00    +0.127 C 
ATOM      9  C   UNL     1      -5.067   3.323 -22.259  0.00  0.00    +0.056 C 
ATOM     10  C   UNL     1      -4.447   2.444 -20.980  0.00  0.00    +0.056 C 
ATOM     11  C   UNL     1      -2.523   3.487 -23.761  0.00  0.00    +0.174 C 
ATOM     12  O   UNL     1      -2.356   4.082 -24.905  0.00  0.00    -0.292 OA
ATOM     13  C   UNL     1      -0.683   1.712 -21.461  0.00  0.00    +0.092 A 
ENDROOT
BRANCH   1  15
ATOM     14  C   UNL     1       2.519   0.755 -22.149  0.00  0.00    +0.277 C 
ATOM     15  O   UNL     1       1.491   1.126 -21.447  0.00  0.00    -0.495 OA
ENDBRANCH   1  15
BRANCH   3  16
ATOM     16  O   UNL     1      -0.181   3.496 -24.892  0.00  0.00    -0.494 OA
ATOM     17  C   UNL     1       1.019   3.713 -25.342  0.00  0.00    +0.277 C 
ENDBRANCH   3  16
TORSDOF 2
ENDMDL
