MODEL 1
REMARK VINA RESULT:    -8.875      0.000      0.000
REMARK INTER + INTRA:         -12.056
REMARK INTER:                 -11.956
REMARK INTRA:                  -0.100
REMARK UNBOUND:                -0.068
REMARK  Name = ZINC000018269677
REMARK  12 active torsions:
REMARK  status: ('A' for Active; 'I' for Inactive)
REMARK    1  A    between atoms: C_1  and  O_2
REMARK    2  A    between atoms: O_2  and  C_3
REMARK    3  A    between atoms: C_6  and  C_7
REMARK    4  A    between atoms: C_9  and  C_10
REMARK    5  A    between atoms: C_13  and  O_14
REMARK    6  A    between atoms: O_14  and  C_15
REMARK    7  A    between atoms: C_16  and  O_17
REMARK    8  A    between atoms: O_17  and  C_18
REMARK    9  A    between atoms: C_20  and  C_21
REMARK   10  A    between atoms: C_22  and  C_23
REMARK   11  A    between atoms: C_25  and  O_26
REMARK   12  A    between atoms: O_26  and  C_27
REMARK                            x       y       z     vdW  Elec       q    Type
REMARK                         _______ _______ _______ _____ _____    ______ ____
ROOT
ATOM      1  C   UNL     1       1.244   3.216 -23.432  0.00  0.00    +0.152 C 
ATOM      2  O   UNL     1       0.213   3.224 -22.642  0.00  0.00    -0.364 OA
ATOM      3  C   UNL     1      -0.856   3.316 -23.378  0.00  0.00    +0.152 C 
ATOM      4  C   UNL     1      -0.483   3.365 -24.623  0.00  0.00    +0.025 C 
ATOM      5  C   UNL     1      -1.271   3.459 -25.652  0.00  0.00    +0.011 C 
ATOM      6  C   UNL     1       0.815   3.304 -24.657  0.00  0.00    +0.025 C 
ATOM      7  C   UNL     1       1.553   3.326 -25.726  0.00  0.00    +0.011 C 
ENDROOT
BRANCH   3   8
ATOM      8  C   UNL     1      -2.081   3.352 -22.945  0.00  0.00    -0.015 A 
ATOM      9  C   UNL     1      -2.347   3.011 -21.718  0.00  0.00    +0.010 A 
ATOM     10  C   UNL     1      -3.573   3.047 -21.286  0.00  0.00    +0.050 A 
ATOM     11  C   UNL     1      -4.531   3.424 -22.078  0.00  0.00    +0.162 A 
ATOM     12  C   UNL     1      -4.265   3.765 -23.304  0.00  0.00    +0.162 A 
ATOM     13  C   UNL     1      -3.040   3.729 -23.737  0.00  0.00    +0.055 A 
BRANCH  12  14
ATOM     14  O   UNL     1      -5.224   4.142 -24.097  0.00  0.00    -0.491 OA
ATOM     15  C   UNL     1      -5.224   3.765 -25.341  0.00  0.00    +0.277 C 
ENDBRANCH  12  14
BRANCH  11  16
ATOM     16  O   UNL     1      -5.756   3.461 -21.645  0.00  0.00    -0.491 OA
ATOM     17  C   UNL     1      -6.430   2.357 -21.506  0.00  0.00    +0.277 C 
ENDBRANCH  11  16
ENDBRANCH   3   8
BRANCH   1  21
ATOM     18  C   UNL     1       4.977   2.975 -22.325  0.00  0.00    +0.162 A 
ATOM     19  C   UNL     1       4.494   4.108 -22.742  0.00  0.00    +0.050 A 
ATOM     20  C   UNL     1       3.250   4.189 -23.111  0.00  0.00    +0.010 A 
ATOM     21  C   UNL     1       2.489   3.136 -23.063  0.00  0.00    -0.015 A 
ATOM     22  C   UNL     1       2.971   2.003 -22.647  0.00  0.00    +0.055 A 
ATOM     23  C   UNL     1       4.215   1.922 -22.278  0.00  0.00    +0.162 A 
BRANCH  18  25
ATOM     24  C   UNL     1       6.709   3.764 -21.121  0.00  0.00    +0.277 C 
ATOM     25  O   UNL     1       6.221   2.895 -21.956  0.00  0.00    -0.491 OA
ENDBRANCH  18  25
BRANCH  23  26
ATOM     26  O   UNL     1       4.698   0.789 -21.862  0.00  0.00    -0.491 OA
ATOM     27  C   UNL     1       4.291   0.284 -20.735  0.00  0.00    +0.277 C 
ENDBRANCH  23  26
ENDBRANCH   1  21
TORSDOF 6
ENDMDL
