MODEL 1
REMARK VINA RESULT:   -10.003      0.000      0.000
REMARK INTER + INTRA:          -9.046
REMARK INTER:                 -10.873
REMARK INTRA:                   1.828
REMARK UNBOUND:                 1.834
REMARK  Name = C[C@@H]1CC[C@H](O)[C@]2(CO)CC[C@@H]3[C@@H]([C@@H]12)C3(C)C           ZINC000249694002
REMARK  6 active torsions:
REMARK  status: ('A' for Active; 'I' for Inactive)
REMARK    1  A    between atoms: C_1  and  C_2
REMARK    2  A    between atoms: C_5  and  O_6
REMARK    3  A    between atoms: C_7  and  C_8
REMARK    4  A    between atoms: C_8  and  O_9
REMARK    5  A    between atoms: C_15  and  C_16
REMARK    6  A    between atoms: C_15  and  C_17
REMARK                            x       y       z     vdW  Elec       q    Type
REMARK                         _______ _______ _______ _____ _____    ______ ____
ROOT
ATOM      1  C   UNL     1      -3.708   2.500 -21.007  0.00  0.00    +0.008 C 
ATOM      2  C   UNL     1      -3.987   3.002 -22.174  0.00  0.00    -0.010 C 
ATOM      3  C   UNL     1      -5.203   3.370 -22.448  0.00  0.00    +0.006 C 
ATOM      4  C   UNL     1      -5.483   3.872 -23.615  0.00  0.00    +0.032 C 
ATOM      5  C   UNL     1      -4.546   4.005 -24.506  0.00  0.00    +0.123 C 
ATOM      6  C   UNL     1      -3.330   3.637 -24.232  0.00  0.00    +0.023 C 
ATOM      7  C   UNL     1      -2.393   3.770 -25.123  0.00  0.00    +0.012 C 
ATOM      8  C   UNL     1      -1.177   3.401 -24.849  0.00  0.00    +0.005 C 
ATOM      9  C   UNL     1      -0.898   2.900 -23.682  0.00  0.00    -0.001 C 
ATOM     10  C   UNL     1      -1.834   2.766 -22.791  0.00  0.00    +0.003 C 
ATOM     11  C   UNL     1      -0.618   2.398 -22.516  0.00  0.00    -0.028 C 
ATOM     12  C   UNL     1       0.655   2.177 -22.664  0.00  0.00    +0.011 C 
ATOM     13  C   UNL     1      -0.781   1.973 -21.298  0.00  0.00    +0.011 C 
ATOM     14  C   UNL     1      -3.050   3.135 -23.065  0.00  0.00    +0.007 C 
ENDROOT
BRANCH   5  15
ATOM     15  O   UNL     1      -4.825   4.507 -25.673  0.00  0.00    -0.391 OA
ATOM     16  H   UNL     1      -5.281   3.840 -26.210  0.00  0.00    +0.210 HD
ENDBRANCH   5  15
BRANCH   6  17
ATOM     17  C   UNL     1      -3.609   4.138 -25.398  0.00  0.00    +0.165 C 
BRANCH  17  18
ATOM     18  O   UNL     1      -4.087   5.344 -25.490  0.00  0.00    -0.394 OA
ATOM     19  H   UNL     1      -4.540   5.576 -24.664  0.00  0.00    +0.209 HD
ENDBRANCH  17  18
ENDBRANCH   6  17
TORSDOF 3
ENDMDL
