MODEL 1
REMARK VINA RESULT:    -8.440      0.000      0.000
REMARK INTER + INTRA:         -13.662
REMARK INTER:                 -13.363
REMARK INTRA:                  -0.299
REMARK UNBOUND:                -0.042
REMARK  Name = ZINC000085340902
REMARK  15 active torsions:
REMARK  status: ('A' for Active; 'I' for Inactive)
REMARK    1  A    between atoms: C_1  and  C_2
REMARK    2  A    between atoms: C_2  and  C_3
REMARK    3  A    between atoms: C_3  and  C_4
REMARK    4  A    between atoms: C_4  and  C_5
REMARK    5  A    between atoms: C_5  and  C_6
REMARK    6  A    between atoms: C_6  and  C_7
REMARK    7  A    between atoms: C_7  and  C_8
REMARK    8  A    between atoms: C_8  and  C_9
REMARK    9  A    between atoms: C_9  and  C_10
REMARK   10  A    between atoms: C_10  and  C_11
REMARK   11  A    between atoms: C_11  and  C_12
REMARK   12  A    between atoms: N_16  and  C_17
REMARK   13  A    between atoms: C_18  and  C_19
REMARK   14  A    between atoms: C_23  and  C_24
REMARK   15  A    between atoms: C_26  and  O_27
REMARK                            x       y       z     vdW  Elec       q    Type
REMARK                         _______ _______ _______ _____ _____    ______ ____
ROOT
ATOM      1  C   UNL     1       3.144   2.907 -23.559  0.00  0.00    -0.008 C 
ATOM      2  C   UNL     1       4.367   3.048 -23.214  0.00  0.00    +0.207 C 
ATOM      3  C   UNL     1       5.013   2.056 -22.750  0.00  0.00    +0.115 C 
ATOM      4  C   UNL     1       4.442   0.916 -22.627  0.00  0.00    +0.076 C 
ATOM      5  C   UNL     1       3.218   0.778 -22.974  0.00  0.00    +0.106 C 
ATOM      6  N   UNL     1       6.434   2.468 -22.414  0.00  0.00    -0.243 NA
ATOM      7  O   UNL     1       4.963   4.125 -23.312  0.00  0.00    -0.285 OA
ATOM      8  C   UNL     1       2.567   1.774 -23.441  0.00  0.00    -0.091 C 
ATOM      9  O   UNL     1       1.346   1.649 -23.790  0.00  0.00    -0.826 OA
ENDROOT
BRANCH   6  10
ATOM     10  C   UNL     1       7.126   4.008 -22.605  0.00  0.00    +0.070 A 
ATOM     11  C   UNL     1       7.661   4.433 -23.689  0.00  0.00    -0.025 A 
ATOM     12  C   UNL     1       8.159   5.608 -23.742  0.00  0.00    +0.005 A 
ATOM     13  C   UNL     1       8.121   6.358 -22.708  0.00  0.00    +0.001 A 
ATOM     14  C   UNL     1       7.588   5.937 -21.622  0.00  0.00    +0.005 A 
ATOM     15  C   UNL     1       7.716   3.686 -24.775  0.00  0.00    +0.046 C 
ATOM     16  C   UNL     1       7.091   4.762 -21.573  0.00  0.00    -0.025 A 
ATOM     17  C   UNL     1       6.557   4.337 -20.491  0.00  0.00    +0.046 C 
ENDBRANCH   6  10
BRANCH   5  18
ATOM     18  O   UNL     1       2.634  -0.353 -22.858  0.00  0.00    -0.508 OA
ATOM     19  H   UNL     1       2.085  -0.523 -22.119  0.00  0.00    +0.292 HD
ENDBRANCH   5  18
BRANCH   1  20
ATOM     20  C   UNL     1       2.505   3.914 -24.025  0.00  0.00    +0.038 C 
BRANCH  20  21
ATOM     21  C   UNL     1       1.813   4.645 -23.246  0.00  0.00    +0.005 C 
BRANCH  21  22
ATOM     22  C   UNL     1       0.676   5.091 -23.622  0.00  0.00    +0.000 C 
BRANCH  22  23
ATOM     23  C   UNL     1      -0.390   4.704 -23.027  0.00  0.00    +0.000 C 
BRANCH  23  24
ATOM     24  C   UNL     1      -1.525   4.819 -23.604  0.00  0.00    +0.000 C 
BRANCH  24  25
ATOM     25  C   UNL     1      -2.060   3.808 -24.174  0.00  0.00    +0.000 C 
BRANCH  25  26
ATOM     26  C   UNL     1      -2.802   3.014 -23.501  0.00  0.00    -0.000 C 
BRANCH  26  27
ATOM     27  C   UNL     1      -3.923   3.421 -23.041  0.00  0.00    -0.000 C 
BRANCH  27  28
ATOM     28  C   UNL     1      -4.314   3.041 -21.885  0.00  0.00    -0.000 C 
BRANCH  28  30
ATOM     29  C   UNL     1      -3.147   3.791 -20.161  0.00  0.00    +0.004 C 
ATOM     30  C   UNL     1      -3.460   2.841 -20.956  0.00  0.00    -0.003 C 
ENDBRANCH  28  30
ENDBRANCH  27  28
ENDBRANCH  26  27
ENDBRANCH  25  26
ENDBRANCH  24  25
ENDBRANCH  23  24
ENDBRANCH  22  23
ENDBRANCH  21  22
ENDBRANCH  20  21
ENDBRANCH   1  20
TORSDOF 12
ENDMDL
