MODEL 1
REMARK VINA RESULT:    -9.965      0.000      0.000
REMARK INTER + INTRA:         -13.619
REMARK INTER:                 -12.723
REMARK INTRA:                  -0.896
REMARK UNBOUND:                -0.451
REMARK  Name = ZINC000004257489
REMARK  7 active torsions:
REMARK  status: ('A' for Active; 'I' for Inactive)
REMARK    1  A    between atoms: O5*_1  and  C5*_2
REMARK    2  A    between atoms: C5*_2  and  C4*_3
REMARK    3  A    between atoms: C1*_5  and  N_6
REMARK    4  A    between atoms: N_11  and  C_12
REMARK    5  A    between atoms: C_12  and  C_13
REMARK    6  A    between atoms: C2*_23  and  O2*_24
REMARK    7  A    between atoms: C3*_25  and  O3*_26
REMARK                            x       y       z     vdW  Elec       q    Type
REMARK                         _______ _______ _______ _____ _____    ______ ____
ROOT
ATOM      1  N   UNL     1       3.209   2.383 -23.045  0.00  0.00    -0.286 N 
ATOM      2  C   UNL     1       2.713   1.182 -23.052  0.00  0.00    +0.203 A 
ATOM      3  N   UNL     1       1.440   1.274 -23.300  0.00  0.00    -0.231 NA
ATOM      4  C   UNL     1       1.150   2.532 -23.447  0.00  0.00    +0.147 A 
ATOM      5  C   UNL     1       0.031   3.143 -23.703  0.00  0.00    +0.150 A 
ATOM      6  N   UNL     1       0.005   4.439 -23.802  0.00  0.00    -0.219 NA
ATOM      7  C   UNL     1       1.098   5.125 -23.645  0.00  0.00    +0.225 A 
ATOM      8  N   UNL     1       2.217   4.514 -23.388  0.00  0.00    -0.216 NA
ATOM      9  N   UNL     1      -1.063   2.458 -23.861  0.00  0.00    -0.323 N 
ATOM     10  H   UNL     1      -1.043   1.475 -23.785  0.00  0.00    +0.148 HD
ATOM     11  C   UNL     1       2.243   3.218 -23.289  0.00  0.00    +0.167 A 
ENDROOT
BRANCH   1  14
ATOM     12  C4* UNL     1       6.460   3.243 -23.145  0.00  0.00    +0.177 C 
ATOM     13  O4* UNL     1       5.334   2.986 -23.743  0.00  0.00    -0.346 OA
ATOM     14  C1* UNL     1       4.453   2.696 -22.832  0.00  0.00    +0.253 C 
ATOM     15  C2* UNL     1       5.034   2.774 -21.672  0.00  0.00    +0.195 C 
ATOM     16  C3* UNL     1       6.275   3.112 -21.865  0.00  0.00    +0.178 C 
BRANCH  15  17
ATOM     17  O2* UNL     1       4.473   2.552 -20.520  0.00  0.00    -0.385 OA
ATOM     18  H2* UNL     1       5.149   2.294 -19.876  0.00  0.00    +0.210 HD
ENDBRANCH  15  17
BRANCH  16  19
ATOM     19  O3* UNL     1       7.171   3.288 -20.941  0.00  0.00    -0.386 OA
ATOM     20  H3* UNL     1       7.690   4.082 -21.142  0.00  0.00    +0.210 HD
ENDBRANCH  16  19
BRANCH  12  21
ATOM     21  C5* UNL     1       7.575   3.573 -23.726  0.00  0.00    +0.190 C 
BRANCH  21  22
ATOM     22  O5* UNL     1       8.642   2.854 -23.540  0.00  0.00    -0.392 OA
ATOM     23  H5* UNL     1       9.217   2.922 -24.318  0.00  0.00    +0.210 HD
ENDBRANCH  21  22
ENDBRANCH  12  21
ENDBRANCH   1  14
BRANCH   9  24
ATOM     24  C   UNL     1      -2.181   3.068 -24.117  0.00  0.00    +0.138 C 
BRANCH  24  25
ATOM     25  C   UNL     1      -3.145   3.052 -23.245  0.00  0.00    -0.030 A 
ATOM     26  C   UNL     1      -4.310   3.539 -23.554  0.00  0.00    +0.005 A 
ATOM     27  C   UNL     1      -5.273   3.524 -22.682  0.00  0.00    +0.000 A 
ATOM     28  C   UNL     1      -5.072   3.022 -21.500  0.00  0.00    +0.000 A 
ATOM     29  C   UNL     1      -3.907   2.534 -21.190  0.00  0.00    +0.000 A 
ATOM     30  C   UNL     1      -2.943   2.550 -22.062  0.00  0.00    +0.005 A 
ENDBRANCH  24  25
ENDBRANCH   9  24
TORSDOF 7
ENDMDL
