MODEL 1
REMARK VINA RESULT:    -9.195      0.000      0.000
REMARK INTER + INTRA:         -14.236
REMARK INTER:                 -13.267
REMARK INTRA:                  -0.969
REMARK UNBOUND:                -1.279
REMARK  Name = ZINC000096316369
REMARK  10 active torsions:
REMARK  status: ('A' for Active; 'I' for Inactive)
REMARK    1  A    between atoms: C_1  and  O_2
REMARK    2  A    between atoms: O_2  and  C_3
REMARK    3  A    between atoms: C_12  and  C_13
REMARK    4  A    between atoms: C_13  and  C_14
REMARK    5  A    between atoms: C_16  and  O_17
REMARK    6  A    between atoms: O_17  and  C_18
REMARK    7  A    between atoms: C_18  and  C_19
REMARK    8  A    between atoms: C_25  and  O_26
REMARK    9  A    between atoms: O_26  and  C_27
REMARK   10  A    between atoms: C_29  and  C_30
REMARK                            x       y       z     vdW  Elec       q    Type
REMARK                         _______ _______ _______ _____ _____    ______ ____
ROOT
ATOM      1  C   UNL     1       0.741   3.018 -22.589  0.00  0.00    -0.035 A 
ATOM      2  C   UNL     1       1.800   3.531 -23.140  0.00  0.00    +0.053 A 
ATOM      3  C   UNL     1       2.888   2.827 -23.237  0.00  0.00    +0.163 A 
ATOM      4  C   UNL     1       2.918   1.609 -22.784  0.00  0.00    +0.162 A 
ATOM      5  C   UNL     1       1.858   1.096 -22.233  0.00  0.00    +0.053 A 
ATOM      6  C   UNL     1       0.769   1.800 -22.135  0.00  0.00    -0.043 A 
ATOM      7  C   UNL     1      -0.290   1.286 -21.584  0.00  0.00    +0.044 C 
ENDROOT
BRANCH   4   8
ATOM      8  O   UNL     1       4.006   0.905 -22.881  0.00  0.00    -0.491 OA
ATOM      9  C   UNL     1       4.729   0.677 -21.824  0.00  0.00    +0.277 C 
ENDBRANCH   4   8
BRANCH   1  10
ATOM     10  C   UNL     1      -0.348   3.722 -22.492  0.00  0.00    +0.091 C 
BRANCH  10  19
ATOM     11  C   UNL     1      -5.029   3.506 -22.397  0.00  0.00    +0.120 A 
ATOM     12  C   UNL     1      -4.112   3.596 -21.480  0.00  0.00    +0.046 A 
ATOM     13  C   UNL     1      -2.857   3.638 -21.817  0.00  0.00    +0.013 A 
ATOM     14  C   UNL     1      -2.519   3.590 -23.071  0.00  0.00    -0.000 A 
ATOM     15  C   UNL     1      -3.436   3.499 -23.989  0.00  0.00    -0.033 A 
ATOM     16  C   UNL     1      -3.099   3.451 -25.243  0.00  0.00    +0.059 C 
ATOM     17  C   UNL     1      -1.844   3.493 -25.580  0.00  0.00    +0.146 C 
ATOM     18  N   UNL     1      -0.927   3.583 -24.663  0.00  0.00    -0.287 NA
ATOM     19  C   UNL     1      -1.265   3.631 -23.409  0.00  0.00    +0.048 C 
ATOM     20  C   UNL     1      -4.691   3.457 -23.651  0.00  0.00    +0.050 A 
BRANCH  11  22
ATOM     21  C   UNL     1      -6.821   2.339 -21.689  0.00  0.00    +0.277 C 
ATOM     22  O   UNL     1      -6.284   3.464 -22.060  0.00  0.00    -0.495 OA
ENDBRANCH  11  22
ENDBRANCH  10  19
ENDBRANCH   1  10
BRANCH   3  23
ATOM     23  O   UNL     1       3.948   3.341 -23.789  0.00  0.00    -0.484 OA
BRANCH  23  24
ATOM     24  C   UNL     1       4.503   4.396 -23.272  0.00  0.00    +0.264 C 
BRANCH  24  25
ATOM     25  C   UNL     1       5.796   4.460 -23.158  0.00  0.00    -0.010 A 
ATOM     26  C   UNL     1       6.346   5.468 -22.547  0.00  0.00    +0.007 A 
ATOM     27  C   UNL     1       7.639   5.532 -22.432  0.00  0.00    +0.000 A 
ATOM     28  C   UNL     1       8.384   4.589 -22.930  0.00  0.00    +0.000 A 
ATOM     29  C   UNL     1       7.834   3.581 -23.541  0.00  0.00    +0.000 A 
ATOM     30  C   UNL     1       6.541   3.517 -23.655  0.00  0.00    +0.007 A 
ENDBRANCH  24  25
ENDBRANCH  23  24
ENDBRANCH   3  23
TORSDOF 7
ENDMDL
