MODEL 1
REMARK VINA RESULT:    -8.847      0.000      0.000
REMARK INTER + INTRA:          -8.450
REMARK INTER:                 -10.663
REMARK INTRA:                   2.214
REMARK UNBOUND:                 2.724
REMARK  Name = ZINC000005175910
REMARK  7 active torsions:
REMARK  status: ('A' for Active; 'I' for Inactive)
REMARK    1  A    between atoms: C_1  and  N_2
REMARK    2  A    between atoms: N_2  and  C_3
REMARK    3  A    between atoms: N_2  and  C_10
REMARK    4  A    between atoms: C_3  and  C_4
REMARK    5  A    between atoms: C_10  and  C_11
REMARK    6  A    between atoms: C_10  and  C_18
REMARK    7  A    between atoms: C_11  and  C_12
REMARK                            x       y       z     vdW  Elec       q    Type
REMARK                         _______ _______ _______ _____ _____    ______ ____
ROOT
ATOM      1  C   UNL     1      -0.887   2.774 -23.261  0.00  0.00    +0.116 C 
ENDROOT
BRANCH   1   2
ATOM      2  C   UNL     1      -0.588   2.081 -22.202  0.00  0.00    +0.090 C 
ATOM      3  O   UNL     1      -1.123   2.381 -21.057  0.00  0.00    -0.544 OA
ATOM      4  O   UNL     1       0.247   1.088 -22.290  0.00  0.00    -0.544 OA
ENDBRANCH   1   2
BRANCH   1   6
ATOM      5  C   UNL     1      -0.506   4.947 -22.813  0.00  0.00    +0.191 C 
ATOM      6  N   UNL     1      -0.255   3.881 -23.513  0.00  0.00    +0.243 N 
ATOM      7  H   UNL     1       0.460   4.149 -24.190  0.00  0.00    +0.204 HD
BRANCH   6   8
ATOM      8  C   UNL     1       0.629   3.923 -24.465  0.00  0.00    +0.168 C 
BRANCH   8   9
ATOM      9  C   UNL     1       1.848   3.535 -24.238  0.00  0.00    -0.003 A 
ATOM     10  C   UNL     1       2.649   4.285 -23.540  0.00  0.00    +0.009 A 
ATOM     11  C   UNL     1       3.869   3.898 -23.312  0.00  0.00    +0.000 A 
ATOM     12  C   UNL     1       4.289   2.761 -23.783  0.00  0.00    +0.000 A 
ATOM     13  C   UNL     1       3.488   2.012 -24.482  0.00  0.00    +0.000 A 
ATOM     14  C   UNL     1       2.268   2.399 -24.709  0.00  0.00    +0.009 A 
ENDBRANCH   8   9
ENDBRANCH   6   8
ENDBRANCH   1   6
BRANCH   1  15
ATOM     15  C   UNL     1      -1.819   2.359 -24.067  0.00  0.00    +0.095 C 
BRANCH  15  16
ATOM     16  C   UNL     1      -2.950   2.994 -24.136  0.00  0.00    -0.042 A 
ATOM     17  C   UNL     1      -3.742   3.027 -23.105  0.00  0.00    +0.004 A 
ATOM     18  C   UNL     1      -4.874   3.662 -23.172  0.00  0.00    +0.000 A 
ATOM     19  C   UNL     1      -5.214   4.266 -24.272  0.00  0.00    +0.000 A 
ATOM     20  C   UNL     1      -4.423   4.234 -25.304  0.00  0.00    +0.000 A 
ATOM     21  C   UNL     1      -3.291   3.598 -25.235  0.00  0.00    +0.004 A 
ENDBRANCH  15  16
ENDBRANCH   1  15
TORSDOF 6
ENDMDL
