MODEL 1
REMARK VINA RESULT:    -9.819      0.000      0.000
REMARK INTER + INTRA:         -14.653
REMARK INTER:                 -13.697
REMARK INTRA:                  -0.956
REMARK UNBOUND:                -0.816
REMARK  Name = CCCOc1ccc(C(=O)OC[C@@H]2CCC[N@+]3(C)CCCC[C@@H]23)cc1                 ZINC000253377313
REMARK  9 active torsions:
REMARK  status: ('A' for Active; 'I' for Inactive)
REMARK    1  A    between atoms: C_1  and  C_2
REMARK    2  A    between atoms: C_2  and  C_3
REMARK    3  A    between atoms: C_3  and  O_4
REMARK    4  A    between atoms: O_4  and  C_5
REMARK    5  A    between atoms: C_8  and  C_9
REMARK    6  A    between atoms: C_9  and  O_11
REMARK    7  A    between atoms: O_11  and  C_12
REMARK    8  A    between atoms: C_12  and  C_13
REMARK    9  A    between atoms: N_17  and  C_18
REMARK                            x       y       z     vdW  Elec       q    Type
REMARK                         _______ _______ _______ _____ _____    ______ ____
ROOT
ATOM      1  O   UNL     1      -0.674   3.344 -25.036  0.00  0.00    -0.461 OA
ENDROOT
BRANCH   1   2
ATOM      2  C   UNL     1       0.626   3.371 -25.028  0.00  0.00    +0.339 C 
ATOM      3  O   UNL     1       1.264   4.240 -25.755  0.00  0.00    -0.245 OA
BRANCH   2   7
ATOM      4  C   UNL     1       2.611   0.841 -22.820  0.00  0.00    +0.121 A 
ATOM      5  C   UNL     1       2.947   1.022 -24.062  0.00  0.00    +0.046 A 
ATOM      6  C   UNL     1       2.285   1.866 -24.799  0.00  0.00    +0.018 A 
ATOM      7  C   UNL     1       1.288   2.527 -24.292  0.00  0.00    +0.059 A 
ATOM      8  C   UNL     1       0.952   2.346 -23.049  0.00  0.00    +0.018 A 
ATOM      9  C   UNL     1       1.613   1.503 -22.313  0.00  0.00    +0.046 A 
BRANCH   4  10
ATOM     10  O   UNL     1       3.272  -0.002 -22.084  0.00  0.00    -0.492 OA
BRANCH  10  11
ATOM     11  C   UNL     1       3.801   0.390 -20.963  0.00  0.00    +0.229 C 
BRANCH  11  13
ATOM     12  C   UNL     1       5.189   2.162 -21.034  0.00  0.00    +0.007 C 
ATOM     13  C   UNL     1       5.006   0.877 -20.948  0.00  0.00    +0.038 C 
ENDBRANCH  11  13
ENDBRANCH  10  11
ENDBRANCH   4  10
ENDBRANCH   2   7
ENDBRANCH   1   2
BRANCH   1  14
ATOM     14  C   UNL     1      -1.346   4.280 -24.432  0.00  0.00    +0.241 C 
BRANCH  14  15
ATOM     15  C   UNL     1      -2.619   4.129 -24.217  0.00  0.00    +0.075 C 
ATOM     16  C   UNL     1      -3.470   4.336 -25.178  0.00  0.00    +0.017 C 
ATOM     17  C   UNL     1      -4.743   4.186 -24.963  0.00  0.00    +0.051 C 
ATOM     18  C   UNL     1      -5.166   3.827 -23.786  0.00  0.00    +0.133 C 
ATOM     19  N   UNL     1      -4.315   3.620 -22.826  0.00  0.00    +0.244 N 
ATOM     20  C   UNL     1      -4.737   3.262 -21.650  0.00  0.00    +0.133 C 
ATOM     21  C   UNL     1      -3.886   3.054 -20.688  0.00  0.00    +0.051 C 
ATOM     22  C   UNL     1      -2.613   3.205 -20.904  0.00  0.00    +0.011 C 
ATOM     23  C   UNL     1      -2.192   3.563 -22.080  0.00  0.00    +0.055 C 
ATOM     24  C   UNL     1      -5.588   3.469 -22.610  0.00  0.00    +0.192 C 
ATOM     25  C   UNL     1      -3.042   3.771 -23.041  0.00  0.00    +0.072 C 
ENDBRANCH  14  15
ENDBRANCH   1  14
TORSDOF 7
ENDMDL
