MODEL 1
REMARK VINA RESULT:   -10.508      0.000      0.000
REMARK INTER + INTRA:         -10.796
REMARK INTER:                 -11.705
REMARK INTRA:                   0.909
REMARK UNBOUND:                 0.940
REMARK  Name = ZINC000005966742
REMARK  5 active torsions:
REMARK  status: ('A' for Active; 'I' for Inactive)
REMARK    1  A    between atoms: C_1  and  O_2
REMARK    2  A    between atoms: O_2  and  C_3
REMARK    3  A    between atoms: C_12  and  O_13
REMARK    4  A    between atoms: O_13  and  C_14
REMARK    5  A    between atoms: N_20  and  C_21
REMARK                            x       y       z     vdW  Elec       q    Type
REMARK                         _______ _______ _______ _____ _____    ______ ____
ROOT
ATOM      1  C   UNL     1      -3.371   3.895 -25.440  0.00  0.00    +0.135 C 
ATOM      2  C   UNL     1      -4.475   3.917 -24.824  0.00  0.00    +0.018 C 
ATOM      3  C   UNL     1      -4.550   3.526 -23.638  0.00  0.00    +0.040 C 
ATOM      4  C   UNL     1      -3.513   3.105 -23.047  0.00  0.00    +0.056 C 
ATOM      5  C   UNL     1      -3.594   2.711 -21.847  0.00  0.00    +0.073 C 
ATOM      6  C   UNL     1      -2.571   2.294 -21.260  0.00  0.00    +0.090 C 
ATOM      7  C   UNL     1      -1.449   2.267 -21.869  0.00  0.00    -0.034 A 
ATOM      8  C   UNL     1      -0.425   1.849 -21.281  0.00  0.00    +0.008 A 
ATOM      9  C   UNL     1       0.671   1.825 -21.882  0.00  0.00    +0.050 A 
ATOM     10  C   UNL     1       0.753   2.218 -23.082  0.00  0.00    +0.162 A 
ATOM     11  C   UNL     1      -0.286   2.640 -23.673  0.00  0.00    +0.167 A 
ATOM     12  O   UNL     1      -0.865   3.196 -24.941  0.00  0.00    -0.476 OA
ATOM     13  C   UNL     1      -1.391   2.664 -23.063  0.00  0.00    +0.012 A 
ATOM     14  N   UNL     1      -4.816   3.166 -22.423  0.00  0.00    +0.236 N 
ATOM     15  H   UNL     1      -5.693   3.172 -21.904  0.00  0.00    +0.203 HD
ATOM     16  C   UNL     1      -5.884   3.168 -21.773  0.00  0.00    +0.190 C 
ATOM     17  C   UNL     1      -4.762   3.613 -23.761  0.00  0.00    +0.132 C 
ATOM     18  C   UNL     1      -3.512   3.573 -24.413  0.00  0.00    +0.067 C 
ATOM     19  C   UNL     1      -2.415   3.079 -23.645  0.00  0.00    +0.057 C 
ATOM     20  C   UNL     1      -2.347   3.478 -24.851  0.00  0.00    +0.249 C 
ENDROOT
BRANCH   1  22
ATOM     21  C   UNL     1      -3.335   3.457 -27.561  0.00  0.00    +0.276 C 
ATOM     22  O   UNL     1      -3.301   4.286 -26.625  0.00  0.00    -0.496 OA
ENDBRANCH   1  22
BRANCH  10  23
ATOM     23  O   UNL     1       1.852   2.192 -23.680  0.00  0.00    -0.491 OA
ATOM     24  C   UNL     1       2.598   3.196 -23.667  0.00  0.00    +0.277 C 
ENDBRANCH  10  23
TORSDOF 2
ENDMDL
