MODEL 1
REMARK VINA RESULT:   -10.555      0.000      0.000
REMARK INTER + INTRA:         -10.821
REMARK INTER:                 -11.826
REMARK INTRA:                   1.006
REMARK UNBOUND:                 0.968
REMARK  Name = COC1=C[C@@]2(C)Oc3c(OC)ccc4c3[C@]23CCN(C)[C@H](C4)C3=C1              ZINC000100393711
REMARK  6 active torsions:
REMARK  status: ('A' for Active; 'I' for Inactive)
REMARK    1  A    between atoms: C_1  and  O_2
REMARK    2  A    between atoms: O_2  and  C_3
REMARK    3  A    between atoms: C_5  and  C_6
REMARK    4  A    between atoms: C_9  and  O_10
REMARK    5  A    between atoms: O_10  and  C_11
REMARK    6  A    between atoms: N_19  and  C_20
REMARK                            x       y       z     vdW  Elec       q    Type
REMARK                         _______ _______ _______ _____ _____    ______ ____
ROOT
ATOM      1  C   UNL     1       0.579   2.287 -22.518  0.00  0.00    +0.120 C 
ATOM      2  C   UNL     1      -0.370   2.268 -21.679  0.00  0.00    +0.066 C 
ATOM      3  C   UNL     1      -1.521   2.611 -22.032  0.00  0.00    +0.143 C 
ATOM      4  O   UNL     1      -2.964   2.814 -21.628  0.00  0.00    -0.477 OA
ATOM      5  C   UNL     1      -3.838   3.302 -22.750  0.00  0.00    +0.168 A 
ATOM      6  C   UNL     1      -5.004   3.650 -23.109  0.00  0.00    +0.162 A 
ATOM      7  C   UNL     1      -5.207   4.013 -24.306  0.00  0.00    +0.050 A 
ATOM      8  C   UNL     1      -4.266   4.030 -25.133  0.00  0.00    +0.008 A 
ATOM      9  C   UNL     1      -3.112   3.686 -24.776  0.00  0.00    -0.034 A 
ATOM     10  C   UNL     1      -2.152   3.702 -25.614  0.00  0.00    +0.094 C 
ATOM     11  C   UNL     1      -1.002   3.358 -25.256  0.00  0.00    +0.097 C 
ATOM     12  C   UNL     1      -0.796   2.995 -24.060  0.00  0.00    -0.003 C 
ATOM     13  N   UNL     1       0.342   2.987 -24.953  0.00  0.00    +0.239 N 
ATOM     14  H   UNL     1       1.085   3.013 -25.652  0.00  0.00    +0.204 HD
ATOM     15  C   UNL     1       1.244   3.024 -25.821  0.00  0.00    +0.191 C 
ATOM     16  C   UNL     1       0.607   2.577 -23.628  0.00  0.00    +0.133 C 
ATOM     17  C   UNL     1      -0.474   2.567 -22.717  0.00  0.00    +0.071 C 
ATOM     18  C   UNL     1      -2.890   3.321 -23.588  0.00  0.00    +0.016 A 
ATOM     19  C   UNL     1      -1.598   2.304 -20.819  0.00  0.00    +0.062 C 
ATOM     20  C   UNL     1      -1.738   2.978 -23.234  0.00  0.00    +0.074 C 
ATOM     21  C   UNL     1       0.368   2.648 -23.700  0.00  0.00    +0.051 C 
ENDROOT
BRANCH   1  23
ATOM     22  C   UNL     1       2.158   0.799 -22.443  0.00  0.00    +0.277 C 
ATOM     23  O   UNL     1       1.731   1.944 -22.166  0.00  0.00    -0.495 OA
ENDBRANCH   1  23
BRANCH   6  24
ATOM     24  O   UNL     1      -5.948   3.634 -22.285  0.00  0.00    -0.491 OA
ATOM     25  C   UNL     1      -6.279   2.561 -21.729  0.00  0.00    +0.277 C 
ENDBRANCH   6  24
TORSDOF 2
ENDMDL
