MODEL 1
REMARK VINA RESULT:    -9.772      0.000      0.000
REMARK INTER + INTRA:         -12.307
REMARK INTER:                 -11.486
REMARK INTRA:                  -0.821
REMARK UNBOUND:                -0.822
REMARK  Name = ZINC000095610002
REMARK  5 active torsions:
REMARK  status: ('A' for Active; 'I' for Inactive)
REMARK    1  A    between atoms: C_1  and  C_2
REMARK    2  A    between atoms: C_3  and  O_4
REMARK    3  A    between atoms: C_5  and  C_6
REMARK    4  A    between atoms: C_10  and  C_11
REMARK    5  A    between atoms: C_21  and  O_22
REMARK                            x       y       z     vdW  Elec       q    Type
REMARK                         _______ _______ _______ _____ _____    ______ ____
ROOT
ATOM      1  C   UNL     1       4.225   1.186 -22.827  0.00  0.00    +0.051 C 
ATOM      2  C   UNL     1       2.995   1.560 -23.024  0.00  0.00    +0.034 A 
ATOM      3  C   UNL     1       2.642   2.052 -24.175  0.00  0.00    +0.137 A 
ATOM      4  C   UNL     1       1.413   2.426 -24.372  0.00  0.00    +0.099 A 
ATOM      5  C   UNL     1       0.537   2.308 -23.420  0.00  0.00    +0.156 A 
ATOM      6  O   UNL     1      -0.693   2.683 -23.618  0.00  0.00    -0.454 OA
ATOM      7  C   UNL     1      -1.569   2.565 -22.665  0.00  0.00    +0.139 A 
ATOM      8  C   UNL     1      -1.216   2.073 -21.514  0.00  0.00    +0.098 A 
ATOM      9  C   UNL     1       0.013   1.698 -21.317  0.00  0.00    +0.197 A 
ATOM     10  O   UNL     1       0.366   1.206 -20.166  0.00  0.00    -0.287 OA
ATOM     11  C   UNL     1       0.890   1.816 -22.269  0.00  0.00    +0.106 A 
ATOM     12  C   UNL     1       2.119   1.442 -22.071  0.00  0.00    +0.138 A 
ENDROOT
BRANCH   7  13
ATOM     13  C   UNL     1      -2.798   2.939 -22.862  0.00  0.00    +0.017 A 
ATOM     14  C   UNL     1      -3.668   2.846 -21.901  0.00  0.00    +0.011 A 
ATOM     15  C   UNL     1      -4.898   3.220 -22.098  0.00  0.00    +0.001 A 
ATOM     16  C   UNL     1      -5.257   3.687 -23.257  0.00  0.00    +0.000 A 
ATOM     17  C   UNL     1      -4.387   3.780 -24.219  0.00  0.00    +0.001 A 
ATOM     18  C   UNL     1      -3.157   3.406 -24.021  0.00  0.00    +0.011 A 
ENDBRANCH   7  13
BRANCH   4  19
ATOM     19  C   UNL     1       1.060   2.918 -25.523  0.00  0.00    +0.266 C 
ATOM     20  O   UNL     1       1.371   4.143 -25.830  0.00  0.00    -0.295 OA
ENDBRANCH   4  19
BRANCH   3  21
ATOM     21  O   UNL     1       3.519   2.170 -25.128  0.00  0.00    -0.506 OA
ATOM     22  H   UNL     1       4.406   2.394 -24.924  0.00  0.00    +0.292 HD
ENDBRANCH   3  21
BRANCH  12  23
ATOM     23  O   UNL     1       2.471   0.950 -20.921  0.00  0.00    -0.506 OA
ATOM     24  H   UNL     1       2.033   0.195 -20.580  0.00  0.00    +0.292 HD
ENDBRANCH  12  23
TORSDOF 4
ENDMDL
