MODEL 1
REMARK VINA RESULT:    -8.793      0.000      0.000
REMARK INTER + INTRA:         -10.149
REMARK INTER:                  -9.808
REMARK INTRA:                  -0.341
REMARK UNBOUND:                -0.328
REMARK  Name = c1ccc(/N=c2\cc(-c3ccc4c(c3)OCCO4)oc3ccccc23)cc1                      ZINC000100392647
REMARK  2 active torsions:
REMARK  status: ('A' for Active; 'I' for Inactive)
REMARK    1  A    between atoms: C_4  and  N_5
REMARK    2  A    between atoms: C_8  and  C_9
REMARK                            x       y       z     vdW  Elec       q    Type
REMARK                         _______ _______ _______ _____ _____    ______ ____
ROOT
ATOM      1  N   UNL     1      -3.943   3.288 -23.080  0.00  0.00    -0.247 NA
ATOM      2  C   UNL     1      -2.903   3.319 -23.859  0.00  0.00    +0.079 A 
ATOM      3  C   UNL     1      -1.707   3.287 -23.350  0.00  0.00    +0.075 A 
ATOM      4  C   UNL     1      -0.667   3.318 -24.129  0.00  0.00    +0.138 A 
ATOM      5  O   UNL     1      -0.822   3.380 -25.418  0.00  0.00    -0.455 OA
ATOM      6  C   UNL     1      -2.017   3.413 -25.929  0.00  0.00    +0.138 A 
ATOM      7  C   UNL     1      -2.173   3.475 -27.218  0.00  0.00    +0.047 A 
ATOM      8  C   UNL     1      -3.368   3.508 -27.727  0.00  0.00    +0.004 A 
ATOM      9  C   UNL     1      -4.408   3.477 -26.948  0.00  0.00    +0.001 A 
ATOM     10  C   UNL     1      -4.253   3.414 -25.659  0.00  0.00    +0.013 A 
ATOM     11  C   UNL     1      -3.058   3.382 -25.150  0.00  0.00    +0.043 A 
ENDROOT
BRANCH   4  12
ATOM     12  C   UNL     1       0.528   3.285 -23.619  0.00  0.00    +0.021 A 
ATOM     13  C   UNL     1       1.311   4.317 -23.733  0.00  0.00    +0.015 A 
ATOM     14  C   UNL     1       2.507   4.285 -23.223  0.00  0.00    +0.050 A 
ATOM     15  C   UNL     1       2.919   3.222 -22.600  0.00  0.00    +0.162 A 
ATOM     16  C   UNL     1       2.137   2.190 -22.486  0.00  0.00    +0.163 A 
ATOM     17  O   UNL     1       2.549   1.127 -21.862  0.00  0.00    -0.485 OA
ATOM     18  C   UNL     1       3.745   1.095 -21.353  0.00  0.00    +0.270 C 
ATOM     19  C   UNL     1       4.527   2.126 -21.467  0.00  0.00    +0.270 C 
ATOM     20  O   UNL     1       4.115   3.190 -22.090  0.00  0.00    -0.485 OA
ATOM     21  C   UNL     1       0.941   2.222 -22.996  0.00  0.00    +0.061 A 
ENDBRANCH   4  12
BRANCH   1  25
ATOM     22  C   UNL     1      -3.477   3.100 -19.213  0.00  0.00    +0.000 A 
ATOM     23  C   UNL     1      -4.153   2.178 -19.832  0.00  0.00    +0.002 A 
ATOM     24  C   UNL     1      -4.308   2.241 -21.121  0.00  0.00    +0.028 A 
ATOM     25  C   UNL     1      -3.788   3.225 -21.791  0.00  0.00    +0.065 A 
ATOM     26  C   UNL     1      -3.112   4.147 -21.173  0.00  0.00    +0.028 A 
ATOM     27  C   UNL     1      -2.956   4.085 -19.883  0.00  0.00    +0.002 A 
ENDBRANCH   1  25
TORSDOF 2
ENDMDL
