MODEL 1
REMARK VINA RESULT:   -10.010      0.000      0.000
REMARK INTER + INTRA:          -9.048
REMARK INTER:                 -10.875
REMARK INTRA:                   1.828
REMARK UNBOUND:                 1.840
REMARK  Name = C[C@@H]1CC[C@H](O)[C@]2(CO)CC[C@H]3[C@H]([C@@H]12)C3(C)C             ZINC000100393064
REMARK  6 active torsions:
REMARK  status: ('A' for Active; 'I' for Inactive)
REMARK    1  A    between atoms: C_1  and  C_2
REMARK    2  A    between atoms: C_5  and  O_6
REMARK    3  A    between atoms: C_7  and  C_8
REMARK    4  A    between atoms: C_8  and  O_9
REMARK    5  A    between atoms: C_15  and  C_16
REMARK    6  A    between atoms: C_15  and  C_17
REMARK                            x       y       z     vdW  Elec       q    Type
REMARK                         _______ _______ _______ _____ _____    ______ ____
ROOT
ATOM      1  C   UNL     1      -3.717   2.506 -21.006  0.00  0.00    +0.008 C 
ATOM      2  C   UNL     1      -3.992   3.008 -22.173  0.00  0.00    -0.010 C 
ATOM      3  C   UNL     1      -5.205   3.387 -22.449  0.00  0.00    +0.006 C 
ATOM      4  C   UNL     1      -5.480   3.889 -23.616  0.00  0.00    +0.032 C 
ATOM      5  C   UNL     1      -4.542   4.013 -24.508  0.00  0.00    +0.123 C 
ATOM      6  C   UNL     1      -3.329   3.635 -24.232  0.00  0.00    +0.023 C 
ATOM      7  C   UNL     1      -2.391   3.758 -25.124  0.00  0.00    +0.012 C 
ATOM      8  C   UNL     1      -1.179   3.380 -24.849  0.00  0.00    +0.005 C 
ATOM      9  C   UNL     1      -0.904   2.877 -23.682  0.00  0.00    -0.001 C 
ATOM     10  C   UNL     1      -1.842   2.754 -22.790  0.00  0.00    +0.003 C 
ATOM     11  C   UNL     1      -0.629   2.375 -22.515  0.00  0.00    -0.028 C 
ATOM     12  C   UNL     1       0.642   2.143 -22.663  0.00  0.00    +0.011 C 
ATOM     13  C   UNL     1      -0.795   1.953 -21.296  0.00  0.00    +0.011 C 
ATOM     14  C   UNL     1      -3.054   3.132 -23.065  0.00  0.00    +0.007 C 
ENDROOT
BRANCH   5  15
ATOM     15  O   UNL     1      -4.817   4.516 -25.675  0.00  0.00    -0.391 OA
ATOM     16  H   UNL     1      -4.302   5.326 -25.807  0.00  0.00    +0.210 HD
ENDBRANCH   5  15
BRANCH   6  17
ATOM     17  C   UNL     1      -3.604   4.137 -25.400  0.00  0.00    +0.165 C 
BRANCH  17  18
ATOM     18  O   UNL     1      -4.072   5.346 -25.493  0.00  0.00    -0.394 OA
ATOM     19  H   UNL     1      -4.615   5.422 -26.294  0.00  0.00    +0.209 HD
ENDBRANCH  17  18
ENDBRANCH   6  17
TORSDOF 3
ENDMDL
