MODEL 1
REMARK VINA RESULT:    -9.029      0.000      0.000
REMARK INTER + INTRA:         -11.801
REMARK INTER:                 -11.261
REMARK INTRA:                  -0.541
REMARK UNBOUND:                -0.397
REMARK  Name = ZINC000039386788
REMARK  7 active torsions:
REMARK  status: ('A' for Active; 'I' for Inactive)
REMARK    1  A    between atoms: C_1  and  O_2
REMARK    2  A    between atoms: O_2  and  C_3
REMARK    3  A    between atoms: C_11  and  C_12
REMARK    4  A    between atoms: C_12  and  C_13
REMARK    5  A    between atoms: C_16  and  O_17
REMARK    6  A    between atoms: O_17  and  C_18
REMARK    7  A    between atoms: C_19  and  O_20
REMARK                            x       y       z     vdW  Elec       q    Type
REMARK                         _______ _______ _______ _____ _____    ______ ____
ROOT
ATOM      1  C   UNL     1      -4.421   3.353 -22.267  0.00  0.00    +0.098 C 
ATOM      2  C   UNL     1      -3.419   2.922 -21.560  0.00  0.00    +0.019 C 
ATOM      3  C   UNL     1      -2.261   2.734 -22.120  0.00  0.00    +0.066 C 
ATOM      4  C   UNL     1      -2.105   2.977 -23.388  0.00  0.00    -0.018 C 
ATOM      5  C   UNL     1      -3.107   3.408 -24.095  0.00  0.00    -0.052 C 
ATOM      6  C   UNL     1      -2.952   3.652 -25.362  0.00  0.00    +0.082 C 
ATOM      7  C   UNL     1      -1.794   3.464 -25.923  0.00  0.00    +0.134 C 
ATOM      8  N   UNL     1      -0.791   3.033 -25.216  0.00  0.00    +0.233 N 
ATOM      9  H   UNL     1      -0.606   2.111 -25.611  0.00  0.00    +0.202 HD
ATOM     10  H   UNL     1      -0.055   3.734 -25.293  0.00  0.00    +0.202 HD
ATOM     11  C   UNL     1      -0.947   2.790 -23.948  0.00  0.00    +0.094 C 
ATOM     12  C   UNL     1      -4.265   3.596 -23.535  0.00  0.00    +0.104 C 
ENDROOT
BRANCH   1  14
ATOM     13  C   UNL     1      -6.478   2.604 -21.744  0.00  0.00    +0.276 C 
ATOM     14  O   UNL     1      -5.579   3.541 -21.707  0.00  0.00    -0.499 OA
ENDBRANCH   1  14
BRANCH  11  15
ATOM     15  C   UNL     1       0.055   2.359 -23.241  0.00  0.00    +0.094 C 
BRANCH  15  16
ATOM     16  C   UNL     1       1.176   3.018 -23.233  0.00  0.00    -0.038 A 
ATOM     17  C   UNL     1       2.306   2.378 -23.217  0.00  0.00    +0.007 A 
ATOM     18  C   UNL     1       3.426   3.037 -23.209  0.00  0.00    +0.049 A 
ATOM     19  C   UNL     1       3.416   4.337 -23.216  0.00  0.00    +0.161 A 
ATOM     20  C   UNL     1       2.285   4.977 -23.232  0.00  0.00    +0.159 A 
ATOM     21  C   UNL     1       1.165   4.317 -23.240  0.00  0.00    +0.053 A 
BRANCH  20  22
ATOM     22  O   UNL     1       2.274   6.277 -23.239  0.00  0.00    -0.503 OA
ATOM     23  H   UNL     1       1.502   6.742 -22.982  0.00  0.00    +0.292 HD
ENDBRANCH  20  22
BRANCH  19  24
ATOM     24  O   UNL     1       4.537   4.996 -23.207  0.00  0.00    -0.491 OA
ATOM     25  C   UNL     1       5.663   4.361 -23.077  0.00  0.00    +0.277 C 
ENDBRANCH  19  24
ENDBRANCH  15  16
ENDBRANCH  11  15
TORSDOF 5
ENDMDL
