MODEL 1
REMARK VINA RESULT:    -9.284      0.000      0.000
REMARK INTER + INTRA:         -10.118
REMARK INTER:                 -11.027
REMARK INTRA:                   0.909
REMARK UNBOUND:                 0.795
REMARK  Name = ZINC000096316340
REMARK  5 active torsions:
REMARK  status: ('A' for Active; 'I' for Inactive)
REMARK    1  A    between atoms: C_1  and  O_2
REMARK    2  A    between atoms: O_2  and  C_3
REMARK    3  A    between atoms: C_11  and  O_12
REMARK    4  A    between atoms: O_12  and  C_13
REMARK    5  A    between atoms: C_13  and  C_14
REMARK                            x       y       z     vdW  Elec       q    Type
REMARK                         _______ _______ _______ _____ _____    ______ ____
ROOT
ATOM      1  C   UNL     1       1.702   2.254 -23.793  0.00  0.00    +0.162 A 
ATOM      2  C   UNL     1       1.967   1.781 -22.645  0.00  0.00    +0.050 A 
ATOM      3  C   UNL     1       1.070   1.686 -21.772  0.00  0.00    +0.008 A 
ATOM      4  C   UNL     1      -0.100   2.063 -22.037  0.00  0.00    -0.038 A 
ATOM      5  C   UNL     1      -0.387   2.537 -23.173  0.00  0.00    +0.012 A 
ATOM      6  C   UNL     1      -1.555   2.911 -23.430  0.00  0.00    +0.050 C 
ATOM      7  C   UNL     1      -2.847   3.369 -23.843  0.00  0.00    +0.035 C 
ATOM      8  C   UNL     1      -3.881   3.275 -22.879  0.00  0.00    +0.109 C 
ATOM      9  N   UNL     1      -3.548   2.743 -21.610  0.00  0.00    -0.300 N 
ATOM     10  C   UNL     1      -4.419   2.628 -20.699  0.00  0.00    +0.328 C 
ATOM     11  O   UNL     1      -4.114   2.153 -19.574  0.00  0.00    -0.279 OA
ATOM     12  C   UNL     1      -2.188   2.345 -21.414  0.00  0.00    +0.088 C 
ATOM     13  C   UNL     1      -2.456   2.818 -22.561  0.00  0.00    +0.047 C 
ATOM     14  C   UNL     1      -3.639   3.197 -22.823  0.00  0.00    -0.021 C 
ATOM     15  C   UNL     1      -3.907   3.666 -23.958  0.00  0.00    +0.017 C 
ATOM     16  C   UNL     1      -3.006   3.764 -24.844  0.00  0.00    +0.240 C 
ATOM     17  C   UNL     1      -1.837   3.388 -24.580  0.00  0.00    +0.229 C 
ATOM     18  O   UNL     1      -0.415   3.224 -25.081  0.00  0.00    -0.480 OA
ATOM     19  C   UNL     1      -1.019   1.969 -21.151  0.00  0.00    +0.058 C 
ATOM     20  C   UNL     1       0.517   2.634 -24.056  0.00  0.00    +0.167 A 
ENDROOT
BRANCH   1  22
ATOM     21  C   UNL     1       3.809   2.237 -24.332  0.00  0.00    +0.277 C 
ATOM     22  O   UNL     1       2.603   2.346 -24.662  0.00  0.00    -0.491 OA
ENDBRANCH   1  22
BRANCH  16  23
ATOM     23  O   UNL     1      -3.280   4.234 -25.975  0.00  0.00    -0.454 OA
BRANCH  23  24
ATOM     24  C   UNL     1      -3.743   3.484 -26.871  0.00  0.00    +0.305 C 
ATOM     25  O   UNL     1      -4.712   2.727 -26.616  0.00  0.00    -0.251 OA
ATOM     26  C   UNL     1      -3.237   3.492 -28.020  0.00  0.00    +0.136 C 
ENDBRANCH  23  24
ENDBRANCH  16  23
TORSDOF 3
ENDMDL
