MODEL 1
REMARK VINA RESULT:    -8.236      0.000      0.000
REMARK INTER + INTRA:          -8.293
REMARK INTER:                  -9.033
REMARK INTRA:                   0.741
REMARK UNBOUND:                 0.907
REMARK  Name = ZINC000000056654
REMARK  5 active torsions:
REMARK  status: ('A' for Active; 'I' for Inactive)
REMARK    1  A    between atoms: C_1  and  O_2
REMARK    2  A    between atoms: O_2  and  C_3
REMARK    3  A    between atoms: C_9  and  O_10
REMARK    4  A    between atoms: O_10  and  C_11
REMARK    5  A    between atoms: C_16  and  C_17
REMARK                            x       y       z     vdW  Elec       q    Type
REMARK                         _______ _______ _______ _____ _____    ______ ____
ROOT
ATOM      1  C   UNL     1      -2.842   3.697 -24.822  0.00  0.00    +0.206 A 
ATOM      2  C   UNL     1      -3.916   3.680 -24.091  0.00  0.00    +0.183 A 
ATOM      3  O   UNL     1      -5.154   3.980 -24.355  0.00  0.00    -0.459 OA
ATOM      4  C   UNL     1      -5.852   3.794 -23.274  0.00  0.00    +0.196 A 
ATOM      5  C   UNL     1      -5.046   3.380 -22.342  0.00  0.00    +0.053 A 
ATOM      6  C   UNL     1      -3.850   3.309 -22.846  0.00  0.00    +0.066 A 
ATOM      7  C   UNL     1      -2.710   2.956 -22.334  0.00  0.00    +0.145 A 
ATOM      8  C   UNL     1      -1.635   2.972 -23.065  0.00  0.00    +0.110 A 
ATOM      9  C   UNL     1      -0.494   2.618 -22.552  0.00  0.00    +0.196 A 
ATOM     10  C   UNL     1       0.581   2.635 -23.284  0.00  0.00    +0.093 A 
ATOM     11  C   UNL     1       0.514   3.006 -24.528  0.00  0.00    +0.106 A 
ATOM     12  O   UNL     1      -0.626   3.360 -25.041  0.00  0.00    -0.456 OA
ATOM     13  C   UNL     1       1.589   3.023 -25.259  0.00  0.00    +0.086 C 
ATOM     14  O   UNL     1      -0.427   2.248 -21.308  0.00  0.00    -0.287 OA
ATOM     15  C   UNL     1      -1.701   3.343 -24.309  0.00  0.00    +0.187 A 
ENDROOT
BRANCH   1  17
ATOM     16  C   UNL     1      -3.365   3.248 -26.965  0.00  0.00    +0.277 C 
ATOM     17  O   UNL     1      -2.908   4.068 -26.066  0.00  0.00    -0.488 OA
ENDBRANCH   1  17
BRANCH   7  18
ATOM     18  O   UNL     1      -2.643   2.585 -21.089  0.00  0.00    -0.494 OA
ATOM     19  C   UNL     1      -3.021   3.397 -20.148  0.00  0.00    +0.277 C 
ENDBRANCH   7  18
TORSDOF 2
ENDMDL
