MODEL 1
REMARK VINA RESULT:    -8.963      0.000      0.000
REMARK INTER + INTRA:         -11.274
REMARK INTER:                 -11.162
REMARK INTRA:                  -0.113
REMARK UNBOUND:                 0.047
REMARK  Name = ZINC000004104806
REMARK  8 active torsions:
REMARK  status: ('A' for Active; 'I' for Inactive)
REMARK    1  A    between atoms: C_1  and  O_2
REMARK    2  A    between atoms: O_2  and  C_3
REMARK    3  A    between atoms: C_4  and  O_5
REMARK    4  A    between atoms: C_9  and  O_10
REMARK    5  A    between atoms: C_13  and  C_14
REMARK    6  A    between atoms: C_14  and  O_15
REMARK    7  A    between atoms: C_16  and  O_17
REMARK    8  A    between atoms: C_18  and  O_19
REMARK                            x       y       z     vdW  Elec       q    Type
REMARK                         _______ _______ _______ _____ _____    ______ ____
ROOT
ATOM      1  C   UNL     1      -2.740   3.751 -25.175  0.00  0.00    +0.203 A 
ATOM      2  C   UNL     1      -3.677   3.913 -24.288  0.00  0.00    +0.163 A 
ATOM      3  C   UNL     1      -3.467   3.574 -23.051  0.00  0.00    +0.064 A 
ATOM      4  C   UNL     1      -2.319   3.073 -22.701  0.00  0.00    +0.072 A 
ATOM      5  C   UNL     1      -1.382   2.911 -23.587  0.00  0.00    +0.044 A 
ATOM      6  C   UNL     1      -0.235   2.411 -23.236  0.00  0.00    +0.196 C 
ATOM      7  O   UNL     1       0.702   2.249 -24.122  0.00  0.00    -0.360 OA
ATOM      8  C   UNL     1       1.849   1.748 -23.771  0.00  0.00    +0.175 C 
ATOM      9  C   UNL     1       2.060   1.409 -22.534  0.00  0.00    +0.178 C 
ATOM     10  C   UNL     1       1.123   1.571 -21.648  0.00  0.00    +0.189 C 
ATOM     11  C   UNL     1      -0.025   2.072 -21.999  0.00  0.00    +0.241 C 
ATOM     12  O   UNL     1      -0.962   2.234 -21.112  0.00  0.00    -0.452 OA
ATOM     13  C   UNL     1      -2.109   2.734 -21.463  0.00  0.00    +0.340 C 
ATOM     14  O   UNL     1      -3.046   2.896 -20.577  0.00  0.00    -0.245 OA
ATOM     15  C   UNL     1      -1.593   3.250 -24.824  0.00  0.00    +0.169 A 
ENDROOT
BRANCH   1  17
ATOM     16  C   UNL     1      -3.555   3.267 -27.218  0.00  0.00    +0.277 C 
ATOM     17  O   UNL     1      -2.950   4.090 -26.412  0.00  0.00    -0.489 OA
ENDBRANCH   1  17
BRANCH  10  18
ATOM     18  O   UNL     1       1.332   1.232 -20.410  0.00  0.00    -0.385 OA
ATOM     19  H   UNL     1       1.333   0.265 -20.336  0.00  0.00    +0.210 HD
ENDBRANCH  10  18
BRANCH   9  20
ATOM     20  O   UNL     1       3.207   0.909 -22.184  0.00  0.00    -0.386 OA
ATOM     21  H   UNL     1       3.777   1.615 -21.842  0.00  0.00    +0.210 HD
ENDBRANCH   9  20
BRANCH  15  22
ATOM     22  O   UNL     1      -0.655   3.089 -25.711  0.00  0.00    -0.503 OA
ATOM     23  H   UNL     1      -0.729   2.410 -26.353  0.00  0.00    +0.292 HD
ENDBRANCH  15  22
BRANCH   2  24
ATOM     24  O   UNL     1      -4.824   4.414 -24.639  0.00  0.00    -0.503 OA
ATOM     25  H   UNL     1      -5.270   4.081 -25.393  0.00  0.00    +0.292 HD
ENDBRANCH   2  24
BRANCH   8  26
ATOM     26  C   UNL     1       2.786   1.586 -24.658  0.00  0.00    +0.190 C 
BRANCH  26  27
ATOM     27  O   UNL     1       3.064   0.396 -25.101  0.00  0.00    -0.392 OA
ATOM     28  H   UNL     1       2.691  -0.268 -24.499  0.00  0.00    +0.210 HD
ENDBRANCH  26  27
ENDBRANCH   8  26
TORSDOF 7
ENDMDL
