MODEL 1
REMARK VINA RESULT:    -9.507      0.000      0.000
REMARK INTER + INTRA:         -11.393
REMARK INTER:                 -10.840
REMARK INTRA:                  -0.552
REMARK UNBOUND:                -0.496
REMARK  Name = ZINC000000338037
REMARK  4 active torsions:
REMARK  status: ('A' for Active; 'I' for Inactive)
REMARK    1  A    between atoms: C_1  and  O_2
REMARK    2  A    between atoms: O_2  and  C_3
REMARK    3  A    between atoms: C_5  and  O_6
REMARK    4  A    between atoms: C_13  and  C_14
REMARK                            x       y       z     vdW  Elec       q    Type
REMARK                         _______ _______ _______ _____ _____    ______ ____
ROOT
ATOM      1  C   UNL     1       2.216   3.282 -22.963  0.00  0.00    +0.138 A 
ATOM      2  C   UNL     1       2.854   2.293 -22.409  0.00  0.00    +0.092 A 
ATOM      3  C   UNL     1       2.191   1.339 -21.825  0.00  0.00    +0.124 A 
ATOM      4  C   UNL     1       0.892   1.374 -21.794  0.00  0.00    +0.092 A 
ATOM      5  C   UNL     1       0.255   2.363 -22.347  0.00  0.00    +0.139 A 
ATOM      6  O   UNL     1      -1.044   2.397 -22.316  0.00  0.00    -0.483 OA
ATOM      7  C   UNL     1      -1.681   3.386 -22.870  0.00  0.00    +0.211 C 
ATOM      8  C   UNL     1      -1.019   4.340 -23.455  0.00  0.00    +0.129 C 
ATOM      9  C   UNL     1       0.280   4.305 -23.485  0.00  0.00    +0.174 C 
ATOM     10  O   UNL     1       0.942   5.259 -24.070  0.00  0.00    -0.292 OA
ATOM     11  C   UNL     1       0.917   3.317 -22.932  0.00  0.00    +0.101 A 
ENDROOT
BRANCH   7  12
ATOM     12  C   UNL     1      -2.980   3.421 -22.839  0.00  0.00    -0.007 A 
ATOM     13  C   UNL     1      -3.613   3.072 -21.758  0.00  0.00    +0.007 A 
ATOM     14  C   UNL     1      -4.913   3.107 -21.727  0.00  0.00    +0.000 A 
ATOM     15  C   UNL     1      -5.579   3.490 -22.776  0.00  0.00    +0.000 A 
ATOM     16  C   UNL     1      -4.944   3.839 -23.856  0.00  0.00    +0.000 A 
ATOM     17  C   UNL     1      -3.646   3.804 -23.888  0.00  0.00    +0.007 A 
ENDBRANCH   7  12
BRANCH   1  19
ATOM     18  C   UNL     1       4.109   4.476 -23.207  0.00  0.00    +0.277 C 
ATOM     19  O   UNL     1       2.878   4.236 -23.548  0.00  0.00    -0.494 OA
ENDBRANCH   1  19
BRANCH   3  20
ATOM     20  O   UNL     1       2.829   0.351 -21.271  0.00  0.00    -0.507 OA
ATOM     21  H   UNL     1       2.481  -0.518 -21.320  0.00  0.00    +0.292 HD
ENDBRANCH   3  20
TORSDOF 3
ENDMDL
