MODEL 1
REMARK VINA RESULT:   -11.802      0.000      0.000
REMARK INTER + INTRA:         -12.147
REMARK INTER:                 -12.147
REMARK INTRA:                   0.000
REMARK UNBOUND:                 0.000
REMARK  Name = ZINC000005529900
REMARK  3 active torsions:
REMARK  status: ('A' for Active; 'I' for Inactive)
REMARK    1  A    between atoms: C_1  and  C_2
REMARK    2  A    between atoms: C_15  and  C_16
REMARK    3  A    between atoms: C_20  and  O_21
REMARK                            x       y       z     vdW  Elec       q    Type
REMARK                         _______ _______ _______ _____ _____    ______ ____
ROOT
ATOM      1  C   UNL     1      -4.904   3.048 -21.872  0.00  0.00    +0.014 C 
ATOM      2  C   UNL     1      -4.002   3.255 -22.784  0.00  0.00    -0.003 C 
ATOM      3  C   UNL     1      -3.549   2.667 -21.717  0.00  0.00    +0.010 C 
ATOM      4  C   UNL     1      -2.293   2.342 -21.637  0.00  0.00    +0.005 C 
ATOM      5  C   UNL     1      -1.489   2.606 -22.624  0.00  0.00    -0.001 C 
ATOM      6  C   UNL     1      -1.941   3.194 -23.691  0.00  0.00    -0.004 C 
ATOM      7  C   UNL     1      -1.138   3.458 -24.678  0.00  0.00    +0.004 C 
ATOM      8  C   UNL     1       0.119   3.133 -24.598  0.00  0.00    +0.005 C 
ATOM      9  C   UNL     1       0.571   2.545 -23.531  0.00  0.00    +0.002 C 
ATOM     10  C   UNL     1       1.827   2.220 -23.451  0.00  0.00    +0.078 C 
ATOM     11  C   UNL     1       2.279   1.632 -22.383  0.00  0.00    +0.134 C 
ATOM     12  C   UNL     1       1.476   1.368 -21.396  0.00  0.00    +0.075 C 
ATOM     13  C   UNL     1       0.220   1.693 -21.476  0.00  0.00    +0.015 C 
ATOM     14  O   UNL     1       3.536   1.307 -22.303  0.00  0.00    -0.297 OA
ATOM     15  C   UNL     1      -0.233   2.281 -22.544  0.00  0.00    -0.025 C 
ATOM     16  C   UNL     1      -1.037   2.017 -21.557  0.00  0.00    +0.012 C 
ATOM     17  C   UNL     1      -5.188   3.675 -23.109  0.00  0.00    +0.121 C 
ATOM     18  C   UNL     1      -5.118   4.199 -24.297  0.00  0.00    +0.032 C 
ATOM     19  C   UNL     1      -3.888   4.102 -24.706  0.00  0.00    +0.007 C 
ATOM     20  C   UNL     1      -3.198   3.519 -23.772  0.00  0.00    +0.001 C 
ENDROOT
BRANCH  17  21
ATOM     21  O   UNL     1      -6.258   3.588 -22.376  0.00  0.00    -0.391 OA
ATOM     22  H   UNL     1      -7.038   3.785 -22.916  0.00  0.00    +0.210 HD
ENDBRANCH  17  21
TORSDOF 1
ENDMDL
