MODEL 1
REMARK VINA RESULT:    -9.031      0.000      0.000
REMARK INTER + INTRA:         -17.419
REMARK INTER:                 -15.616
REMARK INTRA:                  -1.804
REMARK UNBOUND:                -1.260
REMARK  Name = CCCCCCCCCCCC1=C(O)C(=O)C=C(Nc2ccc(S(N)(=O)=O)cc2)C1=O                ZINC000100392813
REMARK  15 active torsions:
REMARK  status: ('A' for Active; 'I' for Inactive)
REMARK    1  A    between atoms: C_1  and  C_2
REMARK    2  A    between atoms: C_2  and  C_3
REMARK    3  A    between atoms: C_3  and  C_4
REMARK    4  A    between atoms: C_4  and  C_5
REMARK    5  A    between atoms: C_5  and  C_6
REMARK    6  A    between atoms: C_6  and  C_7
REMARK    7  A    between atoms: C_7  and  C_8
REMARK    8  A    between atoms: C_8  and  C_9
REMARK    9  A    between atoms: C_9  and  C_10
REMARK   10  A    between atoms: C_10  and  C_11
REMARK   11  A    between atoms: C_11  and  C_12
REMARK   12  A    between atoms: C_18  and  N_19
REMARK   13  A    between atoms: N_19  and  C_20
REMARK   14  A    between atoms: C_23  and  S_24
REMARK   15  A    between atoms: S_24  and  N_25
REMARK                            x       y       z     vdW  Elec       q    Type
REMARK                         _______ _______ _______ _____ _____    ______ ____
ROOT
ATOM      1  C   UNL     1       3.112   2.832 -24.005  0.00  0.00    -0.008 C 
ATOM      2  C   UNL     1       3.287   3.897 -23.281  0.00  0.00    +0.228 C 
ATOM      3  C   UNL     1       2.480   4.908 -23.406  0.00  0.00    +0.227 C 
ATOM      4  C   UNL     1       1.497   4.854 -24.257  0.00  0.00    +0.077 C 
ATOM      5  C   UNL     1       1.322   3.789 -24.981  0.00  0.00    +0.022 C 
ATOM      6  O   UNL     1       2.654   5.974 -22.682  0.00  0.00    -0.284 OA
ATOM      7  O   UNL     1       4.269   3.952 -22.431  0.00  0.00    -0.284 OA
ATOM      8  C   UNL     1       2.130   2.778 -24.855  0.00  0.00    -0.112 C 
ATOM      9  O   UNL     1       1.955   1.712 -25.579  0.00  0.00    -0.828 OA
ENDROOT
BRANCH   5  10
ATOM     10  N   UNL     1       0.340   3.734 -25.831  0.00  0.00    -0.315 N 
ATOM     11  H   UNL     1       0.526   3.638 -26.792  0.00  0.00    +0.152 HD
BRANCH  10  12
ATOM     12  C   UNL     1      -0.888   3.806 -25.410  0.00  0.00    +0.031 A 
ATOM     13  C   UNL     1      -1.849   3.297 -26.121  0.00  0.00    +0.025 A 
ATOM     14  C   UNL     1      -3.078   3.370 -25.700  0.00  0.00    +0.030 A 
ATOM     15  C   UNL     1      -3.344   3.950 -24.569  0.00  0.00    +0.105 A 
ATOM     16  C   UNL     1      -2.382   4.459 -23.857  0.00  0.00    +0.030 A 
ATOM     17  C   UNL     1      -1.155   4.387 -24.278  0.00  0.00    +0.025 A 
BRANCH  15  18
ATOM     18  S   UNL     1      -4.572   4.022 -24.148  0.00  0.00    +0.056 S 
ATOM     19  O   UNL     1      -4.797   5.001 -24.974  0.00  0.00    -0.153 OA
ATOM     20  O   UNL     1      -4.346   3.044 -23.323  0.00  0.00    -0.153 OA
BRANCH  18  21
ATOM     21  N   UNL     1      -5.800   4.094 -23.728  0.00  0.00    -0.204 NA
ATOM     22  H   UNL     1      -5.912   4.925 -23.146  0.00  0.00    +0.144 HD
ATOM     23  H   UNL     1      -6.430   4.152 -24.528  0.00  0.00    +0.144 HD
ENDBRANCH  18  21
ENDBRANCH  15  18
ENDBRANCH  10  12
ENDBRANCH   5  10
BRANCH   1  24
ATOM     24  C   UNL     1       3.919   1.821 -23.880  0.00  0.00    +0.038 C 
BRANCH  24  25
ATOM     25  C   UNL     1       3.559   0.784 -23.183  0.00  0.00    +0.005 C 
BRANCH  25  26
ATOM     26  C   UNL     1       3.955   0.659 -21.951  0.00  0.00    +0.000 C 
BRANCH  26  27
ATOM     27  C   UNL     1       3.081   0.557 -20.995  0.00  0.00    +0.000 C 
BRANCH  27  28
ATOM     28  C   UNL     1       2.336   1.576 -20.684  0.00  0.00    +0.000 C 
BRANCH  28  29
ATOM     29  C   UNL     1       1.043   1.448 -20.646  0.00  0.00    +0.000 C 
BRANCH  29  30
ATOM     30  C   UNL     1       0.336   1.678 -21.713  0.00  0.00    -0.000 C 
BRANCH  30  31
ATOM     31  C   UNL     1      -0.960   1.753 -21.631  0.00  0.00    -0.000 C 
BRANCH  31  32
ATOM     32  C   UNL     1      -1.520   2.829 -21.164  0.00  0.00    -0.000 C 
BRANCH  32  34
ATOM     33  C   UNL     1      -3.229   3.829 -20.092  0.00  0.00    +0.004 C 
ATOM     34  C   UNL     1      -2.655   2.750 -20.536  0.00  0.00    -0.003 C 
ENDBRANCH  32  34
ENDBRANCH  31  32
ENDBRANCH  30  31
ENDBRANCH  29  30
ENDBRANCH  28  29
ENDBRANCH  27  28
ENDBRANCH  26  27
ENDBRANCH  25  26
ENDBRANCH  24  25
ENDBRANCH   1  24
TORSDOF 14
ENDMDL
