MODEL 1
REMARK VINA RESULT:    -8.929      0.000      0.000
REMARK INTER + INTRA:         -10.332
REMARK INTER:                 -10.137
REMARK INTRA:                  -0.195
REMARK UNBOUND:                -0.358
REMARK  Name = CC[N@@+]1(C)CCc2cc3c(c4c2[C@@H]1Cc1ccc(OC)cc1-4)OCO3                 ZINC000249692478
REMARK  5 active torsions:
REMARK  status: ('A' for Active; 'I' for Inactive)
REMARK    1  A    between atoms: C_1  and  C_2
REMARK    2  A    between atoms: C_2  and  N_3
REMARK    3  A    between atoms: N_3  and  C_4
REMARK    4  A    between atoms: C_18  and  O_19
REMARK    5  A    between atoms: O_19  and  C_20
REMARK                            x       y       z     vdW  Elec       q    Type
REMARK                         _______ _______ _______ _____ _____    ______ ____
ROOT
ATOM      1  N   UNL     1       0.954   2.047 -22.271  0.00  0.00    +0.247 N 
ATOM      2  C   UNL     1       1.748   2.161 -23.293  0.00  0.00    +0.138 C 
ATOM      3  C   UNL     1       1.277   2.551 -24.441  0.00  0.00    +0.086 C 
ATOM      4  C   UNL     1       0.013   2.829 -24.566  0.00  0.00    -0.030 A 
ATOM      5  C   UNL     1      -0.456   3.219 -25.713  0.00  0.00    +0.054 A 
ATOM      6  C   UNL     1      -1.720   3.497 -25.838  0.00  0.00    +0.167 A 
ATOM      7  C   UNL     1      -2.514   3.383 -24.814  0.00  0.00    +0.174 A 
ATOM      8  O   UNL     1      -3.712   3.715 -25.197  0.00  0.00    -0.452 OA
ATOM      9  C   UNL     1      -3.657   4.033 -26.456  0.00  0.00    +0.466 C 
ATOM     10  C   UNL     1      -2.044   2.992 -23.667  0.00  0.00    +0.037 A 
ATOM     11  C   UNL     1      -2.839   2.879 -22.644  0.00  0.00    -0.007 A 
ATOM     12  C   UNL     1      -4.103   3.157 -22.769  0.00  0.00    +0.054 A 
ATOM     13  C   UNL     1      -4.896   3.043 -21.745  0.00  0.00    +0.121 A 
ATOM     14  C   UNL     1      -4.427   2.653 -20.599  0.00  0.00    +0.046 A 
ATOM     15  C   UNL     1      -3.163   2.375 -20.474  0.00  0.00    +0.008 A 
ATOM     16  C   UNL     1      -2.368   2.488 -21.497  0.00  0.00    -0.034 A 
ATOM     17  C   UNL     1      -1.105   2.211 -21.372  0.00  0.00    +0.095 C 
ATOM     18  O   UNL     1      -2.426   3.898 -26.852  0.00  0.00    -0.453 OA
ATOM     19  C   UNL     1      -0.780   2.715 -23.543  0.00  0.00    +0.015 A 
ATOM     20  C   UNL     1       0.550   1.809 -21.058  0.00  0.00    +0.193 C 
ATOM     21  C   UNL     1      -0.311   2.325 -22.395  0.00  0.00    +0.102 C 
ENDROOT
BRANCH   1  23
ATOM     22  C   UNL     1       2.649   0.578 -22.087  0.00  0.00    +0.060 C 
ATOM     23  C   UNL     1       2.077   1.687 -21.725  0.00  0.00    +0.130 C 
ENDBRANCH   1  23
BRANCH  13  24
ATOM     24  O   UNL     1      -6.161   3.320 -21.870  0.00  0.00    -0.495 OA
ATOM     25  C   UNL     1      -7.050   2.386 -21.711  0.00  0.00    +0.277 C 
ENDBRANCH  13  24
TORSDOF 2
ENDMDL
