MODEL 1
REMARK VINA RESULT:   -11.294      0.000      0.000
REMARK INTER + INTRA:         -11.958
REMARK INTER:                 -12.767
REMARK INTRA:                   0.809
REMARK UNBOUND:                 0.656
REMARK  Name = ZINC000013523362
REMARK  5 active torsions:
REMARK  status: ('A' for Active; 'I' for Inactive)
REMARK    1  A    between atoms: C_1  and  C_2
REMARK    2  A    between atoms: C_2  and  O_4
REMARK    3  A    between atoms: O_4  and  C_5
REMARK    4  A    between atoms: C_18  and  C_19
REMARK    5  A    between atoms: C_23  and  C_24
REMARK                            x       y       z     vdW  Elec       q    Type
REMARK                         _______ _______ _______ _____ _____    ______ ____
ROOT
ATOM      1  C   UNL     1       1.954   3.114 -23.682  0.00  0.00    +0.183 C 
ATOM      2  C   UNL     1       1.865   3.778 -24.796  0.00  0.00    +0.045 C 
ATOM      3  C   UNL     1       0.610   4.046 -25.006  0.00  0.00    +0.008 C 
ATOM      4  C   UNL     1      -0.077   3.547 -24.022  0.00  0.00    +0.002 C 
ATOM      5  C   UNL     1      -1.352   3.543 -23.764  0.00  0.00    -0.003 C 
ATOM      6  C   UNL     1      -2.181   4.118 -24.583  0.00  0.00    +0.008 C 
ATOM      7  C   UNL     1      -3.455   4.114 -24.326  0.00  0.00    +0.032 C 
ATOM      8  C   UNL     1      -3.900   3.534 -23.251  0.00  0.00    -0.060 C 
ATOM      9  C   UNL     1      -5.174   3.530 -22.993  0.00  0.00    +0.046 C 
ATOM     10  C   UNL     1      -5.619   2.950 -21.919  0.00  0.00    +0.156 C 
ATOM     11  C   UNL     1      -4.789   2.374 -21.101  0.00  0.00    +0.080 C 
ATOM     12  C   UNL     1      -3.514   2.379 -21.358  0.00  0.00    +0.019 C 
ATOM     13  O   UNL     1      -6.893   2.946 -21.662  0.00  0.00    -0.293 OA
ATOM     14  C   UNL     1      -3.070   2.958 -22.432  0.00  0.00    -0.007 C 
ATOM     15  C   UNL     1      -2.240   2.383 -21.614  0.00  0.00    +0.016 C 
ATOM     16  C   UNL     1      -1.796   2.963 -22.689  0.00  0.00    +0.002 C 
ATOM     17  C   UNL     1      -0.966   2.387 -21.871  0.00  0.00    +0.005 C 
ATOM     18  C   UNL     1       0.308   2.391 -22.128  0.00  0.00    +0.011 C 
ATOM     19  C   UNL     1       0.753   2.971 -23.203  0.00  0.00    +0.008 C 
ATOM     20  C   UNL     1       1.683   2.433 -22.470  0.00  0.00    +0.015 C 
ENDROOT
BRANCH   1  21
ATOM     21  O   UNL     1       3.049   2.670 -23.141  0.00  0.00    -0.461 OA
BRANCH  21  23
ATOM     22  C   UNL     1       5.208   3.003 -23.687  0.00  0.00    +0.136 C 
ATOM     23  C   UNL     1       4.113   3.417 -23.123  0.00  0.00    +0.304 C 
ATOM     24  O   UNL     1       4.082   4.579 -22.540  0.00  0.00    -0.251 OA
ENDBRANCH  21  23
ENDBRANCH   1  21
TORSDOF 2
ENDMDL
