MODEL 1
REMARK VINA RESULT:   -11.731      0.000      0.000
REMARK INTER + INTRA:         -14.629
REMARK INTER:                 -13.807
REMARK INTRA:                  -0.822
REMARK UNBOUND:                -0.498
REMARK  Name = CCOC(=O)[C@H]1C[C@@]23C=C[C@H]1C[C@@]21CCN(C)[C@H]3Cc2ccc(OC)c(O)c21 ZINC000253504525
REMARK  8 active torsions:
REMARK  status: ('A' for Active; 'I' for Inactive)
REMARK    1  A    between atoms: C_1  and  C_2
REMARK    2  A    between atoms: C_2  and  O_3
REMARK    3  A    between atoms: O_3  and  C_4
REMARK    4  A    between atoms: C_4  and  C_6
REMARK    5  A    between atoms: N_16  and  C_17
REMARK    6  A    between atoms: C_23  and  O_24
REMARK    7  A    between atoms: O_24  and  C_25
REMARK    8  A    between atoms: C_26  and  O_27
REMARK                            x       y       z     vdW  Elec       q    Type
REMARK                         _______ _______ _______ _____ _____    ______ ____
ROOT
ATOM      1  C   UNL     1       0.312   1.953 -22.176  0.00  0.00    +0.106 C 
ATOM      2  C   UNL     1      -0.695   2.064 -21.416  0.00  0.00    +0.032 C 
ATOM      3  C   UNL     1      -2.031   2.474 -21.704  0.00  0.00    +0.043 C 
ATOM      4  C   UNL     1      -1.309   2.098 -20.782  0.00  0.00    -0.018 C 
ATOM      5  C   UNL     1      -0.326   1.889 -21.027  0.00  0.00    -0.026 C 
ATOM      6  C   UNL     1      -3.242   2.746 -21.478  0.00  0.00    +0.079 C 
ATOM      7  C   UNL     1      -4.352   3.229 -22.423  0.00  0.00    +0.090 C 
ATOM      8  C   UNL     1      -4.101   3.390 -23.551  0.00  0.00    -0.035 A 
ATOM      9  C   UNL     1      -4.973   3.774 -24.320  0.00  0.00    +0.008 A 
ATOM     10  C   UNL     1      -4.707   3.946 -25.523  0.00  0.00    +0.049 A 
ATOM     11  C   UNL     1      -3.548   3.728 -25.952  0.00  0.00    +0.162 A 
ATOM     12  C   UNL     1      -2.659   3.340 -25.185  0.00  0.00    +0.163 A 
ATOM     13  C   UNL     1      -2.901   3.165 -24.001  0.00  0.00    +0.008 A 
ATOM     14  N   UNL     1      -3.711   3.008 -22.164  0.00  0.00    +0.236 N 
ATOM     15  H   UNL     1      -4.427   3.328 -22.816  0.00  0.00    +0.203 HD
ATOM     16  C   UNL     1      -3.646   2.659 -20.517  0.00  0.00    +0.190 C 
ATOM     17  C   UNL     1      -3.323   3.129 -23.271  0.00  0.00    +0.132 C 
ATOM     18  C   UNL     1      -2.217   2.931 -23.732  0.00  0.00    +0.063 C 
ATOM     19  C   UNL     1      -1.557   2.649 -23.191  0.00  0.00    +0.019 C 
ATOM     20  C   UNL     1      -0.284   2.365 -23.447  0.00  0.00    +0.021 C 
ATOM     21  C   UNL     1       0.113   2.080 -22.546  0.00  0.00    +0.026 C 
ENDROOT
BRANCH   1  22
ATOM     22  C   UNL     1       2.309   1.826 -24.153  0.00  0.00    +0.311 C 
ATOM     23  O   UNL     1       2.463   0.801 -24.914  0.00  0.00    -0.251 OA
BRANCH  22  24
ATOM     24  O   UNL     1       3.216   2.805 -24.433  0.00  0.00    -0.465 OA
BRANCH  24  26
ATOM     25  C   UNL     1       2.631   4.749 -23.288  0.00  0.00    +0.048 C 
ATOM     26  C   UNL     1       3.422   3.765 -23.491  0.00  0.00    +0.229 C 
ENDBRANCH  24  26
ENDBRANCH  22  24
ENDBRANCH   1  22
BRANCH  12  27
ATOM     27  O   UNL     1      -1.497   3.110 -25.558  0.00  0.00    -0.503 OA
ATOM     28  H   UNL     1      -0.937   2.566 -25.040  0.00  0.00    +0.292 HD
ENDBRANCH  12  27
BRANCH  11  29
ATOM     29  O   UNL     1      -3.006   3.808 -27.057  0.00  0.00    -0.491 OA
ATOM     30  C   UNL     1      -3.439   3.451 -28.073  0.00  0.00    +0.277 C 
ENDBRANCH  11  29
TORSDOF 5
ENDMDL
