MODEL 1
REMARK VINA RESULT:   -10.787      0.000      0.000
REMARK INTER + INTRA:         -11.102
REMARK INTER:                 -11.102
REMARK INTRA:                   0.000
REMARK UNBOUND:                 0.000
REMARK  Name = ZINC000029221936
REMARK  2 active torsions:
REMARK  status: ('A' for Active; 'I' for Inactive)
REMARK    1  A    between atoms: C_1  and  N_2
REMARK    2  A    between atoms: C_17  and  O_18
REMARK                            x       y       z     vdW  Elec       q    Type
REMARK                         _______ _______ _______ _____ _____    ______ ____
ROOT
ATOM      1  C   UNL     1      -3.683   2.995 -20.282  0.00  0.00    +0.190 C 
ATOM      2  N   UNL     1      -3.451   3.092 -21.774  0.00  0.00    +0.236 N 
ATOM      3  H   UNL     1      -4.154   3.417 -22.439  0.00  0.00    +0.203 HD
ATOM      4  C   UNL     1      -3.320   3.186 -22.945  0.00  0.00    +0.132 C 
ATOM      5  C   UNL     1      -2.332   2.919 -23.597  0.00  0.00    +0.063 C 
ATOM      6  C   UNL     1      -1.550   2.594 -23.156  0.00  0.00    +0.015 C 
ATOM      7  C   UNL     1      -0.469   2.286 -23.735  0.00  0.00    +0.086 C 
ATOM      8  C   UNL     1       0.547   1.849 -23.038  0.00  0.00    +0.134 C 
ATOM      9  C   UNL     1       0.461   1.722 -21.724  0.00  0.00    +0.075 C 
ATOM     10  C   UNL     1      -0.637   2.029 -21.083  0.00  0.00    +0.017 C 
ATOM     11  O   UNL     1       1.634   1.546 -23.677  0.00  0.00    -0.297 OA
ATOM     12  C   UNL     1      -3.011   3.182 -23.813  0.00  0.00    -0.033 A 
ATOM     13  C   UNL     1      -2.935   3.307 -25.092  0.00  0.00    +0.050 A 
ATOM     14  C   UNL     1      -3.938   3.736 -25.755  0.00  0.00    +0.117 A 
ATOM     15  C   UNL     1      -5.031   4.045 -25.145  0.00  0.00    +0.046 A 
ATOM     16  C   UNL     1      -5.114   3.920 -23.856  0.00  0.00    +0.007 A 
ATOM     17  C   UNL     1      -4.111   3.491 -23.190  0.00  0.00    -0.038 A 
ATOM     18  C   UNL     1      -4.148   3.362 -22.000  0.00  0.00    +0.090 C 
ATOM     19  C   UNL     1      -1.647   2.458 -21.731  0.00  0.00    +0.049 C 
ATOM     20  C   UNL     1      -2.836   2.812 -21.223  0.00  0.00    +0.072 C 
ENDROOT
BRANCH  14  21
ATOM     21  O   UNL     1      -3.696   3.811 -27.092  0.00  0.00    -0.507 OA
ATOM     22  H   UNL     1      -2.841   3.617 -27.424  0.00  0.00    +0.292 HD
ENDBRANCH  14  21
TORSDOF 1
ENDMDL
