MODEL 1
REMARK VINA RESULT:    -8.893      0.000      0.000
REMARK INTER + INTRA:         -10.677
REMARK INTER:                 -10.415
REMARK INTRA:                  -0.262
REMARK UNBOUND:                -0.224
REMARK  Name = ZINC000000057588
REMARK  5 active torsions:
REMARK  status: ('A' for Active; 'I' for Inactive)
REMARK    1  A    between atoms: C_1  and  O_2
REMARK    2  A    between atoms: O_2  and  C_3
REMARK    3  A    between atoms: C_6  and  C_7
REMARK    4  A    between atoms: C_12  and  O_13
REMARK    5  A    between atoms: O_13  and  C_14
REMARK                            x       y       z     vdW  Elec       q    Type
REMARK                         _______ _______ _______ _____ _____    ______ ____
ROOT
ATOM      1  C   UNL     1      -0.764   3.944 -23.137  0.00  0.00    +0.064 A 
ATOM      2  C   UNL     1      -0.242   5.130 -23.239  0.00  0.00    +0.208 A 
ATOM      3  O   UNL     1       1.046   5.265 -23.367  0.00  0.00    -0.462 OA
ATOM      4  C   UNL     1       1.809   4.213 -23.391  0.00  0.00    +0.142 A 
ATOM      5  C   UNL     1       3.096   4.348 -23.519  0.00  0.00    +0.092 A 
ATOM      6  C   UNL     1       3.861   3.296 -23.544  0.00  0.00    +0.124 A 
ATOM      7  C   UNL     1       3.338   2.110 -23.441  0.00  0.00    +0.046 A 
ATOM      8  C   UNL     1       2.051   1.976 -23.314  0.00  0.00    +0.019 A 
ATOM      9  C   UNL     1       1.287   3.027 -23.289  0.00  0.00    +0.065 A 
ATOM     10  C   UNL     1       0.001   2.893 -23.162  0.00  0.00    +0.200 A 
ATOM     11  O   UNL     1      -0.522   1.707 -23.059  0.00  0.00    -0.286 OA
ENDROOT
BRANCH   1  15
ATOM     12  C   UNL     1      -4.624   3.537 -22.752  0.00  0.00    +0.120 A 
ATOM     13  C   UNL     1      -4.103   3.716 -23.931  0.00  0.00    +0.046 A 
ATOM     14  C   UNL     1      -2.817   3.852 -24.059  0.00  0.00    +0.012 A 
ATOM     15  C   UNL     1      -2.051   3.809 -23.009  0.00  0.00    -0.011 A 
ATOM     16  C   UNL     1      -2.571   3.630 -21.832  0.00  0.00    +0.012 A 
ATOM     17  C   UNL     1      -3.858   3.495 -21.703  0.00  0.00    +0.046 A 
BRANCH  12  19
ATOM     18  C   UNL     1      -6.395   2.688 -21.652  0.00  0.00    +0.277 C 
ATOM     19  O   UNL     1      -5.910   3.402 -22.624  0.00  0.00    -0.495 OA
ENDBRANCH  12  19
ENDBRANCH   1  15
BRANCH   6  20
ATOM     20  O   UNL     1       5.147   3.431 -23.671  0.00  0.00    -0.495 OA
ATOM     21  C   UNL     1       5.755   4.428 -23.101  0.00  0.00    +0.277 C 
ENDBRANCH   6  20
TORSDOF 3
ENDMDL
