MODEL 1
REMARK VINA RESULT:    -7.936      0.000      0.000
REMARK INTER + INTRA:         -10.145
REMARK INTER:                  -9.576
REMARK INTRA:                  -0.569
REMARK UNBOUND:                -0.584
REMARK  Name = ZINC000001578708
REMARK  5 active torsions:
REMARK  status: ('A' for Active; 'I' for Inactive)
REMARK    1  A    between atoms: C_1  and  N_2
REMARK    2  A    between atoms: C_7  and  C_8
REMARK    3  A    between atoms: C_8  and  C_9
REMARK    4  A    between atoms: C_9  and  O_10
REMARK    5  A    between atoms: C_9  and  C_11
REMARK                            x       y       z     vdW  Elec       q    Type
REMARK                         _______ _______ _______ _____ _____    ______ ____
ROOT
ATOM      1  C   UNL     1      -0.952   3.122 -22.393  0.00  0.00    +0.090 C 
ENDROOT
BRANCH   1   9
ATOM      2  C   UNL     1       1.049   1.494 -22.067  0.00  0.00    +0.190 C 
ATOM      3  N   UNL     1       1.227   2.628 -22.678  0.00  0.00    +0.235 N 
ATOM      4  H   UNL     1       0.690   1.911 -22.188  0.00  0.00    +0.203 HD
ATOM      5  C   UNL     1       2.404   2.948 -23.126  0.00  0.00    +0.131 C 
ATOM      6  C   UNL     1       2.580   4.082 -23.738  0.00  0.00    +0.051 C 
ATOM      7  C   UNL     1       1.580   4.895 -23.901  0.00  0.00    +0.011 C 
ATOM      8  C   UNL     1       0.403   4.575 -23.453  0.00  0.00    +0.055 C 
ATOM      9  C   UNL     1       0.226   3.441 -22.842  0.00  0.00    +0.067 C 
ENDBRANCH   1   9
BRANCH   1  10
ATOM     10  C   UNL     1      -1.892   2.780 -23.223  0.00  0.00    +0.150 C 
BRANCH  10  11
ATOM     11  C   UNL     1      -3.139   2.982 -22.912  0.00  0.00    -0.019 A 
ATOM     12  C   UNL     1      -3.585   2.618 -21.747  0.00  0.00    +0.006 A 
ATOM     13  C   UNL     1      -4.831   2.820 -21.436  0.00  0.00    +0.000 A 
ATOM     14  C   UNL     1      -5.630   3.386 -22.291  0.00  0.00    +0.000 A 
ATOM     15  C   UNL     1      -5.184   3.751 -23.456  0.00  0.00    +0.000 A 
ATOM     16  C   UNL     1      -3.938   3.549 -23.767  0.00  0.00    +0.006 A 
ENDBRANCH  10  11
BRANCH  10  17
ATOM     17  O   UNL     1      -1.587   2.236 -24.364  0.00  0.00    -0.387 OA
ATOM     18  H   UNL     1      -1.504   1.277 -24.253  0.00  0.00    +0.210 HD
ENDBRANCH  10  17
ENDBRANCH   1  10
TORSDOF 4
ENDMDL
