MODEL 1
REMARK VINA RESULT:    -9.256      0.000      0.000
REMARK INTER + INTRA:         -12.163
REMARK INTER:                 -11.907
REMARK INTRA:                  -0.256
REMARK UNBOUND:                -0.202
REMARK  Name = CN1[C@H]2CC[C@@H]1C[C@H](OC(=O)[C@H](CO)c1ccccc1)C2                  ZINC000100009280
REMARK  7 active torsions:
REMARK  status: ('A' for Active; 'I' for Inactive)
REMARK    1  A    between atoms: C_1  and  N_2
REMARK    2  A    between atoms: C_8  and  O_9
REMARK    3  A    between atoms: O_9  and  C_10
REMARK    4  A    between atoms: C_10  and  C_12
REMARK    5  A    between atoms: C_12  and  C_13
REMARK    6  A    between atoms: C_12  and  C_15
REMARK    7  A    between atoms: C_13  and  O_14
REMARK                            x       y       z     vdW  Elec       q    Type
REMARK                         _______ _______ _______ _____ _____    ______ ____
ROOT
ATOM      1  C   UNL     1       0.056   2.837 -23.142  0.00  0.00    +0.317 C 
ATOM      2  O   UNL     1       0.006   1.502 -22.992  0.00  0.00    -0.250 OA
ENDROOT
BRANCH   1   3
ATOM      3  O   UNL     1      -0.745   3.638 -22.369  0.00  0.00    -0.460 OA
BRANCH   3  11
ATOM      4  C   UNL     1      -4.825   3.453 -22.672  0.00  0.00    +0.191 C 
ATOM      5  N   UNL     1      -4.313   3.476 -22.635  0.00  0.00    +0.238 N 
ATOM      6  H   UNL     1      -3.297   3.523 -22.562  0.00  0.00    +0.204 HD
ATOM      7  C   UNL     1      -4.139   3.791 -23.478  0.00  0.00    +0.068 C 
ATOM      8  C   UNL     1      -5.525   3.710 -23.531  0.00  0.00    +0.060 C 
ATOM      9  C   UNL     1      -5.616   3.128 -21.925  0.00  0.00    +0.060 C 
ATOM     10  C   UNL     1      -2.829   3.941 -23.634  0.00  0.00    +0.099 C 
ATOM     11  C   UNL     1      -2.121   3.576 -22.474  0.00  0.00    +0.187 C 
ATOM     12  C   UNL     1      -2.955   3.141 -21.428  0.00  0.00    +0.099 C 
ATOM     13  C   UNL     1      -4.237   3.173 -21.775  0.00  0.00    +0.068 C 
ENDBRANCH   3  11
ENDBRANCH   1   3
BRANCH   1  14
ATOM     14  C   UNL     1       0.914   3.383 -24.071  0.00  0.00    +0.153 C 
BRANCH  14  15
ATOM     15  C   UNL     1       2.113   3.878 -23.697  0.00  0.00    -0.032 A 
ATOM     16  C   UNL     1       3.207   3.097 -23.695  0.00  0.00    +0.004 A 
ATOM     17  C   UNL     1       4.398   3.597 -23.320  0.00  0.00    +0.000 A 
ATOM     18  C   UNL     1       4.495   4.890 -22.944  0.00  0.00    +0.000 A 
ATOM     19  C   UNL     1       3.401   5.671 -22.946  0.00  0.00    +0.000 A 
ATOM     20  C   UNL     1       2.211   5.171 -23.320  0.00  0.00    +0.004 A 
ENDBRANCH  14  15
BRANCH  14  21
ATOM     21  C   UNL     1       0.558   3.426 -25.369  0.00  0.00    +0.175 C 
BRANCH  21  22
ATOM     22  O   UNL     1       1.165   2.619 -26.261  0.00  0.00    -0.394 OA
ATOM     23  H   UNL     1       2.066   2.423 -25.959  0.00  0.00    +0.209 HD
ENDBRANCH  21  22
ENDBRANCH  14  21
ENDBRANCH   1  14
TORSDOF 6
ENDMDL
