MODEL 1
REMARK VINA RESULT:   -10.214      0.000      0.000
REMARK INTER + INTRA:         -11.362
REMARK INTER:                 -11.255
REMARK INTRA:                  -0.107
REMARK UNBOUND:                 0.046
REMARK  Name = COc1ccc2c(c1O)[C@@]13CCN(C)[C@@H](C2)[C@H]1C(Br)=CC=C3C              ZINC000253504286
REMARK  5 active torsions:
REMARK  status: ('A' for Active; 'I' for Inactive)
REMARK    1  A    between atoms: C_1  and  O_2
REMARK    2  A    between atoms: O_2  and  C_3
REMARK    3  A    between atoms: C_8  and  O_9
REMARK    4  A    between atoms: N_13  and  C_14
REMARK    5  A    between atoms: C_22  and  C_23
REMARK                            x       y       z     vdW  Elec       q    Type
REMARK                         _______ _______ _______ _____ _____    ______ ____
ROOT
ATOM      1  C   UNL     1      -4.894   3.468 -22.932  0.00  0.00    +0.162 A 
ATOM      2  C   UNL     1      -5.187   3.799 -24.122  0.00  0.00    +0.049 A 
ATOM      3  C   UNL     1      -4.261   3.807 -24.994  0.00  0.00    +0.008 A 
ATOM      4  C   UNL     1      -2.888   3.434 -24.594  0.00  0.00    -0.034 A 
ATOM      5  C   UNL     1      -2.723   3.168 -23.570  0.00  0.00    +0.012 A 
ATOM      6  C   UNL     1      -1.927   2.898 -23.104  0.00  0.00    +0.038 C 
ATOM      7  C   UNL     1      -3.432   3.352 -23.741  0.00  0.00    +0.067 C 
ATOM      8  C   UNL     1      -3.535   3.699 -25.175  0.00  0.00    +0.132 C 
ATOM      9  N   UNL     1      -2.572   3.655 -25.853  0.00  0.00    +0.236 N 
ATOM     10  H   UNL     1      -1.609   3.529 -26.166  0.00  0.00    +0.203 HD
ATOM     11  C   UNL     1      -1.144   3.232 -25.280  0.00  0.00    +0.078 C 
ATOM     12  C   UNL     1      -3.310   4.042 -26.889  0.00  0.00    +0.190 C 
ATOM     13  C   UNL     1      -1.718   2.581 -21.895  0.00  0.00    -0.061 C 
ATOM     14  C   UNL     1      -2.630   2.573 -21.037  0.00  0.00    +0.040 C 
ATOM     15  C   UNL     1      -0.517   2.247 -21.511  0.00  0.00    +0.001 C 
ATOM     16  C   UNL     1       0.490   2.235 -22.367  0.00  0.00    +0.011 C 
ATOM     17  C   UNL     1       0.321   2.554 -23.619  0.00  0.00    +0.005 C 
ATOM     18 BR   UNL     1       1.311   2.538 -24.445  0.00  0.00    -0.054 Br
ATOM     19  C   UNL     1      -0.829   2.883 -24.029  0.00  0.00    +0.090 C 
ATOM     20  C   UNL     1      -1.967   3.444 -25.469  0.00  0.00    +0.090 C 
ATOM     21  C   UNL     1      -3.671   3.151 -22.641  0.00  0.00    +0.163 A 
ENDROOT
BRANCH   1  23
ATOM     22  C   UNL     1      -6.752   2.642 -21.704  0.00  0.00    +0.277 C 
ATOM     23  O   UNL     1      -5.733   3.392 -21.835  0.00  0.00    -0.491 OA
ENDBRANCH   1  23
BRANCH  21  24
ATOM     24  O   UNL     1      -3.404   2.823 -21.438  0.00  0.00    -0.503 OA
ATOM     25  H   UNL     1      -2.544   2.966 -21.093  0.00  0.00    +0.292 HD
ENDBRANCH  21  24
TORSDOF 2
ENDMDL
