MODEL 1
REMARK VINA RESULT:    -7.162      0.000      0.000
REMARK INTER + INTRA:          -7.322
REMARK INTER:                  -7.379
REMARK INTRA:                   0.057
REMARK UNBOUND:                 0.050
REMARK  Name = ZINC000002569741
REMARK  2 active torsions:
REMARK  status: ('A' for Active; 'I' for Inactive)
REMARK    1  A    between atoms: C_1  and  N_2
REMARK    2  A    between atoms: C_6  and  C_7
REMARK                            x       y       z     vdW  Elec       q    Type
REMARK                         _______ _______ _______ _____ _____    ______ ____
ROOT
ATOM      1  C   UNL     1      -4.766   3.213 -22.350  0.00  0.00    +0.191 C 
ATOM      2  N   UNL     1      -4.482   3.364 -22.773  0.00  0.00    +0.241 N 
ATOM      3  H   UNL     1      -3.946   3.657 -23.589  0.00  0.00    +0.204 HD
ATOM      4  C   UNL     1      -5.184   3.686 -23.316  0.00  0.00    +0.069 C 
ATOM      5  C   UNL     1      -4.675   4.145 -24.503  0.00  0.00    +0.082 C 
ATOM      6  C   UNL     1      -3.231   3.998 -24.563  0.00  0.00    -0.011 C 
ATOM      7  C   UNL     1      -2.669   3.405 -23.363  0.00  0.00    +0.019 C 
ATOM      8  C   UNL     1      -5.930   3.270 -22.163  0.00  0.00    +0.060 C 
ATOM      9  C   UNL     1      -4.469   2.731 -21.333  0.00  0.00    +0.065 C 
ATOM     10  C   UNL     1      -3.636   3.114 -22.435  0.00  0.00    +0.097 C 
ENDROOT
BRANCH   7  11
ATOM     11  C   UNL     1      -1.272   3.202 -23.282  0.00  0.00    +0.073 C 
ATOM     12  O   UNL     1      -0.471   4.275 -22.842  0.00  0.00    -0.545 OA
ATOM     13  O   UNL     1      -0.681   2.002 -23.617  0.00  0.00    -0.545 OA
ENDBRANCH   7  11
TORSDOF 1
ENDMDL
