MODEL 1
REMARK VINA RESULT:   -10.332      0.000      0.000
REMARK INTER + INTRA:         -10.332
REMARK INTER:                 -10.332
REMARK INTRA:                   0.000
REMARK UNBOUND:                 0.000
REMARK  Name = C[C@@H]1CC[C@@H]2[C@@H](C)C(=O)O[C@H]3O[C@]4(C)CC[C@@H]1[C@]32OO4    ZINC000100858734
REMARK  3 active torsions:
REMARK  status: ('A' for Active; 'I' for Inactive)
REMARK    1  A    between atoms: C_1  and  C_2
REMARK    2  A    between atoms: C_6  and  C_7
REMARK    3  A    between atoms: C_13  and  C_14
REMARK                            x       y       z     vdW  Elec       q    Type
REMARK                         _______ _______ _______ _____ _____    ______ ____
ROOT
ATOM      1  C   UNL     1      -5.730   3.385 -22.123  0.00  0.00    +0.008 C 
ATOM      2  C   UNL     1      -4.464   3.048 -22.107  0.00  0.00    -0.008 C 
ATOM      3  C   UNL     1      -3.895   2.694 -20.982  0.00  0.00    +0.004 C 
ATOM      4  C   UNL     1      -2.614   2.352 -20.966  0.00  0.00    +0.008 C 
ATOM      5  C   UNL     1      -1.917   2.370 -22.075  0.00  0.00    +0.044 C 
ATOM      6  C   UNL     1      -0.651   2.033 -22.059  0.00  0.00    +0.101 C 
ATOM      7  C   UNL     1       0.060   2.046 -23.168  0.00  0.00    +0.313 C 
ATOM      8  O   UNL     1      -0.524   2.407 -24.309  0.00  0.00    -0.432 OA
ATOM      9  C   UNL     1      -1.789   2.744 -24.325  0.00  0.00    +0.349 C 
ATOM     10  O   UNL     1      -2.058   3.042 -25.572  0.00  0.00    -0.305 OA
ATOM     11  C   UNL     1      -3.218   3.440 -26.075  0.00  0.00    +0.204 C 
ATOM     12  C   UNL     1      -4.351   3.624 -25.443  0.00  0.00    +0.068 C 
ATOM     13  C   UNL     1      -4.611   3.459 -24.156  0.00  0.00    +0.012 C 
ATOM     14  C   UNL     1      -3.234   3.680 -27.379  0.00  0.00    +0.077 C 
ATOM     15  O   UNL     1      -3.682   3.366 -24.994  0.00  0.00    -0.199 OA
ATOM     16  O   UNL     1      -3.406   3.089 -23.873  0.00  0.00    -0.218 OA
ATOM     17  O   UNL     1       1.333   1.706 -23.148  0.00  0.00    -0.250 OA
ATOM     18  C   UNL     1      -0.089   1.679 -20.930  0.00  0.00    +0.019 C 
ATOM     19  C   UNL     1      -2.486   2.724 -23.200  0.00  0.00    +0.173 C 
ATOM     20  C   UNL     1      -3.768   3.066 -23.216  0.00  0.00    +0.034 C 
ENDROOT
TORSDOF 0
ENDMDL
