MODEL 1
REMARK VINA RESULT:    -9.790      0.000      0.000
REMARK INTER + INTRA:         -12.100
REMARK INTER:                 -11.517
REMARK INTRA:                  -0.582
REMARK UNBOUND:                -0.593
REMARK  Name = ZINC000000899902
REMARK  6 active torsions:
REMARK  status: ('A' for Active; 'I' for Inactive)
REMARK    1  A    between atoms: C_1  and  C_2
REMARK    2  A    between atoms: C_2  and  C_3
REMARK    3  A    between atoms: C_4  and  C_5
REMARK    4  A    between atoms: C_5  and  C_6
REMARK    5  A    between atoms: C_11  and  O_12
REMARK    6  A    between atoms: C_20  and  O_21
REMARK                            x       y       z     vdW  Elec       q    Type
REMARK                         _______ _______ _______ _____ _____    ______ ____
ROOT
ATOM      1  C   UNL     1      -1.383   3.290 -23.092  0.00  0.00    -0.001 A 
ATOM      2  C   UNL     1      -0.097   3.413 -23.238  0.00  0.00    +0.022 A 
ATOM      3  C   UNL     1       0.709   2.703 -22.505  0.00  0.00    +0.061 A 
ATOM      4  C   UNL     1       0.228   1.872 -21.627  0.00  0.00    +0.146 A 
ATOM      5  O   UNL     1       1.035   1.162 -20.893  0.00  0.00    -0.421 OA
ATOM      6  C   UNL     1       2.321   1.285 -21.040  0.00  0.00    +0.349 A 
ATOM      7  C   UNL     1       2.800   2.114 -21.916  0.00  0.00    +0.113 A 
ATOM      8  C   UNL     1       4.021   2.417 -22.251  0.00  0.00    +0.035 A 
ATOM      9  C   UNL     1       5.171   1.992 -21.821  0.00  0.00    +0.016 A 
ATOM     10  C   UNL     1       6.269   2.465 -22.331  0.00  0.00    +0.046 A 
ATOM     11  C   UNL     1       6.218   3.362 -23.271  0.00  0.00    +0.120 A 
ATOM     12  C   UNL     1       5.066   3.786 -23.700  0.00  0.00    +0.092 A 
ATOM     13  C   UNL     1       3.967   3.314 -23.190  0.00  0.00    +0.140 A 
ATOM     14  O   UNL     1       2.717   3.566 -23.437  0.00  0.00    -0.454 OA
ATOM     15  O   UNL     1       3.126   0.575 -20.306  0.00  0.00    -0.244 OA
ATOM     16  C   UNL     1      -1.058   1.751 -21.482  0.00  0.00    +0.092 A 
ATOM     17  C   UNL     1       1.997   2.825 -22.650  0.00  0.00    +0.154 A 
ATOM     18  C   UNL     1      -1.865   2.462 -22.217  0.00  0.00    +0.124 A 
ENDROOT
BRANCH  11  19
ATOM     19  O   UNL     1       7.315   3.833 -23.781  0.00  0.00    -0.507 OA
ATOM     20  H   UNL     1       7.585   3.566 -24.637  0.00  0.00    +0.292 HD
ENDBRANCH  11  19
BRANCH  18  21
ATOM     21  O   UNL     1      -3.150   2.340 -22.071  0.00  0.00    -0.506 OA
ATOM     22  H   UNL     1      -3.561   1.511 -22.221  0.00  0.00    +0.292 HD
ENDBRANCH  18  21
BRANCH   1  23
ATOM     23  C   UNL     1      -2.189   4.000 -23.826  0.00  0.00    +0.066 C 
BRANCH  23  26
ATOM     24  C   UNL     1      -3.479   3.510 -26.976  0.00  0.00    +0.038 C 
ATOM     25  C   UNL     1      -3.413   3.719 -25.696  0.00  0.00    -0.079 C 
ATOM     26  C   UNL     1      -2.256   3.791 -25.108  0.00  0.00    -0.023 C 
ATOM     27  C   UNL     1      -4.503   3.858 -25.002  0.00  0.00    +0.038 C 
ENDBRANCH  23  26
ENDBRANCH   1  23
TORSDOF 4
ENDMDL
