MODEL 1
REMARK VINA RESULT:    -9.631      0.000      0.000
REMARK INTER + INTRA:         -11.211
REMARK INTER:                 -10.757
REMARK INTRA:                  -0.454
REMARK UNBOUND:                -0.455
REMARK  Name = ZINC000000057657
REMARK  3 active torsions:
REMARK  status: ('A' for Active; 'I' for Inactive)
REMARK    1  A    between atoms: C_4  and  C_5
REMARK    2  A    between atoms: C_13  and  O_14
REMARK    3  A    between atoms: C_15  and  O_16
REMARK                            x       y       z     vdW  Elec       q    Type
REMARK                         _______ _______ _______ _____ _____    ______ ____
ROOT
ATOM      1  O   UNL     1       0.427   1.448 -20.401  0.00  0.00    -0.287 OA
ATOM      2  C   UNL     1      -0.178   1.881 -21.467  0.00  0.00    +0.193 A 
ATOM      3  C   UNL     1      -1.450   2.152 -21.427  0.00  0.00    +0.098 A 
ATOM      4  C   UNL     1      -2.056   2.585 -22.494  0.00  0.00    +0.139 A 
ATOM      5  O   UNL     1      -1.389   2.747 -23.598  0.00  0.00    -0.451 OA
ATOM      6  C   UNL     1      -0.119   2.476 -23.638  0.00  0.00    +0.184 A 
ATOM      7  C   UNL     1       0.546   2.639 -24.743  0.00  0.00    +0.202 A 
ATOM      8  C   UNL     1       1.817   2.368 -24.782  0.00  0.00    +0.162 A 
ATOM      9  C   UNL     1       2.423   1.935 -23.717  0.00  0.00    +0.050 A 
ATOM     10  C   UNL     1       1.757   1.773 -22.611  0.00  0.00    +0.019 A 
ATOM     11  C   UNL     1       0.487   2.043 -22.572  0.00  0.00    +0.068 A 
ENDROOT
BRANCH   4  12
ATOM     12  C   UNL     1      -3.326   2.856 -22.455  0.00  0.00    +0.017 A 
ATOM     13  C   UNL     1      -4.037   2.488 -21.431  0.00  0.00    +0.011 A 
ATOM     14  C   UNL     1      -5.309   2.758 -21.391  0.00  0.00    +0.001 A 
ATOM     15  C   UNL     1      -5.868   3.397 -22.376  0.00  0.00    +0.000 A 
ATOM     16  C   UNL     1      -5.156   3.765 -23.400  0.00  0.00    +0.001 A 
ATOM     17  C   UNL     1      -3.886   3.494 -23.439  0.00  0.00    +0.011 A 
ENDBRANCH   4  12
BRANCH   8  18
ATOM     18  O   UNL     1       2.482   2.530 -25.887  0.00  0.00    -0.503 OA
ATOM     19  H   UNL     1       2.228   2.065 -26.660  0.00  0.00    +0.292 HD
ENDBRANCH   8  18
BRANCH   7  20
ATOM     20  O   UNL     1      -0.060   3.072 -25.808  0.00  0.00    -0.501 OA
ATOM     21  H   UNL     1      -0.763   3.686 -25.731  0.00  0.00    +0.292 HD
ENDBRANCH   7  20
TORSDOF 3
ENDMDL
