MODEL 1
REMARK VINA RESULT:   -10.010      0.000      0.000
REMARK INTER + INTRA:          -9.050
REMARK INTER:                 -10.878
REMARK INTRA:                   1.828
REMARK UNBOUND:                 1.838
REMARK  Name = C[C@@H]1CC[C@H](O)[C@]2(CO)CC[C@@H]3[C@@H]([C@H]12)C3(C)C            ZINC000225364252
REMARK  6 active torsions:
REMARK  status: ('A' for Active; 'I' for Inactive)
REMARK    1  A    between atoms: C_1  and  C_2
REMARK    2  A    between atoms: C_5  and  O_6
REMARK    3  A    between atoms: C_7  and  C_8
REMARK    4  A    between atoms: C_8  and  O_9
REMARK    5  A    between atoms: C_15  and  C_16
REMARK    6  A    between atoms: C_15  and  C_17
REMARK                            x       y       z     vdW  Elec       q    Type
REMARK                         _______ _______ _______ _____ _____    ______ ____
ROOT
ATOM      1  C   UNL     1      -3.707   2.499 -21.007  0.00  0.00    +0.008 C 
ATOM      2  C   UNL     1      -3.985   3.002 -22.173  0.00  0.00    -0.010 C 
ATOM      3  C   UNL     1      -5.200   3.374 -22.447  0.00  0.00    +0.006 C 
ATOM      4  C   UNL     1      -5.478   3.877 -23.614  0.00  0.00    +0.032 C 
ATOM      5  C   UNL     1      -4.541   4.008 -24.505  0.00  0.00    +0.123 C 
ATOM      6  C   UNL     1      -3.326   3.636 -24.231  0.00  0.00    +0.023 C 
ATOM      7  C   UNL     1      -2.388   3.767 -25.122  0.00  0.00    +0.012 C 
ATOM      8  C   UNL     1      -1.173   3.396 -24.848  0.00  0.00    +0.005 C 
ATOM      9  C   UNL     1      -0.895   2.893 -23.682  0.00  0.00    -0.001 C 
ATOM     10  C   UNL     1      -1.832   2.762 -22.790  0.00  0.00    +0.003 C 
ATOM     11  C   UNL     1      -0.617   2.390 -22.515  0.00  0.00    -0.028 C 
ATOM     12  C   UNL     1       0.655   2.166 -22.664  0.00  0.00    +0.011 C 
ATOM     13  C   UNL     1      -0.781   1.965 -21.298  0.00  0.00    +0.011 C 
ATOM     14  C   UNL     1      -3.048   3.133 -23.064  0.00  0.00    +0.007 C 
ENDROOT
BRANCH   5  15
ATOM     15  O   UNL     1      -4.819   4.511 -25.672  0.00  0.00    -0.391 OA
ATOM     16  H   UNL     1      -4.692   5.472 -25.647  0.00  0.00    +0.210 HD
ENDBRANCH   5  15
BRANCH   6  17
ATOM     17  C   UNL     1      -3.604   4.139 -25.397  0.00  0.00    +0.165 C 
BRANCH  17  18
ATOM     18  O   UNL     1      -4.078   5.346 -25.488  0.00  0.00    -0.394 OA
ATOM     19  H   UNL     1      -4.692   5.509 -24.754  0.00  0.00    +0.209 HD
ENDBRANCH  17  18
ENDBRANCH   6  17
TORSDOF 3
ENDMDL
