MODEL 1
REMARK VINA RESULT:    -6.040      0.000      0.000
REMARK INTER + INTRA:          -7.492
REMARK INTER:                  -7.551
REMARK INTRA:                   0.059
REMARK UNBOUND:                -0.040
REMARK  Name = ZINC000006731959
REMARK  5 active torsions:
REMARK  status: ('A' for Active; 'I' for Inactive)
REMARK    1  A    between atoms: N_1  and  CA_2
REMARK    2  A    between atoms: CA_2  and  C_3
REMARK    3  A    between atoms: CA_2  and  CB_5
REMARK    4  A    between atoms: C_3  and  O_4
REMARK    5  A    between atoms: CB_5  and  CG_6
REMARK                            x       y       z     vdW  Elec       q    Type
REMARK                         _______ _______ _______ _____ _____    ______ ____
ROOT
ATOM      1  CA  PHE A   1      -3.695   3.579 -25.874  0.00  0.00    +0.091 C 
ENDROOT
BRANCH   1   2
ATOM      2  N   PHE A   1      -4.816   3.040 -26.255  0.00  0.00    +0.223 N 
ATOM      3  H1  PHE A   1      -5.320   3.692 -26.856  0.00  0.00    +0.200 HD
ATOM      4  H2  PHE A   1      -4.623   2.182 -26.770  0.00  0.00    +0.200 HD
ATOM      5  H3  PHE A   1      -5.385   2.824 -25.436  0.00  0.00    +0.200 HD
ENDBRANCH   1   2
BRANCH   1   6
ATOM      6  CB  PHE A   1      -3.649   4.274 -24.777  0.00  0.00    +0.091 C 
BRANCH   6   7
ATOM      7  CG  PHE A   1      -3.984   3.728 -23.646  0.00  0.00    -0.042 A 
ATOM      8  CD2 PHE A   1      -3.083   3.142 -22.915  0.00  0.00    +0.004 A 
ATOM      9  CE2 PHE A   1      -3.417   2.596 -21.784  0.00  0.00    +0.000 A 
ATOM     10  CZ  PHE A   1      -4.654   2.635 -21.384  0.00  0.00    +0.000 A 
ATOM     11  CE1 PHE A   1      -5.555   3.221 -22.115  0.00  0.00    +0.000 A 
ATOM     12  CD1 PHE A   1      -5.221   3.767 -23.246  0.00  0.00    +0.004 A 
ENDBRANCH   6   7
ENDBRANCH   1   6
BRANCH   1  13
ATOM     13  C   PHE A   1      -2.622   3.422 -26.589  0.00  0.00    +0.210 C 
BRANCH  13  14
ATOM     14  O   PHE A   1      -1.456   3.396 -26.015  0.00  0.00    -0.389 OA
ATOM     15  H   PHE A   1      -1.261   4.268 -25.640  0.00  0.00    +0.210 HD
ENDBRANCH  13  14
ENDBRANCH   1  13
TORSDOF 5
ENDMDL
