MODEL 1
REMARK VINA RESULT:    -9.654      0.000      0.000
REMARK INTER + INTRA:          -4.947
REMARK INTER:                 -12.313
REMARK INTRA:                   7.365
REMARK UNBOUND:                 8.375
REMARK  Name = CCCC[C@H](O)[C@]12Oc3c(OC)ccc4c3[C@]13CCN(C)[C@H](C4)C3=CC=C2OC      ZINC000100393885
REMARK  11 active torsions:
REMARK  status: ('A' for Active; 'I' for Inactive)
REMARK    1  A    between atoms: C_1  and  C_2
REMARK    2  A    between atoms: C_2  and  C_3
REMARK    3  A    between atoms: C_3  and  C_4
REMARK    4  A    between atoms: C_4  and  C_5
REMARK    5  A    between atoms: C_5  and  O_6
REMARK    6  A    between atoms: C_5  and  C_7
REMARK    7  A    between atoms: C_10  and  O_11
REMARK    8  A    between atoms: O_11  and  C_12
REMARK    9  A    between atoms: N_20  and  C_21
REMARK   10  A    between atoms: C_27  and  O_28
REMARK   11  A    between atoms: O_28  and  C_29
REMARK                            x       y       z     vdW  Elec       q    Type
REMARK                         _______ _______ _______ _____ _____    ______ ____
ROOT
ATOM      1  C   UNL     1      -1.526   3.207 -23.776  0.00  0.00    +0.206 C 
ATOM      2  O   UNL     1      -1.868   3.079 -22.309  0.00  0.00    -0.470 OA
ATOM      3  C   UNL     1      -3.337   3.151 -22.023  0.00  0.00    +0.168 A 
ATOM      4  C   UNL     1      -4.248   3.123 -21.142  0.00  0.00    +0.162 A 
ATOM      5  C   UNL     1      -5.460   3.243 -21.485  0.00  0.00    +0.050 A 
ATOM      6  C   UNL     1      -5.759   3.390 -22.693  0.00  0.00    +0.008 A 
ATOM      7  C   UNL     1      -4.862   3.418 -23.563  0.00  0.00    -0.034 A 
ATOM      8  C   UNL     1      -5.163   3.566 -24.790  0.00  0.00    +0.094 C 
ATOM      9  C   UNL     1      -4.267   3.595 -25.662  0.00  0.00    +0.096 C 
ATOM     10  C   UNL     1      -3.057   3.474 -25.315  0.00  0.00    -0.007 C 
ATOM     11  C   UNL     1      -2.149   3.503 -26.194  0.00  0.00    +0.009 C 
ATOM     12  C   UNL     1      -0.947   3.385 -25.866  0.00  0.00    +0.045 C 
ATOM     13  N   UNL     1      -3.322   3.640 -26.724  0.00  0.00    +0.239 N 
ATOM     14  H   UNL     1      -3.627   3.761 -27.690  0.00  0.00    +0.204 HD
ATOM     15  C   UNL     1      -3.684   3.789 -27.914  0.00  0.00    +0.191 C 
ATOM     16  C   UNL     1      -1.960   3.509 -26.380  0.00  0.00    +0.133 C 
ATOM     17  C   UNL     1      -1.652   3.345 -25.013  0.00  0.00    +0.071 C 
ATOM     18  C   UNL     1      -3.651   3.300 -23.241  0.00  0.00    +0.016 A 
ATOM     19  C   UNL     1      -0.630   3.236 -24.653  0.00  0.00    +0.144 C 
ATOM     20  C   UNL     1      -2.751   3.328 -24.109  0.00  0.00    +0.080 C 
ENDROOT
BRANCH   4  21
ATOM     21  O   UNL     1      -3.948   2.976 -19.934  0.00  0.00    -0.491 OA
ATOM     22  C   UNL     1      -3.095   3.721 -19.405  0.00  0.00    +0.277 C 
ENDBRANCH   4  21
BRANCH  19  23
ATOM     23  O   UNL     1       0.713   3.129 -24.518  0.00  0.00    -0.495 OA
ATOM     24  C   UNL     1       1.444   2.863 -25.546  0.00  0.00    +0.276 C 
ENDBRANCH  19  23
BRANCH   1  25
ATOM     25  C   UNL     1      -0.374   3.054 -23.077  0.00  0.00    +0.167 C 
BRANCH  25  26
ATOM     26  O   UNL     1       0.300   4.058 -22.769  0.00  0.00    -0.387 OA
ATOM     27  H   UNL     1      -0.202   4.861 -22.980  0.00  0.00    +0.210 HD
ENDBRANCH  25  26
BRANCH  25  28
ATOM     28  C   UNL     1       0.042   1.915 -22.725  0.00  0.00    +0.036 C 
BRANCH  28  29
ATOM     29  C   UNL     1       0.765   1.743 -21.705  0.00  0.00    +0.002 C 
BRANCH  29  31
ATOM     30  C   UNL     1       2.966   1.886 -21.816  0.00  0.00    +0.004 C 
ATOM     31  C   UNL     1       1.914   1.202 -21.859  0.00  0.00    -0.003 C 
ENDBRANCH  29  31
ENDBRANCH  28  29
ENDBRANCH  25  28
ENDBRANCH   1  25
TORSDOF 7
ENDMDL
