MODEL 1
REMARK VINA RESULT:    -8.839      0.000      0.000
REMARK INTER + INTRA:         -11.277
REMARK INTER:                 -11.161
REMARK INTRA:                  -0.116
REMARK UNBOUND:                -0.113
REMARK  Name = ZINC000004046820
REMARK  8 active torsions:
REMARK  status: ('A' for Active; 'I' for Inactive)
REMARK    1  A    between atoms: C_1  and  O_2
REMARK    2  A    between atoms: O_2  and  C_3
REMARK    3  A    between atoms: C_4  and  O_5
REMARK    4  A    between atoms: C_9  and  O_10
REMARK    5  A    between atoms: C_13  and  C_14
REMARK    6  A    between atoms: C_14  and  O_15
REMARK    7  A    between atoms: C_16  and  O_17
REMARK    8  A    between atoms: C_18  and  O_19
REMARK                            x       y       z     vdW  Elec       q    Type
REMARK                         _______ _______ _______ _____ _____    ______ ____
ROOT
ATOM      1  C   UNL     1      -2.742   3.749 -25.171  0.00  0.00    +0.203 A 
ATOM      2  C   UNL     1      -3.679   3.910 -24.285  0.00  0.00    +0.163 A 
ATOM      3  C   UNL     1      -3.470   3.569 -23.049  0.00  0.00    +0.064 A 
ATOM      4  C   UNL     1      -2.324   3.066 -22.698  0.00  0.00    +0.072 A 
ATOM      5  C   UNL     1      -1.386   2.905 -23.584  0.00  0.00    +0.044 A 
ATOM      6  C   UNL     1      -0.240   2.402 -23.233  0.00  0.00    +0.196 C 
ATOM      7  O   UNL     1       0.697   2.241 -24.119  0.00  0.00    -0.360 OA
ATOM      8  C   UNL     1       1.844   1.738 -23.769  0.00  0.00    +0.175 C 
ATOM      9  C   UNL     1       2.053   1.396 -22.533  0.00  0.00    +0.178 C 
ATOM     10  C   UNL     1       1.116   1.557 -21.647  0.00  0.00    +0.189 C 
ATOM     11  C   UNL     1      -0.031   2.060 -21.997  0.00  0.00    +0.241 C 
ATOM     12  O   UNL     1      -0.969   2.221 -21.110  0.00  0.00    -0.452 OA
ATOM     13  C   UNL     1      -2.115   2.724 -21.461  0.00  0.00    +0.340 C 
ATOM     14  O   UNL     1      -3.052   2.885 -20.575  0.00  0.00    -0.245 OA
ATOM     15  C   UNL     1      -1.596   3.246 -24.820  0.00  0.00    +0.169 A 
ENDROOT
BRANCH   1  17
ATOM     16  C   UNL     1      -3.543   3.265 -27.219  0.00  0.00    +0.277 C 
ATOM     17  O   UNL     1      -2.951   4.091 -26.408  0.00  0.00    -0.489 OA
ENDBRANCH   1  17
BRANCH  10  18
ATOM     18  O   UNL     1       1.324   1.216 -20.409  0.00  0.00    -0.385 OA
ATOM     19  H   UNL     1       2.237   1.435 -20.163  0.00  0.00    +0.210 HD
ENDBRANCH  10  18
BRANCH   9  20
ATOM     20  O   UNL     1       3.199   0.893 -22.182  0.00  0.00    -0.386 OA
ATOM     21  H   UNL     1       3.067  -0.001 -21.832  0.00  0.00    +0.210 HD
ENDBRANCH   9  20
BRANCH  15  22
ATOM     22  O   UNL     1      -0.658   3.085 -25.707  0.00  0.00    -0.503 OA
ATOM     23  H   UNL     1       0.241   3.067 -25.441  0.00  0.00    +0.292 HD
ENDBRANCH  15  22
BRANCH   2  24
ATOM     24  O   UNL     1      -4.826   4.413 -24.635  0.00  0.00    -0.503 OA
ATOM     25  H   UNL     1      -4.860   5.240 -25.075  0.00  0.00    +0.292 HD
ENDBRANCH   2  24
BRANCH   8  26
ATOM     26  C   UNL     1       2.781   1.577 -24.655  0.00  0.00    +0.190 C 
BRANCH  26  27
ATOM     27  O   UNL     1       3.055   0.387 -25.103  0.00  0.00    -0.392 OA
ATOM     28  H   UNL     1       4.004   0.322 -25.289  0.00  0.00    +0.210 HD
ENDBRANCH  26  27
ENDBRANCH   8  26
TORSDOF 7
ENDMDL
