MODEL 1
REMARK VINA RESULT:   -10.830      0.000      0.000
REMARK INTER + INTRA:         -11.580
REMARK INTER:                 -11.481
REMARK INTRA:                  -0.099
REMARK UNBOUND:                -0.117
REMARK  Name = COc1ccc2c(c1)[C@@]13CCN(C)[C@@H](C2)[C@H]1[C@@H](C)CC(=O)C3          ZINC000253504370
REMARK  4 active torsions:
REMARK  status: ('A' for Active; 'I' for Inactive)
REMARK    1  A    between atoms: C_1  and  O_2
REMARK    2  A    between atoms: O_2  and  C_3
REMARK    3  A    between atoms: N_12  and  C_13
REMARK    4  A    between atoms: C_17  and  C_18
REMARK                            x       y       z     vdW  Elec       q    Type
REMARK                         _______ _______ _______ _____ _____    ______ ____
ROOT
ATOM      1  C   UNL     1       0.128   3.871 -23.935  0.00  0.00    +0.120 A 
ATOM      2  C   UNL     1      -0.110   3.804 -25.179  0.00  0.00    +0.046 A 
ATOM      3  C   UNL     1      -1.309   3.670 -25.563  0.00  0.00    +0.008 A 
ATOM      4  C   UNL     1      -2.381   3.598 -24.560  0.00  0.00    -0.038 A 
ATOM      5  C   UNL     1      -2.108   3.661 -23.537  0.00  0.00    -0.033 A 
ATOM      6  C   UNL     1      -2.633   3.636 -22.744  0.00  0.00    +0.016 C 
ATOM      7  C   UNL     1      -1.540   3.701 -24.025  0.00  0.00    +0.063 C 
ATOM      8  C   UNL     1      -2.044   3.602 -25.406  0.00  0.00    +0.132 C 
ATOM      9  N   UNL     1      -3.199   3.480 -25.590  0.00  0.00    +0.236 N 
ATOM     10  H   UNL     1      -4.199   3.386 -25.409  0.00  0.00    +0.203 HD
ATOM     11  C   UNL     1      -4.242   3.417 -24.398  0.00  0.00    +0.073 C 
ATOM     12  C   UNL     1      -3.018   3.450 -26.979  0.00  0.00    +0.190 C 
ATOM     13  C   UNL     1      -2.317   3.710 -21.528  0.00  0.00    +0.086 C 
ATOM     14  C   UNL     1      -3.237   3.649 -20.616  0.00  0.00    +0.134 C 
ATOM     15  O   UNL     1      -2.910   3.725 -19.376  0.00  0.00    -0.297 OA
ATOM     16  C   UNL     1      -4.505   3.511 -20.943  0.00  0.00    +0.078 C 
ATOM     17  C   UNL     1      -4.876   3.430 -22.183  0.00  0.00    +0.002 C 
ATOM     18  C   UNL     1      -6.119   3.295 -22.485  0.00  0.00    +0.008 C 
ATOM     19  C   UNL     1      -4.009   3.485 -23.097  0.00  0.00    +0.052 C 
ATOM     20  C   UNL     1      -3.581   3.464 -24.953  0.00  0.00    +0.090 C 
ATOM     21  C   UNL     1      -0.859   3.801 -23.104  0.00  0.00    +0.050 A 
ENDROOT
BRANCH   1  23
ATOM     22  C   UNL     1       2.270   4.829 -23.318  0.00  0.00    +0.277 C 
ATOM     23  O   UNL     1       1.312   4.015 -23.212  0.00  0.00    -0.495 OA
ENDBRANCH   1  23
TORSDOF 1
ENDMDL
