MODEL 1
REMARK VINA RESULT:   -11.434      0.000      0.000
REMARK INTER + INTRA:         -12.122
REMARK INTER:                 -11.970
REMARK INTRA:                  -0.152
REMARK UNBOUND:                -0.020
REMARK  Name = COc1ccc2c3c1O[C@@]1(C)C(=O)C=C[C@@]4(Br)[C@@H](C2)N(C)CC[C@@]341     ZINC000253505042
REMARK  4 active torsions:
REMARK  status: ('A' for Active; 'I' for Inactive)
REMARK    1  A    between atoms: C_1  and  O_2
REMARK    2  A    between atoms: O_2  and  C_3
REMARK    3  A    between atoms: C_10  and  C_11
REMARK    4  A    between atoms: N_20  and  C_21
REMARK                            x       y       z     vdW  Elec       q    Type
REMARK                         _______ _______ _______ _____ _____    ______ ____
ROOT
ATOM      1  C   UNL     1       0.447   2.185 -23.240  0.00  0.00    +0.162 A 
ATOM      2  C   UNL     1       0.384   1.835 -22.025  0.00  0.00    +0.050 A 
ATOM      3  C   UNL     1      -0.698   1.903 -21.398  0.00  0.00    +0.008 A 
ATOM      4  C   UNL     1      -1.728   2.319 -21.976  0.00  0.00    -0.034 A 
ATOM      5  C   UNL     1      -1.690   2.674 -23.189  0.00  0.00    +0.014 A 
ATOM      6  C   UNL     1      -2.721   3.090 -23.763  0.00  0.00    +0.075 C 
ATOM      7  C   UNL     1      -3.828   3.578 -24.520  0.00  0.00    +0.069 C 
ATOM      8  C   UNL     1      -5.062   3.665 -23.839  0.00  0.00    +0.132 C 
ATOM      9  N   UNL     1      -5.094   3.267 -22.488  0.00  0.00    +0.237 N 
ATOM     10  H   UNL     1      -5.966   3.315 -21.961  0.00  0.00    +0.203 HD
ATOM     11  C   UNL     1      -6.149   3.314 -21.814  0.00  0.00    +0.191 C 
ATOM     12  C   UNL     1      -3.868   2.808 -21.921  0.00  0.00    +0.090 C 
ATOM     13  C   UNL     1      -3.800   3.156 -23.136  0.00  0.00    +0.101 C 
ATOM     14 BR   UNL     1      -2.772   2.739 -22.554  0.00  0.00    -0.073 Br
ATOM     15  C   UNL     1      -4.848   3.576 -23.710  0.00  0.00    +0.001 C 
ATOM     16  C   UNL     1      -4.800   3.926 -24.916  0.00  0.00    +0.048 C 
ATOM     17  C   UNL     1      -3.712   3.864 -25.563  0.00  0.00    +0.200 C 
ATOM     18  O   UNL     1      -3.669   4.214 -26.763  0.00  0.00    -0.288 OA
ATOM     19  C   UNL     1      -2.675   3.446 -24.986  0.00  0.00    +0.181 C 
ATOM     20  C   UNL     1      -2.341   3.721 -26.165  0.00  0.00    +0.065 C 
ATOM     21  O   UNL     1      -1.199   3.131 -25.099  0.00  0.00    -0.473 OA
ATOM     22  C   UNL     1      -2.837   2.391 -21.344  0.00  0.00    +0.091 C 
ATOM     23  C   UNL     1      -0.599   2.607 -23.823  0.00  0.00    +0.168 A 
ENDROOT
BRANCH   1  25
ATOM     24  C   UNL     1       2.224   3.146 -24.033  0.00  0.00    +0.277 C 
ATOM     25  O   UNL     1       1.531   2.116 -23.862  0.00  0.00    -0.491 OA
ENDBRANCH   1  25
TORSDOF 1
ENDMDL
