MODEL 1
REMARK VINA RESULT:    -9.453      0.000      0.000
REMARK INTER + INTRA:          -6.872
REMARK INTER:                 -11.657
REMARK INTRA:                   4.784
REMARK UNBOUND:                 5.343
REMARK  Name = CCCC[C@@]12Oc3c(OC)ccc4c3[C@]13CCN(C)[C@H](C4)C3=CC=C2OC             ZINC000100393621
REMARK  9 active torsions:
REMARK  status: ('A' for Active; 'I' for Inactive)
REMARK    1  A    between atoms: C_1  and  C_2
REMARK    2  A    between atoms: C_2  and  C_3
REMARK    3  A    between atoms: C_3  and  C_4
REMARK    4  A    between atoms: C_4  and  C_5
REMARK    5  A    between atoms: C_8  and  O_9
REMARK    6  A    between atoms: O_9  and  C_10
REMARK    7  A    between atoms: N_18  and  C_19
REMARK    8  A    between atoms: C_25  and  O_26
REMARK    9  A    between atoms: O_26  and  C_27
REMARK                            x       y       z     vdW  Elec       q    Type
REMARK                         _______ _______ _______ _____ _____    ______ ____
ROOT
ATOM      1  C   UNL     1      -1.494   3.198 -23.822  0.00  0.00    +0.181 C 
ATOM      2  O   UNL     1      -1.829   3.064 -22.351  0.00  0.00    -0.473 OA
ATOM      3  C   UNL     1      -3.306   3.146 -22.061  0.00  0.00    +0.168 A 
ATOM      4  C   UNL     1      -4.216   3.120 -21.173  0.00  0.00    +0.162 A 
ATOM      5  C   UNL     1      -5.430   3.251 -21.518  0.00  0.00    +0.050 A 
ATOM      6  C   UNL     1      -5.737   3.406 -22.726  0.00  0.00    +0.008 A 
ATOM      7  C   UNL     1      -4.834   3.431 -23.604  0.00  0.00    -0.034 A 
ATOM      8  C   UNL     1      -5.142   3.588 -24.833  0.00  0.00    +0.094 C 
ATOM      9  C   UNL     1      -4.241   3.614 -25.707  0.00  0.00    +0.096 C 
ATOM     10  C   UNL     1      -3.025   3.483 -25.365  0.00  0.00    -0.007 C 
ATOM     11  C   UNL     1      -2.117   3.509 -26.250  0.00  0.00    +0.009 C 
ATOM     12  C   UNL     1      -0.911   3.381 -25.919  0.00  0.00    +0.045 C 
ATOM     13  N   UNL     1      -3.295   3.658 -26.779  0.00  0.00    +0.239 N 
ATOM     14  H   UNL     1      -3.576   3.785 -27.752  0.00  0.00    +0.204 HD
ATOM     15  C   UNL     1      -3.659   3.815 -27.970  0.00  0.00    +0.191 C 
ATOM     16  C   UNL     1      -1.931   3.515 -26.433  0.00  0.00    +0.133 C 
ATOM     17  C   UNL     1      -1.615   3.342 -25.063  0.00  0.00    +0.071 C 
ATOM     18  C   UNL     1      -3.618   3.303 -23.280  0.00  0.00    +0.016 A 
ATOM     19  C   UNL     1      -0.596   3.224 -24.700  0.00  0.00    +0.142 C 
ATOM     20  C   UNL     1      -2.721   3.329 -24.157  0.00  0.00    +0.077 C 
ENDROOT
BRANCH   4  21
ATOM     21  O   UNL     1      -3.914   2.966 -19.964  0.00  0.00    -0.491 OA
ATOM     22  C   UNL     1      -3.084   3.734 -19.420  0.00  0.00    +0.277 C 
ENDBRANCH   4  21
BRANCH  19  23
ATOM     23  O   UNL     1       0.610   3.096 -24.372  0.00  0.00    -0.495 OA
ATOM     24  C   UNL     1       1.503   3.092 -25.254  0.00  0.00    +0.276 C 
ENDBRANCH  19  23
BRANCH   1  25
ATOM     25  C   UNL     1      -0.371   3.047 -23.222  0.00  0.00    +0.057 C 
BRANCH  25  26
ATOM     26  C   UNL     1      -0.283   2.538 -22.056  0.00  0.00    +0.004 C 
BRANCH  26  28
ATOM     27  C   UNL     1       1.550   1.471 -21.547  0.00  0.00    +0.004 C 
ATOM     28  C   UNL     1       0.325   1.456 -21.857  0.00  0.00    -0.003 C 
ENDBRANCH  26  28
ENDBRANCH  25  26
ENDBRANCH   1  25
TORSDOF 5
ENDMDL
