MODEL 1
REMARK VINA RESULT:   -11.270      0.000      0.000
REMARK INTER + INTRA:         -12.032
REMARK INTER:                 -11.926
REMARK INTRA:                  -0.106
REMARK UNBOUND:                -0.104
REMARK  Name = COc1ccc2c3c1OC1=C[C@@H](C)C=C4[C@H](C2)N(C)CC[C@]143                 ZINC000100393882
REMARK  4 active torsions:
REMARK  status: ('A' for Active; 'I' for Inactive)
REMARK    1  A    between atoms: C_1  and  O_2
REMARK    2  A    between atoms: O_2  and  C_3
REMARK    3  A    between atoms: C_12  and  C_13
REMARK    4  A    between atoms: N_18  and  C_19
REMARK                            x       y       z     vdW  Elec       q    Type
REMARK                         _______ _______ _______ _____ _____    ______ ____
ROOT
ATOM      1  C   UNL     1      -4.781   3.631 -22.924  0.00  0.00    +0.162 A 
ATOM      2  C   UNL     1      -4.901   4.064 -24.105  0.00  0.00    +0.050 A 
ATOM      3  C   UNL     1      -3.925   4.060 -24.884  0.00  0.00    +0.008 A 
ATOM      4  C   UNL     1      -2.819   3.623 -24.492  0.00  0.00    -0.034 A 
ATOM      5  C   UNL     1      -2.676   3.188 -23.321  0.00  0.00    +0.020 A 
ATOM      6  C   UNL     1      -1.571   2.754 -22.936  0.00  0.00    +0.088 C 
ATOM      7  C   UNL     1      -0.365   2.236 -22.383  0.00  0.00    +0.075 C 
ATOM      8  C   UNL     1       0.755   2.218 -23.238  0.00  0.00    +0.133 C 
ATOM      9  N   UNL     1       0.583   2.709 -24.549  0.00  0.00    +0.239 N 
ATOM     10  H   UNL     1       1.362   2.717 -25.207  0.00  0.00    +0.204 HD
ATOM     11  C   UNL     1       1.524   2.728 -25.369  0.00  0.00    +0.191 C 
ATOM     12  C   UNL     1      -0.715   3.181 -24.893  0.00  0.00    +0.096 C 
ATOM     13  C   UNL     1      -0.591   2.748 -23.713  0.00  0.00    -0.007 C 
ATOM     14  C   UNL     1       0.524   2.308 -23.319  0.00  0.00    -0.014 C 
ATOM     15  C   UNL     1       0.652   1.878 -22.151  0.00  0.00    +0.035 C 
ATOM     16  C   UNL     1       1.758   1.444 -21.766  0.00  0.00    +0.016 C 
ATOM     17  C   UNL     1      -0.333   1.881 -21.360  0.00  0.00    +0.023 C 
ATOM     18  C   UNL     1      -1.438   2.315 -21.747  0.00  0.00    +0.117 C 
ATOM     19  O   UNL     1      -2.877   2.594 -21.403  0.00  0.00    -0.455 OA
ATOM     20  C   UNL     1      -1.820   3.617 -25.283  0.00  0.00    +0.094 C 
ATOM     21  C   UNL     1      -3.661   3.191 -22.532  0.00  0.00    +0.174 A 
ENDROOT
BRANCH   1  23
ATOM     22  C   UNL     1      -6.266   2.560 -21.770  0.00  0.00    +0.277 C 
ATOM     23  O   UNL     1      -5.760   3.638 -22.149  0.00  0.00    -0.491 OA
ENDBRANCH   1  23
TORSDOF 1
ENDMDL
