MODEL 1
REMARK VINA RESULT:   -13.190      0.000      0.000
REMARK INTER + INTRA:          -9.662
REMARK INTER:                 -12.834
REMARK INTRA:                   3.172
REMARK UNBOUND:                 4.299
REMARK  Name = ZINC000004104853
REMARK  4 active torsions:
REMARK  status: ('A' for Active; 'I' for Inactive)
REMARK    1  A    between atoms: C_1  and  C_2
REMARK    2  A    between atoms: C_2  and  C_4
REMARK    3  A    between atoms: C_16  and  C_17
REMARK    4  A    between atoms: C_21  and  C_22
REMARK                            x       y       z     vdW  Elec       q    Type
REMARK                         _______ _______ _______ _____ _____    ______ ____
ROOT
ATOM      1  C   UNL     1       1.848   2.179 -22.968  0.00  0.00    +0.061 C 
ATOM      2  C   UNL     1       2.017   2.706 -24.145  0.00  0.00    +0.012 C 
ATOM      3  C   UNL     1       0.861   3.125 -24.567  0.00  0.00    +0.005 C 
ATOM      4  C   UNL     1      -0.022   2.857 -23.650  0.00  0.00    -0.001 C 
ATOM      5  C   UNL     1      -1.302   3.071 -23.589  0.00  0.00    -0.004 C 
ATOM      6  C   UNL     1      -1.913   3.656 -24.577  0.00  0.00    +0.004 C 
ATOM      7  C   UNL     1      -3.194   3.870 -24.515  0.00  0.00    +0.004 C 
ATOM      8  C   UNL     1      -3.864   3.498 -23.465  0.00  0.00    -0.005 C 
ATOM      9  C   UNL     1      -5.145   3.712 -23.403  0.00  0.00    +0.004 C 
ATOM     10  C   UNL     1      -5.817   3.341 -22.353  0.00  0.00    +0.000 C 
ATOM     11  C   UNL     1      -5.206   2.756 -21.365  0.00  0.00    +0.001 C 
ATOM     12  C   UNL     1      -3.925   2.542 -21.427  0.00  0.00    +0.007 C 
ATOM     13  C   UNL     1      -3.255   2.914 -22.477  0.00  0.00    -0.026 C 
ATOM     14  C   UNL     1      -2.644   2.329 -21.490  0.00  0.00    +0.012 C 
ATOM     15  C   UNL     1      -1.974   2.700 -22.540  0.00  0.00    -0.001 C 
ATOM     16  C   UNL     1      -1.363   2.115 -21.552  0.00  0.00    +0.005 C 
ATOM     17  C   UNL     1      -0.083   1.901 -21.613  0.00  0.00    +0.008 C 
ATOM     18  C   UNL     1       0.588   2.273 -22.663  0.00  0.00    -0.019 C 
ATOM     19  C   UNL     1       1.312   1.701 -21.748  0.00  0.00    +0.012 C 
ENDROOT
BRANCH   1  21
ATOM     20  C   UNL     1       3.068   0.390 -22.350  0.00  0.00    +0.086 C 
ATOM     21  C   UNL     1       2.776   1.651 -22.228  0.00  0.00    +0.134 C 
ATOM     22  O   UNL     1       3.415   2.385 -21.364  0.00  0.00    -0.297 OA
ENDBRANCH   1  21
TORSDOF 1
ENDMDL
