MODEL 1
REMARK VINA RESULT:   -11.207      0.000      0.000
REMARK INTER + INTRA:         -12.001
REMARK INTER:                 -11.850
REMARK INTRA:                  -0.150
REMARK UNBOUND:                -0.139
REMARK  Name = COc1ccc2c3c1O[C@]1(C)C(=O)C=C[C@@H]4[C@@H](C2)N(C)CC[C@@]341         ZINC000253504854
REMARK  4 active torsions:
REMARK  status: ('A' for Active; 'I' for Inactive)
REMARK    1  A    between atoms: C_1  and  O_2
REMARK    2  A    between atoms: O_2  and  C_3
REMARK    3  A    between atoms: C_10  and  C_11
REMARK    4  A    between atoms: N_19  and  C_20
REMARK                            x       y       z     vdW  Elec       q    Type
REMARK                         _______ _______ _______ _____ _____    ______ ____
ROOT
ATOM      1  C   UNL     1       0.846   2.217 -23.204  0.00  0.00    +0.162 A 
ATOM      2  C   UNL     1       0.802   1.897 -21.981  0.00  0.00    +0.050 A 
ATOM      3  C   UNL     1      -0.277   1.949 -21.349  0.00  0.00    +0.008 A 
ATOM      4  C   UNL     1      -1.325   2.321 -21.930  0.00  0.00    -0.034 A 
ATOM      5  C   UNL     1      -1.301   2.644 -23.148  0.00  0.00    +0.013 A 
ATOM      6  C   UNL     1      -2.347   3.015 -23.725  0.00  0.00    +0.062 C 
ATOM      7  C   UNL     1      -3.470   3.450 -24.486  0.00  0.00    +0.067 C 
ATOM      8  C   UNL     1      -4.701   3.519 -23.799  0.00  0.00    +0.132 C 
ATOM      9  N   UNL     1      -4.710   3.154 -22.437  0.00  0.00    +0.236 N 
ATOM     10  H   UNL     1      -5.572   3.184 -21.891  0.00  0.00    +0.203 HD
ATOM     11  C   UNL     1      -5.759   3.187 -21.756  0.00  0.00    +0.190 C 
ATOM     12  C   UNL     1      -3.467   2.746 -21.871  0.00  0.00    +0.076 C 
ATOM     13  C   UNL     1      -3.427   3.067 -23.095  0.00  0.00    +0.076 C 
ATOM     14  C   UNL     1      -4.483   3.442 -23.680  0.00  0.00    -0.013 C 
ATOM     15  C   UNL     1      -4.450   3.761 -24.891  0.00  0.00    +0.046 C 
ATOM     16  C   UNL     1      -3.363   3.710 -25.534  0.00  0.00    +0.200 C 
ATOM     17  O   UNL     1      -3.333   4.030 -26.744  0.00  0.00    -0.288 OA
ATOM     18  C   UNL     1      -2.317   3.340 -24.957  0.00  0.00    +0.180 C 
ATOM     19  C   UNL     1      -1.999   3.593 -26.141  0.00  0.00    +0.065 C 
ATOM     20  O   UNL     1      -0.837   3.066 -25.071  0.00  0.00    -0.473 OA
ATOM     21  C   UNL     1      -2.424   2.375 -21.290  0.00  0.00    +0.090 C 
ATOM     22  C   UNL     1      -0.214   2.593 -23.789  0.00  0.00    +0.167 A 
ENDROOT
BRANCH   1  24
ATOM     23  C   UNL     1       2.645   3.183 -23.933  0.00  0.00    +0.277 C 
ATOM     24  O   UNL     1       1.927   2.164 -23.832  0.00  0.00    -0.491 OA
ENDBRANCH   1  24
TORSDOF 1
ENDMDL
