MODEL 1
REMARK VINA RESULT:    -9.206      0.000      0.000
REMARK INTER + INTRA:         -10.682
REMARK INTER:                 -10.892
REMARK INTRA:                   0.210
REMARK UNBOUND:                 0.677
REMARK  Name = ZINC000001559986
REMARK  7 active torsions:
REMARK  status: ('A' for Active; 'I' for Inactive)
REMARK    1  A    between atoms: C_1  and  O_2
REMARK    2  A    between atoms: O_2  and  C_3
REMARK    3  A    between atoms: C_9  and  O_10
REMARK    4  A    between atoms: O_10  and  C_11
REMARK    5  A    between atoms: C_11  and  C_12
REMARK    6  A    between atoms: C_13  and  C_14
REMARK    7  A    between atoms: C_13  and  C_15
REMARK                            x       y       z     vdW  Elec       q    Type
REMARK                         _______ _______ _______ _____ _____    ______ ____
ROOT
ATOM      1  C   UNL     1       2.736   2.928 -23.313  0.00  0.00    +0.142 A 
ATOM      2  C   UNL     1       2.747   2.234 -22.214  0.00  0.00    +0.066 A 
ATOM      3  C   UNL     1       3.707   1.910 -21.398  0.00  0.00    +0.053 A 
ATOM      4  C   UNL     1       3.199   1.198 -20.436  0.00  0.00    +0.196 A 
ATOM      5  O   UNL     1       1.922   1.082 -20.658  0.00  0.00    -0.459 OA
ATOM      6  C   UNL     1       1.644   1.721 -21.754  0.00  0.00    +0.183 A 
ATOM      7  C   UNL     1       0.529   1.904 -22.397  0.00  0.00    +0.207 A 
ATOM      8  C   UNL     1       0.515   2.598 -23.496  0.00  0.00    +0.188 A 
ATOM      9  O   UNL     1      -0.600   2.779 -24.135  0.00  0.00    -0.418 OA
ATOM     10  C   UNL     1      -0.616   3.473 -25.236  0.00  0.00    +0.337 A 
ATOM     11  C   UNL     1       0.488   3.984 -25.693  0.00  0.00    +0.093 A 
ATOM     12  C   UNL     1       1.606   3.804 -25.054  0.00  0.00    +0.022 A 
ATOM     13  O   UNL     1      -1.732   3.654 -25.875  0.00  0.00    -0.245 OA
ATOM     14  C   UNL     1       1.619   3.109 -23.953  0.00  0.00    +0.064 A 
ENDROOT
BRANCH   1  16
ATOM     15  C   UNL     1       4.341   4.503 -23.216  0.00  0.00    +0.277 C 
ATOM     16  O   UNL     1       3.838   3.439 -23.770  0.00  0.00    -0.494 OA
ENDBRANCH   1  16
BRANCH   7  17
ATOM     17  O   UNL     1      -0.575   1.391 -21.938  0.00  0.00    -0.481 OA
BRANCH  17  18
ATOM     18  C   UNL     1      -1.416   2.138 -21.285  0.00  0.00    +0.257 C 
BRANCH  18  19
ATOM     19  C   UNL     1      -2.667   2.172 -21.640  0.00  0.00    +0.012 C 
ATOM     20  C   UNL     1      -3.505   2.928 -20.995  0.00  0.00    -0.076 C 
ATOM     21  C   UNL     1      -3.093   3.650 -19.995  0.00  0.00    +0.038 C 
ATOM     22  C   UNL     1      -4.756   2.962 -21.349  0.00  0.00    +0.038 C 
ENDBRANCH  18  19
ENDBRANCH  17  18
ENDBRANCH   7  17
TORSDOF 4
ENDMDL
