MODEL 1
REMARK VINA RESULT:   -10.039      0.000      0.000
REMARK INTER + INTRA:         -11.496
REMARK INTER:                 -11.191
REMARK INTRA:                  -0.304
REMARK UNBOUND:                -0.283
REMARK  Name = COc1cc2c(cc1OC)[C@@]13CCN[C@@H](C2)[C@@H]1CCC(=O)C3                  ZINC000096316416
REMARK  4 active torsions:
REMARK  status: ('A' for Active; 'I' for Inactive)
REMARK    1  A    between atoms: C_1  and  O_2
REMARK    2  A    between atoms: O_2  and  C_3
REMARK    3  A    between atoms: C_8  and  O_9
REMARK    4  A    between atoms: O_9  and  C_10
REMARK                            x       y       z     vdW  Elec       q    Type
REMARK                         _______ _______ _______ _____ _____    ______ ____
ROOT
ATOM      1  C   UNL     1       0.593   2.143 -22.981  0.00  0.00    +0.162 A 
ATOM      2  C   UNL     1      -0.250   1.966 -22.054  0.00  0.00    +0.053 A 
ATOM      3  C   UNL     1      -1.630   2.413 -22.255  0.00  0.00    -0.035 A 
ATOM      4  C   UNL     1      -1.881   2.873 -23.172  0.00  0.00    -0.033 A 
ATOM      5  C   UNL     1      -2.700   3.227 -23.499  0.00  0.00    +0.015 C 
ATOM      6  C   UNL     1      -1.161   2.643 -23.077  0.00  0.00    +0.063 C 
ATOM      7  C   UNL     1      -0.943   2.008 -21.730  0.00  0.00    +0.130 C 
ATOM      8  N   UNL     1      -1.877   1.930 -20.979  0.00  0.00    +0.230 N 
ATOM      9  H   UNL     1      -2.034   0.924 -20.925  0.00  0.00    +0.202 HD
ATOM     10  H   UNL     1      -1.608   2.428 -20.130  0.00  0.00    +0.202 HD
ATOM     11  C   UNL     1      -3.302   2.476 -21.382  0.00  0.00    +0.071 C 
ATOM     12  C   UNL     1      -2.980   3.781 -24.618  0.00  0.00    +0.086 C 
ATOM     13  C   UNL     1      -4.195   4.198 -24.848  0.00  0.00    +0.134 C 
ATOM     14  O   UNL     1      -4.478   4.757 -25.978  0.00  0.00    -0.297 OA
ATOM     15  C   UNL     1      -5.144   4.053 -23.931  0.00  0.00    +0.075 C 
ATOM     16  C   UNL     1      -4.893   3.489 -22.770  0.00  0.00    +0.017 C 
ATOM     17  C   UNL     1      -3.717   3.070 -22.511  0.00  0.00    +0.049 C 
ATOM     18  C   UNL     1      -1.016   3.073 -24.165  0.00  0.00    +0.054 A 
ATOM     19  C   UNL     1      -2.395   2.228 -21.357  0.00  0.00    +0.090 C 
ATOM     20  C   UNL     1       0.217   2.701 -24.052  0.00  0.00    +0.162 A 
ENDROOT
BRANCH   1  22
ATOM     21  C   UNL     1       2.695   2.286 -22.070  0.00  0.00    +0.277 C 
ATOM     22  O   UNL     1       1.867   1.777 -22.906  0.00  0.00    -0.491 OA
ENDBRANCH   1  22
BRANCH  20  23
ATOM     23  O   UNL     1       1.042   2.902 -25.022  0.00  0.00    -0.491 OA
ATOM     24  C   UNL     1       1.152   4.088 -25.533  0.00  0.00    +0.277 C 
ENDBRANCH  20  23
TORSDOF 2
ENDMDL
