MODEL 1
REMARK VINA RESULT:    -9.170      0.000      0.000
REMARK INTER + INTRA:         -12.762
REMARK INTER:                 -11.348
REMARK INTRA:                  -1.413
REMARK UNBOUND:                -0.376
REMARK  Name = ZINC000000338365
REMARK  6 active torsions:
REMARK  status: ('A' for Active; 'I' for Inactive)
REMARK    1  A    between atoms: C_2  and  C_3
REMARK    2  A    between atoms: N_5  and  C_6
REMARK    3  A    between atoms: N_5  and  C_17
REMARK    4  A    between atoms: C_6  and  C_7
REMARK    5  A    between atoms: C_7  and  C_8
REMARK    6  A    between atoms: C_17  and  C_18
REMARK                            x       y       z     vdW  Elec       q    Type
REMARK                         _______ _______ _______ _____ _____    ______ ____
ROOT
ATOM      1  C   UNL     1      -3.357   2.902 -21.922  0.00  0.00    +0.239 C 
ATOM      2  N   UNL     1      -2.124   3.317 -21.885  0.00  0.00    -0.293 N 
ATOM      3  O   UNL     1      -3.702   1.834 -21.267  0.00  0.00    -0.271 OA
ENDROOT
BRANCH   1   5
ATOM      4  C   UNL     1      -5.508   3.390 -22.371  0.00  0.00    +0.013 C 
ATOM      5  C   UNL     1      -4.241   3.556 -22.614  0.00  0.00    +0.060 C 
ENDBRANCH   1   5
BRANCH   2   6
ATOM      6  C   UNL     1      -1.779   4.386 -22.540  0.00  0.00    +0.143 C 
BRANCH   6   7
ATOM      7  C   UNL     1      -0.872   4.315 -23.469  0.00  0.00    -0.030 A 
ATOM      8  C   UNL     1      -1.131   3.706 -24.587  0.00  0.00    +0.005 A 
ATOM      9  C   UNL     1      -0.225   3.636 -25.515  0.00  0.00    +0.000 A 
ATOM     10  C   UNL     1       0.943   4.175 -25.324  0.00  0.00    +0.000 A 
ATOM     11  C   UNL     1       1.205   4.784 -24.207  0.00  0.00    +0.000 A 
ATOM     12  C   UNL     1       0.297   4.854 -23.280  0.00  0.00    +0.005 A 
ENDBRANCH   6   7
ENDBRANCH   2   6
BRANCH   2  13
ATOM     13  C   UNL     1      -1.239   2.663 -21.193  0.00  0.00    +0.113 C 
BRANCH  13  14
ATOM     14  C   UNL     1      -0.513   1.747 -21.765  0.00  0.00    +0.056 C 
BRANCH  14  15
ATOM     15  C   UNL     1       0.709   1.548 -21.374  0.00  0.00    -0.021 A 
ATOM     16  C   UNL     1       1.114   1.467 -20.141  0.00  0.00    +0.087 A 
ATOM     17  N   UNL     1       2.397   1.264 -20.151  0.00  0.00    -0.360 N 
ATOM     18  H   UNL     1       2.973   1.162 -19.359  0.00  0.00    +0.165 HD
ATOM     19  C   UNL     1       2.789   1.219 -21.391  0.00  0.00    +0.047 A 
ATOM     20  C   UNL     1       3.956   1.041 -21.928  0.00  0.00    +0.026 A 
ATOM     21  C   UNL     1       4.086   1.038 -23.223  0.00  0.00    +0.002 A 
ATOM     22  C   UNL     1       3.042   1.214 -23.977  0.00  0.00    +0.001 A 
ATOM     23  C   UNL     1       1.871   1.392 -23.442  0.00  0.00    +0.010 A 
ATOM     24  C   UNL     1       1.744   1.395 -22.145  0.00  0.00    +0.003 A 
ENDBRANCH  14  15
ENDBRANCH  13  14
ENDBRANCH   2  13
TORSDOF 6
ENDMDL
