MODEL 1
REMARK VINA RESULT:   -10.509      0.000      0.000
REMARK INTER + INTRA:         -12.521
REMARK INTER:                 -12.483
REMARK INTRA:                  -0.039
REMARK UNBOUND:                -0.169
REMARK  Name = ZINC000000968444
REMARK  7 active torsions:
REMARK  status: ('A' for Active; 'I' for Inactive)
REMARK    1  A    between atoms: C_1  and  C_2
REMARK    2  A    between atoms: C_2  and  C_3
REMARK    3  A    between atoms: C_4  and  C_5
REMARK    4  A    between atoms: C_5  and  C_6
REMARK    5  A    between atoms: C_6  and  C_7
REMARK    6  A    between atoms: C_7  and  C_8
REMARK    7  A    between atoms: C_13  and  C_14
REMARK                            x       y       z     vdW  Elec       q    Type
REMARK                         _______ _______ _______ _____ _____    ______ ____
ROOT
ATOM      1  C   UNL     1       2.459   1.896 -23.131  0.00  0.00    +0.127 C 
ATOM      2  C   UNL     1       1.881   1.471 -22.050  0.00  0.00    +0.021 C 
ATOM      3  C   UNL     1       0.609   1.669 -21.867  0.00  0.00    +0.013 C 
ATOM      4  C   UNL     1      -0.087   2.294 -22.771  0.00  0.00    +0.041 A 
ATOM      5  C   UNL     1       0.491   2.720 -23.856  0.00  0.00    +0.134 A 
ATOM      6  C   UNL     1      -0.204   3.345 -24.760  0.00  0.00    -0.007 A 
ATOM      7  C   UNL     1      -1.476   3.542 -24.578  0.00  0.00    +0.017 A 
ATOM      8  C   UNL     1      -2.052   3.117 -23.496  0.00  0.00    +0.008 A 
ATOM      9  C   UNL     1      -3.284   3.185 -23.081  0.00  0.00    +0.007 A 
ATOM     10  C   UNL     1      -4.353   3.702 -23.610  0.00  0.00    +0.010 A 
ATOM     11  C   UNL     1      -5.487   3.636 -22.977  0.00  0.00    +0.001 A 
ATOM     12  C   UNL     1      -5.553   3.053 -21.817  0.00  0.00    +0.002 A 
ATOM     13  C   UNL     1      -4.484   2.536 -21.289  0.00  0.00    +0.026 A 
ATOM     14  C   UNL     1      -3.348   2.602 -21.920  0.00  0.00    +0.047 A 
ATOM     15  N   UNL     1      -2.161   2.174 -21.617  0.00  0.00    -0.354 N 
ATOM     16  H   UNL     1      -1.910   1.693 -20.795  0.00  0.00    +0.166 HD
ATOM     17  C   UNL     1       0.372   3.772 -25.844  0.00  0.00    +0.047 C 
ATOM     18  C   UNL     1      -1.360   2.492 -22.591  0.00  0.00    +0.058 A 
ATOM     19  C   UNL     1       3.389   2.135 -24.008  0.00  0.00    +0.060 C 
ATOM     20  O   UNL     1       1.763   2.522 -24.037  0.00  0.00    -0.481 OA
ENDROOT
BRANCH   1  21
ATOM     21  C   UNL     1       3.476   1.355 -22.533  0.00  0.00    +0.056 C 
BRANCH  21  22
ATOM     22  C   UNL     1       4.666   1.852 -22.696  0.00  0.00    +0.031 C 
BRANCH  22  25
ATOM     23  C   UNL     1       6.783   3.889 -20.908  0.00  0.00    +0.038 C 
ATOM     24  C   UNL     1       6.168   3.334 -21.909  0.00  0.00    -0.080 C 
ATOM     25  C   UNL     1       5.282   2.408 -21.694  0.00  0.00    -0.028 C 
ATOM     26  C   UNL     1       6.439   3.704 -23.126  0.00  0.00    +0.038 C 
ENDBRANCH  22  25
ENDBRANCH  21  22
ENDBRANCH   1  21
TORSDOF 3
ENDMDL
