MODEL 1
REMARK VINA RESULT:   -10.358      0.000      0.000
REMARK INTER + INTRA:         -10.358
REMARK INTER:                 -10.358
REMARK INTRA:                   0.000
REMARK UNBOUND:                 0.000
REMARK  Name = C[C@@H]1CC[C@@H]2[C@@H](C)C(=O)O[C@@H]3O[C@]4(C)CC[C@@H]1[C@]32OO4   ZINC000100858739
REMARK  3 active torsions:
REMARK  status: ('A' for Active; 'I' for Inactive)
REMARK    1  A    between atoms: C_1  and  C_2
REMARK    2  A    between atoms: C_6  and  C_7
REMARK    3  A    between atoms: C_13  and  C_14
REMARK                            x       y       z     vdW  Elec       q    Type
REMARK                         _______ _______ _______ _____ _____    ______ ____
ROOT
ATOM      1  C   UNL     1      -5.719   3.438 -22.133  0.00  0.00    +0.008 C 
ATOM      2  C   UNL     1      -4.455   3.093 -22.127  0.00  0.00    -0.008 C 
ATOM      3  C   UNL     1      -3.879   2.737 -21.005  0.00  0.00    +0.004 C 
ATOM      4  C   UNL     1      -2.600   2.388 -20.998  0.00  0.00    +0.008 C 
ATOM      5  C   UNL     1      -1.912   2.398 -22.113  0.00  0.00    +0.044 C 
ATOM      6  C   UNL     1      -0.648   2.054 -22.106  0.00  0.00    +0.101 C 
ATOM      7  C   UNL     1       0.055   2.060 -23.220  0.00  0.00    +0.313 C 
ATOM      8  O   UNL     1      -0.535   2.422 -24.357  0.00  0.00    -0.432 OA
ATOM      9  C   UNL     1      -1.798   2.767 -24.365  0.00  0.00    +0.349 C 
ATOM     10  O   UNL     1      -2.076   3.064 -25.610  0.00  0.00    -0.305 OA
ATOM     11  C   UNL     1      -3.237   3.467 -26.105  0.00  0.00    +0.204 C 
ATOM     12  C   UNL     1      -4.364   3.660 -25.465  0.00  0.00    +0.068 C 
ATOM     13  C   UNL     1      -4.614   3.500 -24.175  0.00  0.00    +0.012 C 
ATOM     14  C   UNL     1      -3.261   3.705 -27.409  0.00  0.00    +0.077 C 
ATOM     15  O   UNL     1      -3.693   3.399 -25.021  0.00  0.00    -0.199 OA
ATOM     16  O   UNL     1      -3.410   3.123 -23.901  0.00  0.00    -0.218 OA
ATOM     17  O   UNL     1       1.325   1.712 -23.209  0.00  0.00    -0.250 OA
ATOM     18  C   UNL     1      -0.079   1.699 -20.980  0.00  0.00    +0.019 C 
ATOM     19  C   UNL     1      -2.488   2.754 -23.234  0.00  0.00    +0.173 C 
ATOM     20  C   UNL     1      -3.767   3.103 -23.241  0.00  0.00    +0.034 C 
ENDROOT
TORSDOF 0
ENDMDL
