MODEL 1
REMARK VINA RESULT:    -9.441      0.000      0.000
REMARK INTER + INTRA:         -14.655
REMARK INTER:                 -13.728
REMARK INTRA:                  -0.928
REMARK UNBOUND:                -1.351
REMARK  Name = CCCOc1ccc(C(=O)OC[C@@H]2CCC[N@@+]3(C)CCCC[C@H]23)cc1                 ZINC000252441459
REMARK  9 active torsions:
REMARK  status: ('A' for Active; 'I' for Inactive)
REMARK    1  A    between atoms: C_1  and  C_2
REMARK    2  A    between atoms: C_2  and  C_3
REMARK    3  A    between atoms: C_3  and  O_4
REMARK    4  A    between atoms: O_4  and  C_5
REMARK    5  A    between atoms: C_8  and  C_9
REMARK    6  A    between atoms: C_9  and  O_11
REMARK    7  A    between atoms: O_11  and  C_12
REMARK    8  A    between atoms: C_12  and  C_13
REMARK    9  A    between atoms: N_17  and  C_18
REMARK                            x       y       z     vdW  Elec       q    Type
REMARK                         _______ _______ _______ _____ _____    ______ ____
ROOT
ATOM      1  O   UNL     1      -0.713   3.378 -25.038  0.00  0.00    -0.461 OA
ENDROOT
BRANCH   1   2
ATOM      2  C   UNL     1       0.587   3.397 -25.018  0.00  0.00    +0.339 C 
ATOM      3  O   UNL     1       1.236   4.263 -25.736  0.00  0.00    -0.245 OA
BRANCH   2   7
ATOM      4  C   UNL     1       2.536   0.852 -22.795  0.00  0.00    +0.121 A 
ATOM      5  C   UNL     1       2.945   1.107 -24.003  0.00  0.00    +0.046 A 
ATOM      6  C   UNL     1       2.295   1.955 -24.743  0.00  0.00    +0.018 A 
ATOM      7  C   UNL     1       1.237   2.548 -24.277  0.00  0.00    +0.059 A 
ATOM      8  C   UNL     1       0.828   2.293 -23.069  0.00  0.00    +0.018 A 
ATOM      9  C   UNL     1       1.477   1.445 -22.329  0.00  0.00    +0.046 A 
BRANCH   4  10
ATOM     10  O   UNL     1       3.186   0.004 -22.054  0.00  0.00    -0.492 OA
BRANCH  10  11
ATOM     11  C   UNL     1       3.768   0.406 -20.964  0.00  0.00    +0.229 C 
BRANCH  11  13
ATOM     12  C   UNL     1       5.183   2.158 -20.987  0.00  0.00    +0.007 C 
ATOM     13  C   UNL     1       4.980   0.874 -21.010  0.00  0.00    +0.038 C 
ENDBRANCH  11  13
ENDBRANCH  10  11
ENDBRANCH   4  10
ENDBRANCH   2   7
ENDBRANCH   1   2
BRANCH   1  14
ATOM     14  C   UNL     1      -1.386   4.296 -24.409  0.00  0.00    +0.241 C 
BRANCH  14  15
ATOM     15  C   UNL     1      -2.654   4.128 -24.178  0.00  0.00    +0.075 C 
ATOM     16  C   UNL     1      -3.521   4.343 -25.123  0.00  0.00    +0.017 C 
ATOM     17  C   UNL     1      -4.789   4.176 -24.893  0.00  0.00    +0.051 C 
ATOM     18  C   UNL     1      -5.191   3.793 -23.716  0.00  0.00    +0.133 C 
ATOM     19  N   UNL     1      -4.325   3.578 -22.772  0.00  0.00    +0.244 N 
ATOM     20  C   UNL     1      -4.726   3.196 -21.596  0.00  0.00    +0.133 C 
ATOM     21  C   UNL     1      -3.859   2.981 -20.651  0.00  0.00    +0.051 C 
ATOM     22  C   UNL     1      -2.591   3.149 -20.881  0.00  0.00    +0.011 C 
ATOM     23  C   UNL     1      -2.190   3.531 -22.058  0.00  0.00    +0.055 C 
ATOM     24  C   UNL     1      -5.593   3.411 -22.541  0.00  0.00    +0.192 C 
ATOM     25  C   UNL     1      -3.056   3.746 -23.002  0.00  0.00    +0.072 C 
ENDBRANCH  14  15
ENDBRANCH   1  14
TORSDOF 7
ENDMDL
