MODEL 1
REMARK VINA RESULT:    -7.096      0.000      0.000
REMARK INTER + INTRA:          -7.787
REMARK INTER:                  -7.716
REMARK INTRA:                  -0.070
REMARK UNBOUND:                -0.069
REMARK  Name = ZINC000000490789
REMARK  2 active torsions:
REMARK  status: ('A' for Active; 'I' for Inactive)
REMARK    1  A    between atoms: O_1  and  C_2
REMARK    2  A    between atoms: C_2  and  C_3
REMARK                            x       y       z     vdW  Elec       q    Type
REMARK                         _______ _______ _______ _____ _____    ______ ____
ROOT
ATOM      1  C   UNL     1      -2.641   3.780 -24.456  0.00  0.00    +0.063 C 
ATOM      2  C   UNL     1      -3.519   4.060 -25.373  0.00  0.00    +0.016 C 
ATOM      3  C   UNL     1      -4.783   4.096 -25.073  0.00  0.00    +0.051 C 
ATOM      4  C   UNL     1      -5.170   3.851 -23.857  0.00  0.00    +0.131 C 
ATOM      5  N   UNL     1      -4.293   3.570 -22.939  0.00  0.00    +0.238 N 
ATOM      6  H   UNL     1      -5.304   3.672 -23.020  0.00  0.00    +0.204 HD
ATOM      7  C   UNL     1      -4.679   3.325 -21.722  0.00  0.00    +0.131 C 
ATOM      8  C   UNL     1      -3.801   3.045 -20.806  0.00  0.00    +0.051 C 
ATOM      9  C   UNL     1      -2.537   3.009 -21.106  0.00  0.00    +0.011 C 
ATOM     10  C   UNL     1      -2.150   3.254 -22.322  0.00  0.00    +0.055 C 
ATOM     11  C   UNL     1      -3.028   3.535 -23.240  0.00  0.00    +0.070 C 
ENDROOT
BRANCH   1  12
ATOM     12  C   UNL     1      -1.376   3.744 -24.756  0.00  0.00    +0.164 C 
BRANCH  12  13
ATOM     13  O   UNL     1      -1.000   3.355 -25.937  0.00  0.00    -0.395 OA
ATOM     14  H   UNL     1      -0.143   3.757 -26.152  0.00  0.00    +0.209 HD
ENDBRANCH  12  13
ENDBRANCH   1  12
TORSDOF 2
ENDMDL
