MODEL 1
REMARK VINA RESULT:    -8.582      0.000      0.000
REMARK INTER + INTRA:         -15.693
REMARK INTER:                 -14.432
REMARK INTRA:                  -1.261
REMARK UNBOUND:                -1.593
REMARK  Name = ZINC000085340936
REMARK  14 active torsions:
REMARK  status: ('A' for Active; 'I' for Inactive)
REMARK    1  A    between atoms: C_1  and  C_2
REMARK    2  A    between atoms: C_2  and  C_3
REMARK    3  A    between atoms: C_3  and  C_4
REMARK    4  A    between atoms: C_4  and  C_5
REMARK    5  A    between atoms: C_5  and  C_6
REMARK    6  A    between atoms: C_6  and  C_7
REMARK    7  A    between atoms: C_7  and  C_8
REMARK    8  A    between atoms: C_8  and  C_9
REMARK    9  A    between atoms: C_9  and  C_10
REMARK   10  A    between atoms: C_10  and  C_11
REMARK   11  A    between atoms: C_11  and  C_12
REMARK   12  A    between atoms: C_13  and  O_14
REMARK   13  A    between atoms: C_15  and  O_16
REMARK   14  A    between atoms: C_23  and  C_24
REMARK                            x       y       z     vdW  Elec       q    Type
REMARK                         _______ _______ _______ _____ _____    ______ ____
ROOT
ATOM      1  C   UNL     1       2.123   3.771 -23.980  0.00  0.00    +0.025 A 
ATOM      2  C   UNL     1       2.236   2.554 -24.421  0.00  0.00    +0.164 A 
ATOM      3  C   UNL     1       3.376   1.934 -24.344  0.00  0.00    +0.161 A 
ATOM      4  C   UNL     1       4.406   2.533 -23.824  0.00  0.00    +0.079 A 
ATOM      5  C   UNL     1       4.295   3.750 -23.382  0.00  0.00    +0.094 A 
ATOM      6  N   UNL     1       5.326   4.348 -22.862  0.00  0.00    -0.243 NA
ATOM      7  C   UNL     1       5.217   5.565 -22.419  0.00  0.00    +0.090 A 
ATOM      8  C   UNL     1       6.247   6.162 -21.899  0.00  0.00    +0.030 A 
ATOM      9  C   UNL     1       6.139   7.379 -21.456  0.00  0.00    +0.005 A 
ATOM     10  C   UNL     1       4.999   7.999 -21.534  0.00  0.00    -0.048 A 
ATOM     11  C   UNL     1       3.967   7.403 -22.054  0.00  0.00    +0.033 A 
ATOM     12  C   UNL     1       4.890   9.217 -21.091  0.00  0.00    +0.044 C 
ATOM     13  C   UNL     1       4.077   6.184 -22.497  0.00  0.00    +0.090 A 
ATOM     14  N   UNL     1       3.046   5.587 -23.017  0.00  0.00    -0.243 NA
ATOM     15  C   UNL     1       3.155   4.370 -23.459  0.00  0.00    +0.097 A 
ENDROOT
BRANCH   2  16
ATOM     16  O   UNL     1       1.205   1.956 -24.942  0.00  0.00    -0.503 OA
ATOM     17  H   UNL     1       0.904   1.144 -24.584  0.00  0.00    +0.292 HD
ENDBRANCH   2  16
BRANCH   3  18
ATOM     18  O   UNL     1       3.486   0.718 -24.786  0.00  0.00    -0.503 OA
ATOM     19  H   UNL     1       3.972   0.546 -25.569  0.00  0.00    +0.292 HD
ENDBRANCH   3  18
BRANCH   1  20
ATOM     20  C   UNL     1       0.985   4.391 -24.057  0.00  0.00    +0.041 C 
BRANCH  20  21
ATOM     21  C   UNL     1       0.125   4.295 -23.087  0.00  0.00    +0.005 C 
BRANCH  21  22
ATOM     22  C   UNL     1      -1.119   4.619 -23.285  0.00  0.00    +0.000 C 
BRANCH  22  23
ATOM     23  C   UNL     1      -1.758   4.148 -24.314  0.00  0.00    +0.000 C 
BRANCH  23  24
ATOM     24  C   UNL     1      -3.012   4.441 -24.492  0.00  0.00    +0.000 C 
BRANCH  24  25
ATOM     25  C   UNL     1      -3.929   3.556 -24.240  0.00  0.00    +0.000 C 
BRANCH  25  26
ATOM     26  C   UNL     1      -4.984   3.890 -23.558  0.00  0.00    -0.000 C 
BRANCH  26  27
ATOM     27  C   UNL     1      -5.130   3.466 -22.338  0.00  0.00    -0.000 C 
BRANCH  27  28
ATOM     28  C   UNL     1      -4.238   2.678 -21.813  0.00  0.00    -0.000 C 
BRANCH  28  30
ATOM     29  C   UNL     1      -3.086   3.911 -20.323  0.00  0.00    +0.004 C 
ATOM     30  C   UNL     1      -3.828   2.880 -20.596  0.00  0.00    -0.003 C 
ENDBRANCH  28  30
ENDBRANCH  27  28
ENDBRANCH  26  27
ENDBRANCH  25  26
ENDBRANCH  24  25
ENDBRANCH  23  24
ENDBRANCH  22  23
ENDBRANCH  21  22
ENDBRANCH  20  21
ENDBRANCH   1  20
TORSDOF 12
ENDMDL
