MODEL 1
REMARK VINA RESULT:    -7.195      0.000      0.000
REMARK INTER + INTRA:         -11.485
REMARK INTER:                 -10.743
REMARK INTRA:                  -0.741
REMARK UNBOUND:                 0.337
REMARK  Name = ZINC000071404304
REMARK  16 active torsions:
REMARK  status: ('A' for Active; 'I' for Inactive)
REMARK    1  A    between atoms: C_1  and  C_2
REMARK    2  A    between atoms: C_2  and  O_3
REMARK    3  A    between atoms: O_3  and  C_4
REMARK    4  A    between atoms: C_7  and  C_8
REMARK    5  A    between atoms: C_9  and  C_10
REMARK    6  A    between atoms: C_13  and  C_14
REMARK    7  A    between atoms: C_15  and  C_16
REMARK    8  A    between atoms: C_19  and  O_20
REMARK    9  A    between atoms: O_20  and  C_21
REMARK   10  A    between atoms: C_21  and  C_22
REMARK   11  A    between atoms: C_23  and  O_24
REMARK   12  A    between atoms: O_24  and  C_25
REMARK   13  A    between atoms: C_27  and  C_28
REMARK   14  A    between atoms: C_28  and  C_29
REMARK   15  A    between atoms: C_31  and  O_32
REMARK   16  A    between atoms: O_32  and  C_33
REMARK                            x       y       z     vdW  Elec       q    Type
REMARK                         _______ _______ _______ _____ _____    ______ ____
ROOT
ATOM      1  C   UNL     1       1.325   2.274 -22.675  0.00  0.00    +0.110 A 
ATOM      2  N   UNL     1       2.054   1.380 -22.073  0.00  0.00    -0.078 NA
ATOM      3  O   UNL     1       3.297   1.744 -22.167  0.00  0.00    -0.354 OA
ATOM      4  C   UNL     1       3.339   2.864 -22.828  0.00  0.00    +0.164 A 
ATOM      5  C   UNL     1       2.121   3.190 -23.141  0.00  0.00    +0.026 A 
ENDROOT
BRANCH   1   7
ATOM      6  C   UNL     1      -0.666   3.298 -22.456  0.00  0.00    +0.010 C 
ATOM      7  C   UNL     1       0.032   2.255 -22.791  0.00  0.00    +0.032 C 
BRANCH   6  11
ATOM      8  C   UNL     1      -4.551   3.239 -22.809  0.00  0.00    +0.162 A 
ATOM      9  C   UNL     1      -3.996   2.955 -21.665  0.00  0.00    +0.050 A 
ATOM     10  C   UNL     1      -2.702   2.976 -21.550  0.00  0.00    +0.012 A 
ATOM     11  C   UNL     1      -1.961   3.278 -22.573  0.00  0.00    -0.021 A 
ATOM     12  C   UNL     1      -2.515   3.562 -23.717  0.00  0.00    +0.057 A 
ATOM     13  C   UNL     1      -3.810   3.542 -23.831  0.00  0.00    +0.162 A 
BRANCH  13  14
ATOM     14  O   UNL     1      -4.364   3.825 -24.974  0.00  0.00    -0.491 OA
ATOM     15  C   UNL     1      -4.158   3.058 -26.004  0.00  0.00    +0.277 C 
ENDBRANCH  13  14
BRANCH   8  16
ATOM     16  O   UNL     1      -5.845   3.219 -22.925  0.00  0.00    -0.489 OA
BRANCH  16  18
ATOM     17  C   UNL     1      -6.937   2.025 -21.360  0.00  0.00    +0.048 C 
ATOM     18  C   UNL     1      -6.593   3.173 -21.863  0.00  0.00    +0.226 C 
ENDBRANCH  16  18
ENDBRANCH   8  16
ENDBRANCH   6  11
ENDBRANCH   1   7
BRANCH   4  19
ATOM     19  C   UNL     1       4.411   3.536 -23.121  0.00  0.00    +0.050 C 
ATOM     20  C   UNL     1       4.770   4.544 -22.382  0.00  0.00    +0.012 C 
BRANCH  20  21
ATOM     21  C   UNL     1       5.844   5.217 -22.677  0.00  0.00    -0.021 A 
ATOM     22  C   UNL     1       6.055   6.375 -22.126  0.00  0.00    +0.012 A 
ATOM     23  C   UNL     1       7.128   7.048 -22.421  0.00  0.00    +0.050 A 
ATOM     24  C   UNL     1       7.989   6.563 -23.265  0.00  0.00    +0.162 A 
ATOM     25  C   UNL     1       7.776   5.404 -23.815  0.00  0.00    +0.162 A 
ATOM     26  C   UNL     1       6.703   4.731 -23.522  0.00  0.00    +0.057 A 
BRANCH  25  27
ATOM     27  O   UNL     1       8.637   4.918 -24.661  0.00  0.00    -0.491 OA
ATOM     28  C   UNL     1       8.401   4.979 -25.938  0.00  0.00    +0.277 C 
ENDBRANCH  25  27
BRANCH  24  29
ATOM     29  O   UNL     1       9.061   7.235 -23.559  0.00  0.00    -0.489 OA
BRANCH  29  30
ATOM     30  C   UNL     1       8.962   8.452 -24.008  0.00  0.00    +0.226 C 
ATOM     31  C   UNL     1       8.840   8.666 -25.284  0.00  0.00    +0.048 C 
ENDBRANCH  29  30
ENDBRANCH  24  29
ENDBRANCH  20  21
ENDBRANCH   4  19
BRANCH   5  32
ATOM     32  C   UNL     1       1.762   4.249 -23.805  0.00  0.00    +0.038 C 
ATOM     33  C   UNL     1       1.587   4.182 -25.091  0.00  0.00    +0.009 C 
ENDBRANCH   5  32
TORSDOF 11
ENDMDL
