MODEL 1
REMARK VINA RESULT:    -7.892      0.000      0.000
REMARK INTER + INTRA:         -10.637
REMARK INTER:                 -11.977
REMARK INTRA:                   1.339
REMARK UNBOUND:                 0.946
REMARK  Name = ZINC000004716501
REMARK  13 active torsions:
REMARK  status: ('A' for Active; 'I' for Inactive)
REMARK    1  A    between atoms: C_1  and  O_2
REMARK    2  A    between atoms: O_2  and  C_3
REMARK    3  A    between atoms: C_6  and  C_7
REMARK    4  A    between atoms: C_11  and  O_12
REMARK    5  A    between atoms: O_12  and  C_13
REMARK    6  A    between atoms: C_13  and  C_14
REMARK    7  A    between atoms: C_16  and  O_17
REMARK    8  A    between atoms: O_17  and  C_18
REMARK    9  A    between atoms: C_19  and  O_20
REMARK   10  A    between atoms: O_20  and  C_21
REMARK   11  A    between atoms: C_21  and  C_22
REMARK   12  A    between atoms: C_27  and  O_28
REMARK   13  A    between atoms: O_28  and  C_29
REMARK                            x       y       z     vdW  Elec       q    Type
REMARK                         _______ _______ _______ _____ _____    ______ ____
ROOT
ATOM      1  C   UNL     1       0.729   3.480 -23.458  0.00  0.00    +0.181 A 
ATOM      2  O   UNL     1       1.626   4.421 -23.500  0.00  0.00    -0.451 OA
ATOM      3  C   UNL     1       2.861   4.156 -23.192  0.00  0.00    +0.147 A 
ATOM      4  C   UNL     1       3.757   5.097 -23.234  0.00  0.00    +0.097 A 
ATOM      5  C   UNL     1       4.992   4.833 -22.926  0.00  0.00    +0.180 A 
ATOM      6  C   UNL     1       5.331   3.628 -22.575  0.00  0.00    +0.206 A 
ATOM      7  C   UNL     1       4.434   2.687 -22.532  0.00  0.00    +0.191 A 
ATOM      8  C   UNL     1       3.199   2.951 -22.841  0.00  0.00    +0.114 A 
ATOM      9  C   UNL     1       2.303   2.011 -22.798  0.00  0.00    +0.238 A 
ATOM     10  O   UNL     1       2.642   0.806 -22.447  0.00  0.00    -0.283 OA
ATOM     11  C   UNL     1       1.068   2.275 -23.107  0.00  0.00    +0.211 A 
ENDROOT
BRANCH   1  15
ATOM     12  C   UNL     1      -2.975   4.273 -24.384  0.00  0.00    +0.120 A 
ATOM     13  C   UNL     1      -2.176   3.765 -25.275  0.00  0.00    +0.046 A 
ATOM     14  C   UNL     1      -0.942   3.500 -24.966  0.00  0.00    +0.015 A 
ATOM     15  C   UNL     1      -0.505   3.744 -23.766  0.00  0.00    +0.021 A 
ATOM     16  C   UNL     1      -1.304   4.252 -22.875  0.00  0.00    +0.015 A 
ATOM     17  C   UNL     1      -2.539   4.517 -23.183  0.00  0.00    +0.046 A 
BRANCH  12  19
ATOM     18  C   UNL     1      -5.178   3.963 -24.042  0.00  0.00    +0.277 C 
ATOM     19  O   UNL     1      -4.210   4.537 -24.692  0.00  0.00    -0.495 OA
ENDBRANCH  12  19
ENDBRANCH   1  15
BRANCH   6  20
ATOM     20  O   UNL     1       6.565   3.363 -22.266  0.00  0.00    -0.488 OA
ATOM     21  C   UNL     1       7.422   3.080 -23.202  0.00  0.00    +0.277 C 
ENDBRANCH   6  20
BRANCH  11  22
ATOM     22  O   UNL     1       0.172   1.334 -23.064  0.00  0.00    -0.488 OA
ATOM     23  C   UNL     1      -0.473   1.100 -21.960  0.00  0.00    +0.277 C 
ENDBRANCH  11  22
BRANCH   5  24
ATOM     24  O   UNL     1       5.888   5.773 -22.968  0.00  0.00    -0.422 OA
BRANCH  24  25
ATOM     25  C   UNL     1       6.087   6.528 -21.929  0.00  0.00    +0.309 C 
ATOM     26  O   UNL     1       5.087   7.142 -21.369  0.00  0.00    -0.251 OA
ATOM     27  C   UNL     1       7.288   6.669 -21.447  0.00  0.00    +0.136 C 
ENDBRANCH  24  25
ENDBRANCH   5  24
BRANCH   7  28
ATOM     28  O   UNL     1       4.772   1.482 -22.181  0.00  0.00    -0.421 OA
BRANCH  28  29
ATOM     29  C   UNL     1       5.019   1.214 -20.933  0.00  0.00    +0.309 C 
ATOM     30  O   UNL     1       5.003   2.167 -20.048  0.00  0.00    -0.251 OA
ATOM     31  C   UNL     1       5.283  -0.005 -20.569  0.00  0.00    +0.136 C 
ENDBRANCH  28  29
ENDBRANCH   7  28
TORSDOF 8
ENDMDL
