MODEL 1
REMARK VINA RESULT:    -9.769      0.000      0.000
REMARK INTER + INTRA:          -9.769
REMARK INTER:                  -9.769
REMARK INTRA:                   0.000
REMARK UNBOUND:                 0.000
REMARK  Name = ZINC000071789706
REMARK  2 active torsions:
REMARK  status: ('A' for Active; 'I' for Inactive)
REMARK    1  A    between atoms: C_9  and  C_10
REMARK    2  A    between atoms: C_14  and  C_15
REMARK                            x       y       z     vdW  Elec       q    Type
REMARK                         _______ _______ _______ _____ _____    ______ ____
ROOT
ATOM      1  C   UNL     1       0.167   2.619 -24.406  0.00  0.00    +0.020 C 
ATOM      2  C   UNL     1      -0.413   2.552 -23.245  0.00  0.00    +0.036 C 
ATOM      3  C   UNL     1       0.164   2.257 -22.118  0.00  0.00    +0.335 C 
ATOM      4  O   UNL     1      -0.738   2.291 -21.183  0.00  0.00    -0.455 OA
ATOM      5  C   UNL     1      -1.873   2.608 -21.732  0.00  0.00    +0.216 C 
ATOM      6  C   UNL     1      -3.064   2.771 -21.236  0.00  0.00    +0.192 C 
ATOM      7  O   UNL     1      -4.254   2.933 -20.740  0.00  0.00    -0.361 OA
ATOM      8  C   UNL     1      -4.053   3.095 -22.014  0.00  0.00    +0.097 C 
ATOM      9  C   UNL     1      -3.852   3.256 -23.288  0.00  0.00    +0.041 C 
ATOM     10  C   UNL     1      -4.842   3.580 -24.066  0.00  0.00    +0.030 C 
ATOM     11  C   UNL     1      -4.641   3.741 -25.340  0.00  0.00    -0.028 C 
ATOM     12  C   UNL     1      -3.451   3.579 -25.836  0.00  0.00    -0.077 C 
ATOM     13  C   UNL     1      -2.461   3.255 -25.059  0.00  0.00    +0.031 C 
ATOM     14  C   UNL     1      -2.662   3.093 -23.784  0.00  0.00    +0.016 C 
ATOM     15  C   UNL     1      -3.249   3.740 -27.110  0.00  0.00    +0.039 C 
ATOM     16  C   UNL     1      -5.312   3.375 -22.177  0.00  0.00    +0.044 C 
ATOM     17  O   UNL     1       1.423   1.976 -21.955  0.00  0.00    -0.245 OA
ATOM     18  C   UNL     1      -1.672   2.770 -23.006  0.00  0.00    +0.069 C 
ENDROOT
TORSDOF 0
ENDMDL
