MODEL 1
REMARK VINA RESULT:   -12.456      0.000      0.000
REMARK INTER + INTRA:         -12.456
REMARK INTER:                 -12.456
REMARK INTRA:                   0.000
REMARK UNBOUND:                 0.000
REMARK  Name = C[C@]12CC[C@H]3[C@@H](CC(=O)[C@H]4CC(=O)CC[C@@]43C)[C@@H]1CCC2=O     ZINC000118913916
REMARK  2 active torsions:
REMARK  status: ('A' for Active; 'I' for Inactive)
REMARK    1  A    between atoms: C_1  and  C_2
REMARK    2  A    between atoms: C_16  and  C_17
REMARK                            x       y       z     vdW  Elec       q    Type
REMARK                         _______ _______ _______ _____ _____    ______ ____
ROOT
ATOM      1  C   UNL     1      -4.834   2.900 -21.635  0.00  0.00    +0.019 C 
ATOM      2  C   UNL     1      -3.981   3.169 -22.578  0.00  0.00    +0.029 C 
ATOM      3  C   UNL     1      -3.461   2.565 -21.550  0.00  0.00    +0.015 C 
ATOM      4  C   UNL     1      -2.192   2.284 -21.534  0.00  0.00    +0.005 C 
ATOM      5  C   UNL     1      -1.442   2.608 -22.546  0.00  0.00    -0.001 C 
ATOM      6  C   UNL     1      -1.961   3.212 -23.573  0.00  0.00    +0.004 C 
ATOM      7  C   UNL     1      -1.212   3.536 -24.585  0.00  0.00    +0.078 C 
ATOM      8  C   UNL     1       0.057   3.256 -24.569  0.00  0.00    +0.138 C 
ATOM      9  C   UNL     1       0.577   2.652 -23.541  0.00  0.00    +0.068 C 
ATOM     10  C   UNL     1       1.846   2.371 -23.526  0.00  0.00    +0.086 C 
ATOM     11  C   UNL     1       2.366   1.767 -22.498  0.00  0.00    +0.134 C 
ATOM     12  C   UNL     1       1.616   1.443 -21.487  0.00  0.00    +0.075 C 
ATOM     13  C   UNL     1       0.347   1.724 -21.503  0.00  0.00    +0.015 C 
ATOM     14  O   UNL     1       3.635   1.487 -22.482  0.00  0.00    -0.297 OA
ATOM     15  O   UNL     1       0.808   3.579 -25.580  0.00  0.00    -0.297 OA
ATOM     16  C   UNL     1      -0.173   2.328 -22.530  0.00  0.00    -0.019 C 
ATOM     17  C   UNL     1      -0.923   2.004 -21.519  0.00  0.00    +0.012 C 
ATOM     18  C   UNL     1      -5.194   3.555 -22.838  0.00  0.00    +0.139 C 
ATOM     19  O   UNL     1      -6.227   3.405 -22.062  0.00  0.00    -0.297 OA
ATOM     20  C   UNL     1      -5.195   4.117 -24.010  0.00  0.00    +0.075 C 
ATOM     21  C   UNL     1      -3.982   4.079 -24.474  0.00  0.00    +0.012 C 
ATOM     22  C   UNL     1      -3.231   3.493 -23.589  0.00  0.00    +0.006 C 
ENDROOT
TORSDOF 0
ENDMDL
