MODEL 1
REMARK VINA RESULT:   -13.220      0.000      0.000
REMARK INTER + INTRA:         -13.220
REMARK INTER:                 -13.220
REMARK INTRA:                   0.000
REMARK UNBOUND:                 0.000
REMARK  Name = C[C@]12CC[C@@H]3[C@@H](CC=C4CC5(CC[C@@]43C)OCCO5)[C@H]1CCC2=O        ZINC000253505318
REMARK  2 active torsions:
REMARK  status: ('A' for Active; 'I' for Inactive)
REMARK    1  A    between atoms: C_1  and  C_2
REMARK    2  A    between atoms: C_14  and  C_15
REMARK                            x       y       z     vdW  Elec       q    Type
REMARK                         _______ _______ _______ _____ _____    ______ ____
ROOT
ATOM      1  C   UNL     1      -4.875   2.893 -21.650  0.00  0.00    +0.019 C 
ATOM      2  C   UNL     1      -3.991   3.129 -22.573  0.00  0.00    +0.029 C 
ATOM      3  C   UNL     1      -3.511   2.537 -21.520  0.00  0.00    +0.015 C 
ATOM      4  C   UNL     1      -2.247   2.238 -21.463  0.00  0.00    +0.005 C 
ATOM      5  C   UNL     1      -1.464   2.530 -22.459  0.00  0.00    +0.003 C 
ATOM      6  C   UNL     1      -1.944   3.121 -23.512  0.00  0.00    +0.001 C 
ATOM      7  C   UNL     1      -1.160   3.413 -24.507  0.00  0.00    +0.031 C 
ATOM      8  C   UNL     1       0.103   3.113 -24.450  0.00  0.00    -0.027 C 
ATOM      9  C   UNL     1       0.583   2.521 -23.396  0.00  0.00    -0.062 C 
ATOM     10  C   UNL     1       1.847   2.221 -23.338  0.00  0.00    +0.096 C 
ATOM     11  C   UNL     1       2.327   1.630 -22.285  0.00  0.00    +0.174 C 
ATOM     12  O   UNL     1       2.929   1.041 -21.295  0.00  0.00    -0.346 OA
ATOM     13  C   UNL     1       4.185   0.913 -21.606  0.00  0.00    +0.191 C 
ATOM     14  C   UNL     1       4.359   1.424 -22.788  0.00  0.00    +0.191 C 
ATOM     15  C   UNL     1       1.544   1.338 -21.290  0.00  0.00    +0.066 C 
ATOM     16  C   UNL     1       0.280   1.638 -21.348  0.00  0.00    +0.016 C 
ATOM     17  O   UNL     1       3.212   1.867 -23.209  0.00  0.00    -0.346 OA
ATOM     18  C   UNL     1      -0.200   2.230 -22.401  0.00  0.00    -0.008 C 
ATOM     19  C   UNL     1      -0.984   1.938 -21.405  0.00  0.00    +0.016 C 
ATOM     20  C   UNL     1      -5.191   3.528 -22.875  0.00  0.00    +0.139 C 
ATOM     21  O   UNL     1      -6.247   3.410 -22.128  0.00  0.00    -0.297 OA
ATOM     22  C   UNL     1      -5.149   4.067 -24.058  0.00  0.00    +0.075 C 
ATOM     23  C   UNL     1      -3.924   4.001 -24.487  0.00  0.00    +0.012 C 
ATOM     24  C   UNL     1      -3.208   3.421 -23.570  0.00  0.00    +0.006 C 
ENDROOT
TORSDOF 0
ENDMDL
