MODEL 1
REMARK VINA RESULT:    -7.393      0.000      0.000
REMARK INTER + INTRA:          -8.423
REMARK INTER:                  -8.226
REMARK INTRA:                  -0.197
REMARK UNBOUND:                -0.166
REMARK  Name = ZINC000001705987
REMARK  5 active torsions:
REMARK  status: ('A' for Active; 'I' for Inactive)
REMARK    1  A    between atoms: C_1  and  O_2
REMARK    2  A    between atoms: O_2  and  C_3
REMARK    3  A    between atoms: C_9  and  C_10
REMARK    4  A    between atoms: C_13  and  O_14
REMARK    5  A    between atoms: O_14  and  C_15
REMARK                            x       y       z     vdW  Elec       q    Type
REMARK                         _______ _______ _______ _____ _____    ______ ____
ROOT
ATOM      1  C   UNL     1      -0.760   3.111 -24.268  0.00  0.00    +0.162 A 
ATOM      2  C   UNL     1      -1.776   3.552 -24.949  0.00  0.00    +0.058 A 
ATOM      3  C   UNL     1      -2.953   3.605 -24.401  0.00  0.00    -0.011 A 
ATOM      4  C   UNL     1      -3.968   4.046 -25.082  0.00  0.00    +0.028 A 
ATOM      5  C   UNL     1      -5.146   4.099 -24.533  0.00  0.00    +0.111 A 
ATOM      6  N   UNL     1      -5.308   3.711 -23.303  0.00  0.00    -0.260 NA
ATOM      7  C   UNL     1      -4.292   3.270 -22.621  0.00  0.00    +0.046 A 
ATOM      8  C   UNL     1      -4.455   2.883 -21.391  0.00  0.00    +0.066 C 
ATOM      9  C   UNL     1      -3.115   3.217 -23.171  0.00  0.00    +0.007 A 
ATOM     10  C   UNL     1      -2.100   2.776 -22.489  0.00  0.00    +0.059 A 
ATOM     11  C   UNL     1      -0.922   2.723 -23.038  0.00  0.00    +0.162 A 
ENDROOT
BRANCH   1  13
ATOM     12  C   UNL     1       0.975   4.143 -25.263  0.00  0.00    +0.277 C 
ATOM     13  O   UNL     1       0.417   3.058 -24.816  0.00  0.00    -0.491 OA
ENDBRANCH   1  13
BRANCH  11  14
ATOM     14  O   UNL     1       0.093   2.282 -22.356  0.00  0.00    -0.491 OA
ATOM     15  C   UNL     1      -0.080   1.363 -21.453  0.00  0.00    +0.277 C 
ENDBRANCH  11  14
TORSDOF 2
ENDMDL
