MODEL 1
REMARK VINA RESULT:    -8.857      0.000      0.000
REMARK INTER + INTRA:         -11.260
REMARK INTER:                 -11.146
REMARK INTRA:                  -0.114
REMARK UNBOUND:                -0.073
REMARK  Name = COc1c(O)cc2c(c1O)[C@@H]1O[C@H](CO)[C@@H](O)[C@@H](O)[C@@H]1OC2=O     ZINC000105514848
REMARK  8 active torsions:
REMARK  status: ('A' for Active; 'I' for Inactive)
REMARK    1  A    between atoms: C_1  and  O_2
REMARK    2  A    between atoms: O_2  and  C_3
REMARK    3  A    between atoms: C_4  and  O_5
REMARK    4  A    between atoms: C_9  and  O_10
REMARK    5  A    between atoms: C_13  and  C_14
REMARK    6  A    between atoms: C_14  and  O_15
REMARK    7  A    between atoms: C_16  and  O_17
REMARK    8  A    between atoms: C_18  and  O_19
REMARK                            x       y       z     vdW  Elec       q    Type
REMARK                         _______ _______ _______ _____ _____    ______ ____
ROOT
ATOM      1  C   UNL     1      -2.733   3.759 -25.181  0.00  0.00    +0.203 A 
ATOM      2  C   UNL     1      -3.663   3.930 -24.289  0.00  0.00    +0.163 A 
ATOM      3  C   UNL     1      -3.446   3.595 -23.052  0.00  0.00    +0.064 A 
ATOM      4  C   UNL     1      -2.298   3.090 -22.708  0.00  0.00    +0.072 A 
ATOM      5  C   UNL     1      -1.369   2.920 -23.600  0.00  0.00    +0.044 A 
ATOM      6  C   UNL     1      -0.221   2.415 -23.255  0.00  0.00    +0.196 C 
ATOM      7  O   UNL     1       0.708   2.244 -24.147  0.00  0.00    -0.360 OA
ATOM      8  C   UNL     1       1.856   1.739 -23.802  0.00  0.00    +0.175 C 
ATOM      9  C   UNL     1       2.073   1.404 -22.565  0.00  0.00    +0.178 C 
ATOM     10  C   UNL     1       1.143   1.575 -21.673  0.00  0.00    +0.189 C 
ATOM     11  C   UNL     1      -0.004   2.080 -22.018  0.00  0.00    +0.241 C 
ATOM     12  O   UNL     1      -0.934   2.251 -21.125  0.00  0.00    -0.452 OA
ATOM     13  C   UNL     1      -2.081   2.756 -21.470  0.00  0.00    +0.340 C 
ATOM     14  O   UNL     1      -3.011   2.926 -20.578  0.00  0.00    -0.245 OA
ATOM     15  C   UNL     1      -1.586   3.254 -24.837  0.00  0.00    +0.169 A 
ENDROOT
BRANCH   1  17
ATOM     16  C   UNL     1      -3.557   3.268 -27.219  0.00  0.00    +0.277 C 
ATOM     17  O   UNL     1      -2.950   4.094 -26.419  0.00  0.00    -0.489 OA
ENDBRANCH   1  17
BRANCH  10  18
ATOM     18  O   UNL     1       1.360   1.240 -20.435  0.00  0.00    -0.385 OA
ATOM     19  H   UNL     1       1.229   0.285 -20.332  0.00  0.00    +0.210 HD
ENDBRANCH  10  18
BRANCH   9  20
ATOM     20  O   UNL     1       3.220   0.899 -22.221  0.00  0.00    -0.386 OA
ATOM     21  H   UNL     1       3.710   0.637 -23.015  0.00  0.00    +0.210 HD
ENDBRANCH   9  20
BRANCH  15  22
ATOM     22  O   UNL     1      -0.656   3.084 -25.730  0.00  0.00    -0.503 OA
ATOM     23  H   UNL     1       0.105   2.577 -25.523  0.00  0.00    +0.292 HD
ENDBRANCH  15  22
BRANCH   2  24
ATOM     24  O   UNL     1      -4.810   4.435 -24.634  0.00  0.00    -0.503 OA
ATOM     25  H   UNL     1      -5.119   4.339 -25.514  0.00  0.00    +0.292 HD
ENDBRANCH   2  24
BRANCH   8  26
ATOM     26  C   UNL     1       2.785   1.569 -24.694  0.00  0.00    +0.190 C 
BRANCH  26  27
ATOM     27  O   UNL     1       3.059   0.373 -25.128  0.00  0.00    -0.392 OA
ATOM     28  H   UNL     1       3.420   0.431 -26.027  0.00  0.00    +0.210 HD
ENDBRANCH  26  27
ENDBRANCH   8  26
TORSDOF 7
ENDMDL
