MODEL 1
REMARK VINA RESULT:    -9.085      0.000      0.000
REMARK INTER + INTRA:         -15.917
REMARK INTER:                 -13.447
REMARK INTRA:                  -2.469
REMARK UNBOUND:                -0.990
REMARK  Name = ZINC000085340879
REMARK  15 active torsions:
REMARK  status: ('A' for Active; 'I' for Inactive)
REMARK    1  A    between atoms: C_1  and  C_2
REMARK    2  A    between atoms: C_2  and  C_3
REMARK    3  A    between atoms: C_3  and  C_4
REMARK    4  A    between atoms: C_4  and  C_5
REMARK    5  A    between atoms: C_5  and  C_6
REMARK    6  A    between atoms: C_6  and  C_7
REMARK    7  A    between atoms: C_7  and  C_8
REMARK    8  A    between atoms: C_8  and  C_9
REMARK    9  A    between atoms: C_9  and  C_10
REMARK   10  A    between atoms: C_10  and  C_11
REMARK   11  A    between atoms: C_11  and  C_12
REMARK   12  A    between atoms: C_13  and  O_14
REMARK   13  A    between atoms: C_15  and  O_16
REMARK   14  A    between atoms: C_22  and  C_23
REMARK   15  A    between atoms: C_24  and  C_25
REMARK                            x       y       z     vdW  Elec       q    Type
REMARK                         _______ _______ _______ _____ _____    ______ ____
ROOT
ATOM      1  C   UNL     1       2.807   3.275 -24.186  0.00  0.00    +0.025 A 
ATOM      2  C   UNL     1       3.759   3.969 -23.636  0.00  0.00    +0.164 A 
ATOM      3  C   UNL     1       3.494   5.109 -23.072  0.00  0.00    +0.161 A 
ATOM      4  C   UNL     1       2.274   5.557 -23.057  0.00  0.00    +0.079 A 
ATOM      5  C   UNL     1       1.320   4.866 -23.606  0.00  0.00    +0.094 A 
ATOM      6  N   UNL     1       0.100   5.315 -23.590  0.00  0.00    -0.243 NA
ATOM      7  C   UNL     1      -0.855   4.625 -24.138  0.00  0.00    +0.090 A 
ATOM      8  C   UNL     1      -2.073   5.074 -24.122  0.00  0.00    +0.033 A 
ATOM      9  C   UNL     1      -3.030   4.384 -24.671  0.00  0.00    -0.045 A 
ATOM     10  C   UNL     1      -2.763   3.243 -25.235  0.00  0.00    -0.045 A 
ATOM     11  C   UNL     1      -1.545   2.793 -25.251  0.00  0.00    +0.033 A 
ATOM     12  C   UNL     1      -3.719   2.552 -25.784  0.00  0.00    +0.044 C 
ATOM     13  C   UNL     1      -4.247   4.833 -24.655  0.00  0.00    +0.044 C 
ATOM     14  C   UNL     1      -0.588   3.484 -24.702  0.00  0.00    +0.090 A 
ATOM     15  N   UNL     1       0.631   3.034 -24.719  0.00  0.00    -0.243 NA
ATOM     16  C   UNL     1       1.585   3.725 -24.170  0.00  0.00    +0.097 A 
ENDROOT
BRANCH   2  17
ATOM     17  O   UNL     1       4.979   3.519 -23.652  0.00  0.00    -0.503 OA
ATOM     18  H   UNL     1       5.694   4.108 -23.797  0.00  0.00    +0.292 HD
ENDBRANCH   2  17
BRANCH   3  19
ATOM     19  O   UNL     1       4.447   5.801 -22.524  0.00  0.00    -0.503 OA
ATOM     20  H   UNL     1       5.201   6.041 -23.026  0.00  0.00    +0.292 HD
ENDBRANCH   3  19
BRANCH   1  21
ATOM     21  C   UNL     1       3.071   2.136 -24.750  0.00  0.00    +0.041 C 
BRANCH  21  22
ATOM     22  C   UNL     1       2.773   1.025 -24.143  0.00  0.00    +0.005 C 
BRANCH  22  23
ATOM     23  C   UNL     1       3.297   0.756 -22.983  0.00  0.00    +0.000 C 
BRANCH  23  24
ATOM     24  C   UNL     1       2.527   0.520 -21.962  0.00  0.00    +0.000 C 
BRANCH  24  25
ATOM     25  C   UNL     1       2.100   1.506 -21.229  0.00  0.00    +0.000 C 
BRANCH  25  26
ATOM     26  C   UNL     1       0.887   1.492 -20.763  0.00  0.00    +0.000 C 
BRANCH  26  27
ATOM     27  C   UNL     1      -0.123   1.582 -21.577  0.00  0.00    -0.000 C 
BRANCH  27  28
ATOM     28  C   UNL     1      -1.068   2.445 -21.348  0.00  0.00    -0.000 C 
BRANCH  28  29
ATOM     29  C   UNL     1      -2.308   2.125 -21.567  0.00  0.00    -0.000 C 
BRANCH  29  31
ATOM     30  C   UNL     1      -3.181   3.699 -20.216  0.00  0.00    +0.004 C 
ATOM     31  C   UNL     1      -3.256   2.968 -21.287  0.00  0.00    -0.003 C 
ENDBRANCH  29  31
ENDBRANCH  28  29
ENDBRANCH  27  28
ENDBRANCH  26  27
ENDBRANCH  25  26
ENDBRANCH  24  25
ENDBRANCH  23  24
ENDBRANCH  22  23
ENDBRANCH  21  22
ENDBRANCH   1  21
TORSDOF 12
ENDMDL
