MODEL 1
REMARK VINA RESULT:    -8.620      0.000      0.000
REMARK INTER + INTRA:         -13.987
REMARK INTER:                 -12.369
REMARK INTRA:                  -1.618
REMARK UNBOUND:                -0.832
REMARK  Name = ZINC000096316333
REMARK  9 active torsions:
REMARK  status: ('A' for Active; 'I' for Inactive)
REMARK    1  A    between atoms: N_4  and  C_5
REMARK    2  A    between atoms: C_5  and  C_6
REMARK    3  A    between atoms: C_6  and  C_7
REMARK    4  A    between atoms: C_6  and  N_20
REMARK    5  A    between atoms: C_7  and  CA_8
REMARK    6  A    between atoms: CA_8  and  N_9
REMARK    7  A    between atoms: CA_8  and  C_17
REMARK    8  A    between atoms: N_9  and  C_10
REMARK    9  A    between atoms: C_10  and  C_11
REMARK                            x       y       z     vdW  Elec       q    Type
REMARK                         _______ _______ _______ _____ _____    ______ ____
ROOT
ATOM      1  C   UNL     1       2.118   2.814 -23.723  0.00  0.00    +0.145 C 
ENDROOT
BRANCH   1   2
ATOM      2  C   UNL     1       2.964   3.755 -23.423  0.00  0.00    +0.368 C 
BRANCH   2   3
ATOM      3  N   UNL     1       2.561   4.988 -23.336  0.00  0.00    +0.045 N 
ATOM      4  O   UNL     1       1.514   5.377 -24.002  0.00  0.00    -0.581 OA
ATOM      5  O   UNL     1       3.204   5.831 -22.585  0.00  0.00    +0.035 OA
ENDBRANCH   2   3
BRANCH   2   6
ATOM      6  C   UNL     1       4.213   3.463 -23.210  0.00  0.00    +0.277 C 
BRANCH   6  11
ATOM      7  N   UNL     1       5.298   1.205 -22.514  0.00  0.00    -0.292 N 
ATOM      8  H   UNL     1       4.971   1.332 -23.435  0.00  0.00    +0.255 HD
ATOM      9  H   UNL     1       5.708   0.350 -22.251  0.00  0.00    +0.255 HD
ATOM     10  C   UNL     1       5.185   2.167 -21.647  0.00  0.00    +0.341 C 
ATOM     11  N   UNL     1       4.643   3.296 -21.994  0.00  0.00    -0.272 N 
ATOM     12  H   UNL     1       4.559   4.024 -21.338  0.00  0.00    +0.258 HD
ATOM     13  N   UNL     1       5.616   2.000 -20.432  0.00  0.00    -0.292 N 
ATOM     14  H   UNL     1       5.531   2.729 -19.775  0.00  0.00    +0.255 HD
ATOM     15  H   UNL     1       6.027   1.145 -20.168  0.00  0.00    +0.255 HD
ENDBRANCH   6  11
ENDBRANCH   2   6
ENDBRANCH   1   2
BRANCH   1  16
ATOM     16  CA  UNL     1       1.362   2.302 -22.798  0.00  0.00    +0.116 C 
BRANCH  16  17
ATOM     17  C   UNL     1       1.756   1.249 -22.144  0.00  0.00    +0.090 C 
ATOM     18  OXT UNL     1       2.233   0.226 -22.788  0.00  0.00    -0.544 OA
ATOM     19  O   UNL     1       1.673   1.222 -20.848  0.00  0.00    -0.544 OA
ENDBRANCH  16  17
BRANCH  16  20
ATOM     20  N   UNL     1       0.210   2.842 -22.526  0.00  0.00    +0.237 N 
ATOM     21  H1  UNL     1       0.119   2.704 -21.520  0.00  0.00    +0.202 HD
ATOM     22  H2  UNL     1       0.249   3.802 -22.867  0.00  0.00    +0.202 HD
BRANCH  20  23
ATOM     23  C   UNL     1      -0.881   2.318 -23.001  0.00  0.00    +0.166 C 
BRANCH  23  24
ATOM     24  C   UNL     1      -2.035   2.687 -22.532  0.00  0.00    -0.003 A 
ATOM     25  C   UNL     1      -3.008   2.971 -23.347  0.00  0.00    +0.009 A 
ATOM     26  C   UNL     1      -4.163   3.339 -22.877  0.00  0.00    +0.000 A 
ATOM     27  C   UNL     1      -4.346   3.425 -21.593  0.00  0.00    +0.000 A 
ATOM     28  C   UNL     1      -3.374   3.141 -20.779  0.00  0.00    +0.000 A 
ATOM     29  C   UNL     1      -2.219   2.772 -21.248  0.00  0.00    +0.009 A 
ENDBRANCH  23  24
ENDBRANCH  20  23
ENDBRANCH  16  20
ENDBRANCH   1  16
TORSDOF 9
ENDMDL
