MODEL 1
REMARK VINA RESULT:    -7.364      0.000      0.000
REMARK INTER + INTRA:          -8.081
REMARK INTER:                  -8.007
REMARK INTRA:                  -0.075
REMARK UNBOUND:                -0.072
REMARK  Name = ZINC000000336322
REMARK  4 active torsions:
REMARK  status: ('A' for Active; 'I' for Inactive)
REMARK    1  A    between atoms: C_1  and  O_2
REMARK    2  A    between atoms: O_2  and  C_3
REMARK    3  A    between atoms: C_5  and  O_6
REMARK    4  A    between atoms: C_11  and  C_12
REMARK                            x       y       z     vdW  Elec       q    Type
REMARK                         _______ _______ _______ _____ _____    ______ ____
ROOT
ATOM      1  C   UNL     1      -1.763   2.615 -21.803  0.00  0.00    +0.127 A 
ATOM      2  C   UNL     1      -2.906   2.981 -21.302  0.00  0.00    +0.092 A 
ATOM      3  C   UNL     1      -3.870   3.357 -22.087  0.00  0.00    +0.135 A 
ATOM      4  C   UNL     1      -3.693   3.367 -23.376  0.00  0.00    +0.105 A 
ATOM      5  C   UNL     1      -4.658   3.743 -24.161  0.00  0.00    +0.196 A 
ATOM      6  C   UNL     1      -4.480   3.753 -25.449  0.00  0.00    +0.093 A 
ATOM      7  C   UNL     1      -3.338   3.387 -25.951  0.00  0.00    +0.106 A 
ATOM      8  O   UNL     1      -2.374   3.011 -25.165  0.00  0.00    -0.459 OA
ATOM      9  C   UNL     1      -3.161   3.397 -27.239  0.00  0.00    +0.086 C 
ATOM     10  O   UNL     1      -5.800   4.109 -23.660  0.00  0.00    -0.287 OA
ATOM     11  C   UNL     1      -2.551   3.001 -23.877  0.00  0.00    +0.146 A 
ATOM     12  C   UNL     1      -1.586   2.625 -23.091  0.00  0.00    +0.092 A 
ENDROOT
BRANCH   1  14
ATOM     13  C   UNL     1       0.167   1.502 -21.480  0.00  0.00    +0.277 C 
ATOM     14  O   UNL     1      -0.799   2.239 -21.017  0.00  0.00    -0.495 OA
ENDBRANCH   1  14
BRANCH   3  15
ATOM     15  O   UNL     1      -5.012   3.722 -21.586  0.00  0.00    -0.506 OA
ATOM     16  H   UNL     1      -5.601   3.079 -21.243  0.00  0.00    +0.292 HD
ENDBRANCH   3  15
TORSDOF 2
ENDMDL
