MODEL 1
REMARK VINA RESULT:    -9.042      0.000      0.000
REMARK INTER + INTRA:         -10.963
REMARK INTER:                 -12.043
REMARK INTRA:                   1.080
REMARK UNBOUND:                 1.249
REMARK  Name = ZINC000004610557
REMARK  12 active torsions:
REMARK  status: ('A' for Active; 'I' for Inactive)
REMARK    1  A    between atoms: C_1  and  C_2
REMARK    2  A    between atoms: C_2  and  N_3
REMARK    3  A    between atoms: C_8  and  O_9
REMARK    4  A    between atoms: O_9  and  C_10
REMARK    5  A    between atoms: C_11  and  O_12
REMARK    6  A    between atoms: O_12  and  C_13
REMARK    7  A    between atoms: C_16  and  C_17
REMARK    8  A    between atoms: C_17  and  C_18
REMARK    9  A    between atoms: C_21  and  O_22
REMARK   10  A    between atoms: O_22  and  C_23
REMARK   11  A    between atoms: C_24  and  O_25
REMARK   12  A    between atoms: O_25  and  C_26
REMARK                            x       y       z     vdW  Elec       q    Type
REMARK                         _______ _______ _______ _____ _____    ______ ____
ROOT
ATOM      1  N   UNL     1       0.723   1.719 -22.019  0.00  0.00    +0.241 N 
ATOM      2  H   UNL     1       1.347   1.195 -21.404  0.00  0.00    +0.204 HD
ATOM      3  C   UNL     1      -0.127   1.292 -21.133  0.00  0.00    +0.136 C 
ATOM      4  C   UNL     1      -1.386   1.598 -21.238  0.00  0.00    +0.086 C 
ATOM      5  C   UNL     1      -1.795   2.331 -22.231  0.00  0.00    -0.030 A 
ATOM      6  C   UNL     1      -3.054   2.637 -22.338  0.00  0.00    +0.053 A 
ATOM      7  C   UNL     1      -3.463   3.369 -23.331  0.00  0.00    +0.162 A 
ATOM      8  C   UNL     1      -2.613   3.796 -24.218  0.00  0.00    +0.162 A 
ATOM      9  C   UNL     1      -1.354   3.489 -24.111  0.00  0.00    +0.058 A 
ATOM     10  C   UNL     1      -0.945   2.757 -23.118  0.00  0.00    +0.008 A 
ATOM     11  C   UNL     1       0.313   2.451 -23.012  0.00  0.00    +0.100 C 
ENDROOT
BRANCH   8  12
ATOM     12  O   UNL     1      -3.022   4.528 -25.211  0.00  0.00    -0.491 OA
ATOM     13  C   UNL     1      -3.329   3.972 -26.346  0.00  0.00    +0.277 C 
ENDBRANCH   8  12
BRANCH   7  14
ATOM     14  O   UNL     1      -4.722   3.676 -23.438  0.00  0.00    -0.491 OA
ATOM     15  C   UNL     1      -5.540   3.411 -22.462  0.00  0.00    +0.277 C 
ENDBRANCH   7  14
BRANCH   1  17
ATOM     16  C   UNL     1       2.567   1.460 -20.752  0.00  0.00    +0.060 C 
ATOM     17  C   UNL     1       1.982   1.412 -21.912  0.00  0.00    +0.128 C 
ENDBRANCH   1  17
BRANCH  11  18
ATOM     18  C   UNL     1       1.164   2.877 -23.899  0.00  0.00    +0.094 C 
BRANCH  18  19
ATOM     19  C   UNL     1       2.081   3.734 -23.561  0.00  0.00    -0.038 A 
ATOM     20  C   UNL     1       1.746   4.938 -23.202  0.00  0.00    +0.007 A 
ATOM     21  C   UNL     1       2.663   5.795 -22.864  0.00  0.00    +0.049 A 
ATOM     22  C   UNL     1       3.916   5.448 -22.884  0.00  0.00    +0.161 A 
ATOM     23  C   UNL     1       4.251   4.244 -23.242  0.00  0.00    +0.162 A 
ATOM     24  C   UNL     1       3.334   3.388 -23.580  0.00  0.00    +0.053 A 
BRANCH  22  25
ATOM     25  O   UNL     1       4.833   6.304 -22.546  0.00  0.00    -0.491 OA
ATOM     26  C   UNL     1       4.499   7.428 -21.984  0.00  0.00    +0.277 C 
ENDBRANCH  22  25
BRANCH  23  27
ATOM     27  O   UNL     1       5.504   3.897 -23.262  0.00  0.00    -0.491 OA
ATOM     28  C   UNL     1       5.909   2.886 -22.553  0.00  0.00    +0.277 C 
ENDBRANCH  23  27
ENDBRANCH  18  19
ENDBRANCH  11  18
TORSDOF 7
ENDMDL
