MODEL 1
REMARK VINA RESULT:    -8.950      0.000      0.000
REMARK INTER + INTRA:         -14.041
REMARK INTER:                 -13.085
REMARK INTRA:                  -0.956
REMARK UNBOUND:                -0.643
REMARK  Name = ZINC000004492887
REMARK  12 active torsions:
REMARK  status: ('A' for Active; 'I' for Inactive)
REMARK    1  A    between atoms: C_1  and  C_2
REMARK    2  A    between atoms: C_2  and  C_17
REMARK    3  A    between atoms: C_3  and  C_4
REMARK    4  A    between atoms: C_4  and  O_5
REMARK    5  A    between atoms: O_5  and  C_6
REMARK    6  A    between atoms: C_17  and  C_18
REMARK    7  A    between atoms: C_18  and  C_19
REMARK    8  A    between atoms: C_19  and  O_20
REMARK    9  A    between atoms: C_19  and  C_21
REMARK   10  A    between atoms: C_21  and  C_22
REMARK   11  A    between atoms: C_21  and  C_23
REMARK   12  A    between atoms: C_21  and  O_24
REMARK                            x       y       z     vdW  Elec       q    Type
REMARK                         _______ _______ _______ _____ _____    ______ ____
ROOT
ATOM      1  C   UNL     1       0.165   4.886 -23.589  0.00  0.00    +0.256 C 
ENDROOT
BRANCH   1   4
ATOM      2  C   UNL     1       1.130   3.392 -25.485  0.00  0.00    +0.039 C 
ATOM      3  C   UNL     1       1.534   3.230 -24.260  0.00  0.00    -0.073 C 
ATOM      4  C   UNL     1       1.051   3.977 -23.312  0.00  0.00    +0.012 C 
BRANCH   3   5
ATOM      5  C   UNL     1       2.421   2.320 -23.983  0.00  0.00    +0.033 C 
BRANCH   5   6
ATOM      6  C   UNL     1       2.566   1.904 -22.761  0.00  0.00    +0.038 C 
BRANCH   6   7
ATOM      7  C   UNL     1       3.076   0.731 -22.530  0.00  0.00    +0.146 C 
BRANCH   7   8
ATOM      8  C   UNL     1       4.118   0.615 -21.761  0.00  0.00    +0.086 C 
ATOM      9  C   UNL     1       5.272   1.064 -22.157  0.00  0.00    +0.043 C 
ATOM     10  C   UNL     1       4.655   0.222 -20.643  0.00  0.00    +0.043 C 
BRANCH   8  11
ATOM     11  O   UNL     1       3.387   0.029 -20.859  0.00  0.00    -0.387 OA
ATOM     12  H   UNL     1       3.237   0.639 -20.120  0.00  0.00    +0.210 HD
ENDBRANCH   8  11
ENDBRANCH   7   8
BRANCH   7  13
ATOM     13  O   UNL     1       2.546  -0.327 -23.068  0.00  0.00    -0.389 OA
ATOM     14  H   UNL     1       2.873  -1.120 -22.615  0.00  0.00    +0.210 HD
ENDBRANCH   7  13
ENDBRANCH   6   7
ENDBRANCH   5   6
ENDBRANCH   3   5
ENDBRANCH   1   4
BRANCH   1  15
ATOM     15  O   UNL     1      -0.886   5.021 -22.835  0.00  0.00    -0.487 OA
BRANCH  15  16
ATOM     16  C   UNL     1      -2.016   4.487 -23.193  0.00  0.00    +0.135 A 
ATOM     17  C   UNL     1      -2.376   4.506 -24.441  0.00  0.00    +0.116 A 
ATOM     18  C   UNL     1      -3.507   3.972 -24.800  0.00  0.00    +0.253 A 
ATOM     19  N   UNL     1      -4.276   3.420 -23.909  0.00  0.00    -0.322 N 
ATOM     20  H   UNL     1      -5.132   3.016 -24.181  0.00  0.00    +0.169 HD
ATOM     21  C   UNL     1      -3.916   3.401 -22.661  0.00  0.00    +0.053 A 
ATOM     22  C   UNL     1      -4.685   2.849 -21.770  0.00  0.00    +0.026 A 
ATOM     23  C   UNL     1      -4.324   2.830 -20.521  0.00  0.00    +0.002 A 
ATOM     24  C   UNL     1      -3.194   3.363 -20.163  0.00  0.00    +0.001 A 
ATOM     25  C   UNL     1      -2.425   3.916 -21.053  0.00  0.00    +0.013 A 
ATOM     26  O   UNL     1      -3.867   3.991 -26.049  0.00  0.00    -0.268 OA
ATOM     27  C   UNL     1      -2.786   3.935 -22.303  0.00  0.00    +0.040 A 
ENDBRANCH  15  16
ENDBRANCH   1  15
TORSDOF 9
ENDMDL
