MODEL 1
REMARK VINA RESULT:   -11.314      0.000      0.000
REMARK INTER + INTRA:         -12.337
REMARK INTER:                 -12.186
REMARK INTRA:                  -0.150
REMARK UNBOUND:                -0.031
REMARK  Name = COc1ccc2c3c1O[C@]1(C)[C@H](O)C=C[C@H]4[C@@H](C2)N(C)CC[C@@]341       ZINC000253504999
REMARK  5 active torsions:
REMARK  status: ('A' for Active; 'I' for Inactive)
REMARK    1  A    between atoms: C_1  and  O_2
REMARK    2  A    between atoms: O_2  and  C_3
REMARK    3  A    between atoms: C_10  and  C_11
REMARK    4  A    between atoms: C_12  and  O_13
REMARK    5  A    between atoms: N_19  and  C_20
REMARK                            x       y       z     vdW  Elec       q    Type
REMARK                         _______ _______ _______ _____ _____    ______ ____
ROOT
ATOM      1  C   UNL     1       0.440   2.251 -23.351  0.00  0.00    +0.162 A 
ATOM      2  C   UNL     1       0.405   1.894 -22.138  0.00  0.00    +0.050 A 
ATOM      3  C   UNL     1      -0.666   1.947 -21.490  0.00  0.00    +0.008 A 
ATOM      4  C   UNL     1      -1.713   2.358 -22.047  0.00  0.00    -0.034 A 
ATOM      5  C   UNL     1      -1.697   2.718 -23.255  0.00  0.00    +0.012 A 
ATOM      6  C   UNL     1      -2.742   3.126 -23.808  0.00  0.00    +0.058 C 
ATOM      7  C   UNL     1      -3.865   3.607 -24.541  0.00  0.00    +0.067 C 
ATOM      8  C   UNL     1      -5.086   3.679 -23.837  0.00  0.00    +0.132 C 
ATOM      9  N   UNL     1      -5.087   3.272 -22.486  0.00  0.00    +0.236 N 
ATOM     10  H   UNL     1      -5.941   3.303 -21.929  0.00  0.00    +0.203 HD
ATOM     11  C   UNL     1      -6.127   3.305 -21.792  0.00  0.00    +0.190 C 
ATOM     12  C   UNL     1      -3.845   2.823 -21.949  0.00  0.00    +0.076 C 
ATOM     13  C   UNL     1      -3.813   3.181 -23.163  0.00  0.00    +0.075 C 
ATOM     14  C   UNL     1      -4.868   3.594 -23.723  0.00  0.00    -0.019 C 
ATOM     15  C   UNL     1      -4.844   3.949 -24.924  0.00  0.00    +0.004 C 
ATOM     16  C   UNL     1      -3.765   3.897 -25.581  0.00  0.00    +0.181 C 
ATOM     17  C   UNL     1      -2.720   3.489 -25.029  0.00  0.00    +0.148 C 
ATOM     18  C   UNL     1      -2.411   3.772 -26.208  0.00  0.00    +0.060 C 
ATOM     19  O   UNL     1      -1.247   3.189 -25.170  0.00  0.00    -0.478 OA
ATOM     20  C   UNL     1      -2.803   2.414 -21.392  0.00  0.00    +0.090 C 
ATOM     21  C   UNL     1      -0.619   2.665 -23.911  0.00  0.00    +0.167 A 
ENDROOT
BRANCH   1  23
ATOM     22  C   UNL     1       2.199   3.228 -24.159  0.00  0.00    +0.277 C 
ATOM     23  O   UNL     1       1.512   2.195 -23.993  0.00  0.00    -0.491 OA
ENDBRANCH   1  23
BRANCH  16  24
ATOM     24  O   UNL     1      -3.743   4.253 -26.782  0.00  0.00    -0.384 OA
ATOM     25  H   UNL     1      -3.204   3.630 -27.294  0.00  0.00    +0.210 HD
ENDBRANCH  16  24
TORSDOF 2
ENDMDL
