MODEL 1
REMARK VINA RESULT:   -11.634      0.000      0.000
REMARK INTER + INTRA:         -11.972
REMARK INTER:                 -12.778
REMARK INTRA:                   0.806
REMARK UNBOUND:                 1.022
REMARK  Name = ZINC000000265529
REMARK  5 active torsions:
REMARK  status: ('A' for Active; 'I' for Inactive)
REMARK    1  A    between atoms: C_1  and  C_2
REMARK    2  A    between atoms: C_2  and  O_4
REMARK    3  A    between atoms: O_4  and  C_5
REMARK    4  A    between atoms: C_18  and  C_19
REMARK    5  A    between atoms: C_23  and  C_24
REMARK                            x       y       z     vdW  Elec       q    Type
REMARK                         _______ _______ _______ _____ _____    ______ ____
ROOT
ATOM      1  C   UNL     1       1.953   3.165 -23.703  0.00  0.00    +0.183 C 
ATOM      2  C   UNL     1       1.853   3.799 -24.834  0.00  0.00    +0.045 C 
ATOM      3  C   UNL     1       0.594   4.043 -25.047  0.00  0.00    +0.008 C 
ATOM      4  C   UNL     1      -0.084   3.562 -24.048  0.00  0.00    +0.002 C 
ATOM      5  C   UNL     1      -1.358   3.547 -23.787  0.00  0.00    -0.003 C 
ATOM      6  C   UNL     1      -2.198   4.089 -24.617  0.00  0.00    +0.008 C 
ATOM      7  C   UNL     1      -3.471   4.075 -24.357  0.00  0.00    +0.032 C 
ATOM      8  C   UNL     1      -3.904   3.518 -23.266  0.00  0.00    -0.060 C 
ATOM      9  C   UNL     1      -5.178   3.503 -23.004  0.00  0.00    +0.046 C 
ATOM     10  C   UNL     1      -5.612   2.946 -21.914  0.00  0.00    +0.156 C 
ATOM     11  C   UNL     1      -4.772   2.403 -21.083  0.00  0.00    +0.080 C 
ATOM     12  C   UNL     1      -3.498   2.418 -21.344  0.00  0.00    +0.019 C 
ATOM     13  O   UNL     1      -6.885   2.931 -21.653  0.00  0.00    -0.293 OA
ATOM     14  C   UNL     1      -3.064   2.975 -22.435  0.00  0.00    -0.007 C 
ATOM     15  C   UNL     1      -2.224   2.432 -21.604  0.00  0.00    +0.016 C 
ATOM     16  C   UNL     1      -1.791   2.990 -22.695  0.00  0.00    +0.002 C 
ATOM     17  C   UNL     1      -0.951   2.447 -21.864  0.00  0.00    +0.005 C 
ATOM     18  C   UNL     1       0.322   2.462 -22.125  0.00  0.00    +0.011 C 
ATOM     19  C   UNL     1       0.756   3.019 -23.217  0.00  0.00    +0.008 C 
ATOM     20  C   UNL     1       1.694   2.514 -22.472  0.00  0.00    +0.015 C 
ENDROOT
BRANCH   1  21
ATOM     21  O   UNL     1       3.056   2.751 -23.153  0.00  0.00    -0.461 OA
BRANCH  21  23
ATOM     22  C   UNL     1       5.229   3.029 -23.674  0.00  0.00    +0.136 C 
ATOM     23  C   UNL     1       4.119   3.499 -23.187  0.00  0.00    +0.304 C 
ATOM     24  O   UNL     1       4.072   4.717 -22.734  0.00  0.00    -0.251 OA
ENDBRANCH  21  23
ENDBRANCH   1  21
TORSDOF 2
ENDMDL
