MODEL 1
REMARK VINA RESULT:    -7.929      0.000      0.000
REMARK INTER + INTRA:          -9.812
REMARK INTER:                  -9.412
REMARK INTRA:                  -0.400
REMARK UNBOUND:                -0.492
REMARK  Name = ZINC000001870371
REMARK  3 active torsions:
REMARK  status: ('A' for Active; 'I' for Inactive)
REMARK    1  A    between atoms: C_2  and  C_4
REMARK    2  A    between atoms: C_5  and  C_6
REMARK    3  A    between atoms: C_7  and  C_8
REMARK                            x       y       z     vdW  Elec       q    Type
REMARK                         _______ _______ _______ _____ _____    ______ ____
ROOT
ATOM      1  C   UNL     1      -2.421   2.628 -21.707  0.00  0.00    -0.021 A 
ATOM      2  C   UNL     1      -3.524   2.611 -21.020  0.00  0.00    +0.012 A 
ATOM      3  C   UNL     1      -4.638   2.995 -21.570  0.00  0.00    +0.050 A 
ATOM      4  C   UNL     1      -4.648   3.396 -22.807  0.00  0.00    +0.166 A 
ATOM      5  C   UNL     1      -3.544   3.413 -23.494  0.00  0.00    +0.167 A 
ATOM      6  O   UNL     1      -3.821   3.849 -24.687  0.00  0.00    -0.453 OA
ATOM      7  C   UNL     1      -5.095   4.101 -24.738  0.00  0.00    +0.466 C 
ATOM      8  O   UNL     1      -5.606   3.822 -23.576  0.00  0.00    -0.453 OA
ATOM      9  C   UNL     1      -2.431   3.028 -22.943  0.00  0.00    +0.057 A 
ENDROOT
BRANCH   1  11
ATOM     10  C   UNL     1      -0.311   1.868 -21.902  0.00  0.00    +0.001 C 
ATOM     11  C   UNL     1      -1.307   2.244 -21.157  0.00  0.00    +0.008 C 
BRANCH  10  13
ATOM     12  C   UNL     1       1.936   1.728 -21.941  0.00  0.00    +0.024 C 
ATOM     13  C   UNL     1       0.803   1.484 -21.353  0.00  0.00    +0.002 C 
BRANCH  12  15
ATOM     14  O   UNL     1       3.285   0.078 -21.213  0.00  0.00    -0.545 OA
ATOM     15  C   UNL     1       3.050   1.344 -21.391  0.00  0.00    +0.065 C 
ATOM     16  O   UNL     1       3.930   2.227 -21.019  0.00  0.00    -0.545 OA
ENDBRANCH  12  15
ENDBRANCH  10  13
ENDBRANCH   1  11
TORSDOF 3
ENDMDL
