MODEL 1
REMARK VINA RESULT:   -10.531      0.000      0.000
REMARK INTER + INTRA:         -10.839
REMARK INTER:                 -10.839
REMARK INTRA:                   0.000
REMARK UNBOUND:                 0.000
REMARK  Name = ZINC000032106796
REMARK  3 active torsions:
REMARK  status: ('A' for Active; 'I' for Inactive)
REMARK    1  A    between atoms: C_8  and  C_9
REMARK    2  A    between atoms: C_10  and  O_11
REMARK    3  A    between atoms: C_14  and  C_15
REMARK                            x       y       z     vdW  Elec       q    Type
REMARK                         _______ _______ _______ _____ _____    ______ ____
ROOT
ATOM      1  C   UNL     1       0.644   1.504 -21.210  0.00  0.00    +0.020 C 
ATOM      2  C   UNL     1      -0.082   1.948 -22.195  0.00  0.00    +0.036 C 
ATOM      3  C   UNL     1       0.318   2.119 -23.424  0.00  0.00    +0.336 C 
ATOM      4  O   UNL     1      -0.685   2.576 -24.118  0.00  0.00    -0.453 OA
ATOM      5  C   UNL     1      -1.707   2.687 -23.316  0.00  0.00    +0.207 C 
ATOM      6  C   UNL     1      -2.791   3.046 -23.490  0.00  0.00    +0.019 C 
ATOM      7  C   UNL     1      -3.210   3.440 -24.649  0.00  0.00    -0.045 C 
ATOM      8  C   UNL     1      -4.512   3.860 -24.810  0.00  0.00    +0.144 C 
ATOM      9  C   UNL     1      -5.464   3.893 -23.761  0.00  0.00    +0.063 C 
ATOM     10  C   UNL     1      -5.205   3.517 -22.481  0.00  0.00    -0.025 C 
ATOM     11  C   UNL     1      -4.078   3.137 -22.274  0.00  0.00    -0.076 C 
ATOM     12  C   UNL     1      -3.575   2.725 -21.143  0.00  0.00    +0.031 C 
ATOM     13  C   UNL     1      -2.236   2.313 -21.061  0.00  0.00    +0.016 C 
ATOM     14  C   UNL     1      -3.464   3.155 -23.116  0.00  0.00    +0.039 C 
ATOM     15  C   UNL     1      -2.394   3.442 -25.675  0.00  0.00    +0.041 C 
ATOM     16  O   UNL     1       1.514   1.877 -23.884  0.00  0.00    -0.245 OA
ATOM     17  C   UNL     1      -1.336   2.300 -22.131  0.00  0.00    +0.070 C 
ENDROOT
BRANCH   8  18
ATOM     18  O   UNL     1      -4.890   4.251 -26.002  0.00  0.00    -0.387 OA
ATOM     19  H   UNL     1      -5.551   3.632 -26.351  0.00  0.00    +0.210 HD
ENDBRANCH   8  18
TORSDOF 1
ENDMDL
