MODEL 1
REMARK VINA RESULT:    -9.187      0.000      0.000
REMARK INTER + INTRA:         -10.712
REMARK INTER:                 -10.262
REMARK INTRA:                  -0.450
REMARK UNBOUND:                -0.451
REMARK  Name = ZINC000000057658
REMARK  3 active torsions:
REMARK  status: ('A' for Active; 'I' for Inactive)
REMARK    1  A    between atoms: C_4  and  C_5
REMARK    2  A    between atoms: C_8  and  O_9
REMARK    3  A    between atoms: C_15  and  O_16
REMARK                            x       y       z     vdW  Elec       q    Type
REMARK                         _______ _______ _______ _____ _____    ______ ____
ROOT
ATOM      1  O   UNL     1      -3.770   2.616 -20.373  0.00  0.00    -0.287 OA
ATOM      2  C   UNL     1      -3.030   2.790 -21.428  0.00  0.00    +0.193 A 
ATOM      3  C   UNL     1      -1.754   2.551 -21.373  0.00  0.00    +0.098 A 
ATOM      4  C   UNL     1      -1.014   2.724 -22.428  0.00  0.00    +0.139 A 
ATOM      5  O   UNL     1      -1.550   3.136 -23.537  0.00  0.00    -0.454 OA
ATOM      6  C   UNL     1      -2.827   3.375 -23.592  0.00  0.00    +0.143 A 
ATOM      7  C   UNL     1      -3.364   3.788 -24.702  0.00  0.00    +0.092 A 
ATOM      8  C   UNL     1      -4.641   4.026 -24.757  0.00  0.00    +0.120 A 
ATOM      9  C   UNL     1      -5.381   3.853 -23.703  0.00  0.00    +0.046 A 
ATOM     10  C   UNL     1      -4.844   3.441 -22.593  0.00  0.00    +0.019 A 
ATOM     11  C   UNL     1      -3.567   3.202 -22.537  0.00  0.00    +0.064 A 
ENDROOT
BRANCH   4  12
ATOM     12  C   UNL     1       0.264   2.485 -22.372  0.00  0.00    +0.018 A 
ATOM     13  C   UNL     1       1.086   3.179 -23.102  0.00  0.00    +0.015 A 
ATOM     14  C   UNL     1       2.363   2.940 -23.047  0.00  0.00    +0.046 A 
ATOM     15  C   UNL     1       2.816   2.007 -22.262  0.00  0.00    +0.117 A 
ATOM     16  C   UNL     1       1.993   1.315 -21.533  0.00  0.00    +0.046 A 
ATOM     17  C   UNL     1       0.717   1.553 -21.588  0.00  0.00    +0.015 A 
BRANCH  15  18
ATOM     18  O   UNL     1       4.092   1.769 -22.207  0.00  0.00    -0.507 OA
ATOM     19  H   UNL     1       4.436   1.203 -21.544  0.00  0.00    +0.292 HD
ENDBRANCH  15  18
ENDBRANCH   4  12
BRANCH   8  20
ATOM     20  O   UNL     1      -5.177   4.438 -25.867  0.00  0.00    -0.507 OA
ATOM     21  H   UNL     1      -4.988   5.298 -26.188  0.00  0.00    +0.292 HD
ENDBRANCH   8  20
TORSDOF 3
ENDMDL
