MODEL 1
REMARK VINA RESULT:   -10.967      0.000      0.000
REMARK INTER + INTRA:         -11.608
REMARK INTER:                 -11.608
REMARK INTRA:                   0.000
REMARK UNBOUND:                 0.000
REMARK  Name = ZINC000003830763
REMARK  3 active torsions:
REMARK  status: ('A' for Active; 'I' for Inactive)
REMARK    1  A    between atoms: C_1  and  C_2
REMARK    2  A    between atoms: C_9  and  O_10
REMARK    3  A    between atoms: C_19  and  O_20
REMARK                            x       y       z     vdW  Elec       q    Type
REMARK                         _______ _______ _______ _____ _____    ______ ____
ROOT
ATOM      1  C   UNL     1      -4.531   3.836 -23.904  0.00  0.00    +0.014 C 
ATOM      2  C   UNL     1      -3.686   3.276 -23.090  0.00  0.00    -0.003 C 
ATOM      3  C   UNL     1      -3.172   3.613 -24.236  0.00  0.00    +0.010 C 
ATOM      4  C   UNL     1      -1.917   3.380 -24.479  0.00  0.00    +0.009 C 
ATOM      5  C   UNL     1      -1.175   2.811 -23.576  0.00  0.00    +0.023 C 
ATOM      6  C   UNL     1       0.081   2.578 -23.818  0.00  0.00    -0.041 A 
ATOM      7  C   UNL     1       0.595   2.914 -24.963  0.00  0.00    +0.008 A 
ATOM      8  C   UNL     1       1.851   2.682 -25.207  0.00  0.00    +0.046 A 
ATOM      9  C   UNL     1       2.593   2.112 -24.303  0.00  0.00    +0.117 A 
ATOM     10  C   UNL     1       2.079   1.775 -23.157  0.00  0.00    +0.049 A 
ATOM     11  C   UNL     1       0.823   2.008 -22.915  0.00  0.00    -0.040 A 
ATOM     12  C   UNL     1       0.308   1.672 -21.769  0.00  0.00    +0.036 C 
ATOM     13  C   UNL     1      -0.947   1.905 -21.527  0.00  0.00    +0.009 C 
ATOM     14  C   UNL     1      -1.689   2.474 -22.429  0.00  0.00    +0.000 C 
ATOM     15  C   UNL     1      -4.887   3.395 -22.607  0.00  0.00    +0.121 C 
ATOM     16  C   UNL     1      -4.888   2.900 -21.405  0.00  0.00    +0.032 C 
ATOM     17  C   UNL     1      -3.686   2.474 -21.146  0.00  0.00    +0.007 C 
ATOM     18  C   UNL     1      -2.944   2.707 -22.187  0.00  0.00    +0.001 C 
ENDROOT
BRANCH   9  19
ATOM     19  O   UNL     1       3.848   1.879 -24.546  0.00  0.00    -0.507 OA
ATOM     20  H   UNL     1       4.474   1.911 -23.850  0.00  0.00    +0.292 HD
ENDBRANCH   9  19
BRANCH  15  21
ATOM     21  O   UNL     1      -5.908   3.918 -23.218  0.00  0.00    -0.391 OA
ATOM     22  H   UNL     1      -6.644   3.286 -23.217  0.00  0.00    +0.210 HD
ENDBRANCH  15  21
TORSDOF 2
ENDMDL
