MODEL 1
REMARK VINA RESULT:    -7.754      0.000      0.000
REMARK INTER + INTRA:          -8.865
REMARK INTER:                  -8.663
REMARK INTRA:                  -0.202
REMARK UNBOUND:                -0.205
REMARK  Name = ZINC000001669445
REMARK  6 active torsions:
REMARK  status: ('A' for Active; 'I' for Inactive)
REMARK    1  A    between atoms: C_1  and  O_2
REMARK    2  A    between atoms: O_2  and  C_3
REMARK    3  A    between atoms: C_8  and  O_9
REMARK    4  A    between atoms: O_9  and  C_10
REMARK    5  A    between atoms: C_11  and  C_12
REMARK    6  A    between atoms: N_13  and  C_14
REMARK                            x       y       z     vdW  Elec       q    Type
REMARK                         _______ _______ _______ _____ _____    ______ ____
ROOT
ATOM      1  C   UNL     1      -0.415   3.043 -24.316  0.00  0.00    +0.162 A 
ATOM      2  C   UNL     1      -1.526   3.438 -24.862  0.00  0.00    +0.053 A 
ATOM      3  C   UNL     1      -2.633   3.409 -24.181  0.00  0.00    -0.030 A 
ATOM      4  C   UNL     1      -2.629   2.983 -22.952  0.00  0.00    +0.007 A 
ATOM      5  C   UNL     1      -3.735   2.953 -22.271  0.00  0.00    +0.092 C 
ATOM      6  N   UNL     1      -4.846   3.349 -22.818  0.00  0.00    +0.239 N 
ATOM      7  H   UNL     1      -5.835   3.571 -22.929  0.00  0.00    +0.204 HD
ATOM      8  C   UNL     1      -4.850   3.774 -24.046  0.00  0.00    +0.136 C 
ATOM      9  C   UNL     1      -5.953   3.318 -22.135  0.00  0.00    +0.191 C 
ATOM     10  C   UNL     1      -3.730   2.527 -21.042  0.00  0.00    +0.069 C 
ATOM     11  C   UNL     1      -1.517   2.587 -22.406  0.00  0.00    +0.058 A 
ATOM     12  C   UNL     1      -3.744   3.804 -24.727  0.00  0.00    +0.086 C 
ATOM     13  C   UNL     1      -0.411   2.617 -23.087  0.00  0.00    +0.162 A 
ENDROOT
BRANCH   1  15
ATOM     14  C   UNL     1       1.149   4.205 -25.443  0.00  0.00    +0.277 C 
ATOM     15  O   UNL     1       0.691   3.073 -24.997  0.00  0.00    -0.491 OA
ENDBRANCH   1  15
BRANCH  13  16
ATOM     16  O   UNL     1       0.700   2.221 -22.540  0.00  0.00    -0.491 OA
ATOM     17  C   UNL     1       0.671   1.457 -21.489  0.00  0.00    +0.277 C 
ENDBRANCH  13  16
TORSDOF 2
ENDMDL
