MODEL 1
REMARK VINA RESULT:    -9.146      0.000      0.000
REMARK INTER + INTRA:         -10.827
REMARK INTER:                 -10.923
REMARK INTRA:                   0.096
REMARK UNBOUND:                 0.458
REMARK  Name = ZINC000013380840
REMARK  7 active torsions:
REMARK  status: ('A' for Active; 'I' for Inactive)
REMARK    1  A    between atoms: C_1  and  O_2
REMARK    2  A    between atoms: O_2  and  C_3
REMARK    3  A    between atoms: C_9  and  O_10
REMARK    4  A    between atoms: O_10  and  C_11
REMARK    5  A    between atoms: C_11  and  C_12
REMARK    6  A    between atoms: C_14  and  C_15
REMARK    7  A    between atoms: C_14  and  C_16
REMARK                            x       y       z     vdW  Elec       q    Type
REMARK                         _______ _______ _______ _____ _____    ______ ____
ROOT
ATOM      1  C   UNL     1       3.043   2.887 -23.287  0.00  0.00    +0.142 A 
ATOM      2  C   UNL     1       3.068   2.097 -22.255  0.00  0.00    +0.066 A 
ATOM      3  C   UNL     1       4.035   1.712 -21.476  0.00  0.00    +0.053 A 
ATOM      4  C   UNL     1       3.539   0.910 -20.580  0.00  0.00    +0.196 A 
ATOM      5  O   UNL     1       2.264   0.800 -20.807  0.00  0.00    -0.459 OA
ATOM      6  C   UNL     1       1.973   1.532 -21.841  0.00  0.00    +0.183 A 
ATOM      7  C   UNL     1       0.854   1.759 -22.459  0.00  0.00    +0.207 A 
ATOM      8  C   UNL     1       0.826   2.549 -23.491  0.00  0.00    +0.188 A 
ATOM      9  O   UNL     1      -0.294   2.774 -24.108  0.00  0.00    -0.418 OA
ATOM     10  C   UNL     1      -0.323   3.565 -25.140  0.00  0.00    +0.337 A 
ATOM     11  C   UNL     1       0.774   4.129 -25.553  0.00  0.00    +0.093 A 
ATOM     12  C   UNL     1       1.895   3.904 -24.937  0.00  0.00    +0.022 A 
ATOM     13  O   UNL     1      -1.443   3.790 -25.757  0.00  0.00    -0.245 OA
ATOM     14  C   UNL     1       1.922   3.113 -23.904  0.00  0.00    +0.064 A 
ENDROOT
BRANCH   1  16
ATOM     15  C   UNL     1       4.575   4.528 -23.117  0.00  0.00    +0.277 C 
ATOM     16  O   UNL     1       4.139   3.451 -23.700  0.00  0.00    -0.494 OA
ENDBRANCH   1  16
BRANCH   7  17
ATOM     17  O   UNL     1      -0.244   1.194 -22.046  0.00  0.00    -0.482 OA
BRANCH  17  18
ATOM     18  C   UNL     1      -1.009   1.807 -21.191  0.00  0.00    +0.263 C 
BRANCH  18  19
ATOM     19  C   UNL     1      -2.161   2.281 -21.571  0.00  0.00    +0.188 C 
ATOM     20  O   UNL     1      -3.096   2.378 -22.470  0.00  0.00    -0.362 OA
ATOM     21  C   UNL     1      -3.213   3.000 -21.332  0.00  0.00    +0.094 C 
ATOM     22  C   UNL     1      -2.932   3.423 -20.136  0.00  0.00    +0.044 C 
ATOM     23  C   UNL     1      -4.367   3.574 -21.509  0.00  0.00    +0.044 C 
ENDBRANCH  18  19
ENDBRANCH  17  18
ENDBRANCH   7  17
TORSDOF 4
ENDMDL
