MODEL 1
REMARK VINA RESULT:    -8.774      0.000      0.000
REMARK INTER + INTRA:         -10.831
REMARK INTER:                 -10.953
REMARK INTRA:                   0.121
REMARK UNBOUND:                -0.005
REMARK  Name = ZINC000013380841
REMARK  7 active torsions:
REMARK  status: ('A' for Active; 'I' for Inactive)
REMARK    1  A    between atoms: C_1  and  O_2
REMARK    2  A    between atoms: O_2  and  C_3
REMARK    3  A    between atoms: C_9  and  O_10
REMARK    4  A    between atoms: O_10  and  C_11
REMARK    5  A    between atoms: C_11  and  C_12
REMARK    6  A    between atoms: C_14  and  C_15
REMARK    7  A    between atoms: C_14  and  C_16
REMARK                            x       y       z     vdW  Elec       q    Type
REMARK                         _______ _______ _______ _____ _____    ______ ____
ROOT
ATOM      1  C   UNL     1       3.081   2.803 -23.330  0.00  0.00    +0.142 A 
ATOM      2  C   UNL     1       3.101   2.038 -22.280  0.00  0.00    +0.066 A 
ATOM      3  C   UNL     1       4.068   1.652 -21.501  0.00  0.00    +0.053 A 
ATOM      4  C   UNL     1       3.566   0.884 -20.581  0.00  0.00    +0.196 A 
ATOM      5  O   UNL     1       2.286   0.795 -20.791  0.00  0.00    -0.459 OA
ATOM      6  C   UNL     1       1.999   1.508 -21.839  0.00  0.00    +0.183 A 
ATOM      7  C   UNL     1       0.878   1.743 -22.451  0.00  0.00    +0.207 A 
ATOM      8  C   UNL     1       0.855   2.508 -23.502  0.00  0.00    +0.188 A 
ATOM      9  O   UNL     1      -0.268   2.742 -24.111  0.00  0.00    -0.418 OA
ATOM     10  C   UNL     1      -0.291   3.507 -25.163  0.00  0.00    +0.337 A 
ATOM     11  C   UNL     1       0.812   4.036 -25.602  0.00  0.00    +0.093 A 
ATOM     12  C   UNL     1       1.936   3.803 -24.993  0.00  0.00    +0.022 A 
ATOM     13  O   UNL     1      -1.414   3.740 -25.773  0.00  0.00    -0.245 OA
ATOM     14  C   UNL     1       1.957   3.038 -23.941  0.00  0.00    +0.064 A 
ENDROOT
BRANCH   1  16
ATOM     15  C   UNL     1       4.648   4.416 -23.221  0.00  0.00    +0.277 C 
ATOM     16  O   UNL     1       4.183   3.333 -23.769  0.00  0.00    -0.494 OA
ENDBRANCH   1  16
BRANCH   7  17
ATOM     17  O   UNL     1      -0.227   1.213 -22.011  0.00  0.00    -0.482 OA
BRANCH  17  18
ATOM     18  C   UNL     1      -0.986   1.877 -21.190  0.00  0.00    +0.263 C 
BRANCH  18  19
ATOM     19  C   UNL     1      -2.153   2.301 -21.580  0.00  0.00    +0.188 C 
ATOM     20  O   UNL     1      -3.090   2.346 -22.483  0.00  0.00    -0.362 OA
ATOM     21  C   UNL     1      -3.232   2.985 -21.358  0.00  0.00    +0.094 C 
ATOM     22  C   UNL     1      -2.969   3.442 -20.169  0.00  0.00    +0.044 C 
ATOM     23  C   UNL     1      -4.406   3.514 -21.548  0.00  0.00    +0.044 C 
ENDBRANCH  18  19
ENDBRANCH  17  18
ENDBRANCH   7  17
TORSDOF 4
ENDMDL
