MODEL 1
REMARK VINA RESULT:    -9.393      0.000      0.000
REMARK INTER + INTRA:          -9.668
REMARK INTER:                  -9.668
REMARK INTRA:                   0.000
REMARK UNBOUND:                 0.000
REMARK  Name = ZINC000004104723
REMARK  4 active torsions:
REMARK  status: ('A' for Active; 'I' for Inactive)
REMARK    1  A    between atoms: C_1  and  C_2
REMARK    2  A    between atoms: C_2  and  C_3
REMARK    3  A    between atoms: C_12  and  C_13
REMARK    4  A    between atoms: C_12  and  O_14
REMARK                            x       y       z     vdW  Elec       q    Type
REMARK                         _______ _______ _______ _____ _____    ______ ____
ROOT
ATOM      1  C   UNL     1      -5.482   3.300 -22.111  0.00  0.00    +0.011 C 
ATOM      2  C   UNL     1      -4.319   2.857 -21.738  0.00  0.00    -0.028 C 
ATOM      3  C   UNL     1      -3.064   2.523 -21.793  0.00  0.00    -0.001 C 
ATOM      4  C   UNL     1      -1.830   2.136 -21.662  0.00  0.00    +0.012 C 
ATOM      5  C   UNL     1      -0.878   2.151 -22.547  0.00  0.00    +0.075 C 
ATOM      6  C   UNL     1      -0.924   2.556 -23.782  0.00  0.00    +0.137 C 
ATOM      7  C   UNL     1      -1.935   3.047 -24.436  0.00  0.00    +0.061 C 
ATOM      8  C   UNL     1      -1.869   3.423 -25.678  0.00  0.00    +0.014 C 
ATOM      9  C   UNL     1      -3.042   3.863 -26.028  0.00  0.00    +0.035 C 
ATOM     10  C   UNL     1      -3.833   3.758 -25.001  0.00  0.00    +0.067 C 
ATOM     11  C   UNL     1      -4.809   3.758 -24.143  0.00  0.00    +0.041 C 
ATOM     12  C   UNL     1      -3.149   3.254 -24.018  0.00  0.00    +0.034 C 
ATOM     13  O   UNL     1       0.186   2.458 -24.450  0.00  0.00    -0.297 OA
ATOM     14  C   UNL     1      -4.583   2.539 -20.505  0.00  0.00    +0.011 C 
ATOM     15  C   UNL     1      -3.651   3.020 -22.842  0.00  0.00    +0.005 C 
ENDROOT
BRANCH  10  16
ATOM     16  O   UNL     1      -4.721   4.262 -25.805  0.00  0.00    -0.389 OA
ATOM     17  H   UNL     1      -5.216   4.958 -25.345  0.00  0.00    +0.210 HD
ENDBRANCH  10  16
TORSDOF 1
ENDMDL
