MODEL 1
REMARK VINA RESULT:   -10.882      0.000      0.000
REMARK INTER + INTRA:         -13.000
REMARK INTER:                 -12.375
REMARK INTRA:                  -0.625
REMARK UNBOUND:                -0.210
REMARK  Name = COc1ccc2c(c1Oc1ccccc1)[C@@]13CCN(C)[C@@H](C2)[C@H]1CCC(=O)C3         ZINC000096316422
REMARK  5 active torsions:
REMARK  status: ('A' for Active; 'I' for Inactive)
REMARK    1  A    between atoms: C_1  and  O_2
REMARK    2  A    between atoms: O_2  and  C_3
REMARK    3  A    between atoms: C_8  and  O_9
REMARK    4  A    between atoms: O_9  and  C_10
REMARK    5  A    between atoms: N_19  and  C_20
REMARK                            x       y       z     vdW  Elec       q    Type
REMARK                         _______ _______ _______ _____ _____    ______ ____
ROOT
ATOM      1  C   UNL     1      -2.087   2.583 -21.383  0.00  0.00    +0.162 A 
ATOM      2  C   UNL     1      -3.144   2.564 -20.691  0.00  0.00    +0.050 A 
ATOM      3  C   UNL     1      -4.237   2.833 -21.255  0.00  0.00    +0.008 A 
ATOM      4  C   UNL     1      -4.249   3.157 -22.682  0.00  0.00    -0.035 A 
ATOM      5  C   UNL     1      -3.319   3.152 -23.192  0.00  0.00    +0.009 A 
ATOM      6  C   UNL     1      -3.102   3.327 -24.094  0.00  0.00    +0.019 C 
ATOM      7  C   UNL     1      -3.284   2.983 -22.465  0.00  0.00    +0.063 C 
ATOM      8  C   UNL     1      -4.626   3.022 -21.868  0.00  0.00    +0.132 C 
ATOM      9  N   UNL     1      -5.541   3.293 -22.542  0.00  0.00    +0.236 N 
ATOM     10  H   UNL     1      -6.102   3.549 -23.354  0.00  0.00    +0.203 HD
ATOM     11  C   UNL     1      -5.387   3.620 -24.078  0.00  0.00    +0.072 C 
ATOM     12  C   UNL     1      -6.359   3.163 -21.497  0.00  0.00    +0.190 C 
ATOM     13  C   UNL     1      -2.006   3.322 -24.700  0.00  0.00    +0.086 C 
ATOM     14  C   UNL     1      -1.976   3.602 -25.957  0.00  0.00    +0.134 C 
ATOM     15  O   UNL     1      -0.857   3.597 -26.578  0.00  0.00    -0.297 OA
ATOM     16  C   UNL     1      -3.070   3.893 -26.618  0.00  0.00    +0.075 C 
ATOM     17  C   UNL     1      -4.214   3.908 -26.028  0.00  0.00    +0.017 C 
ATOM     18  C   UNL     1      -4.289   3.641 -24.805  0.00  0.00    +0.050 C 
ATOM     19  C   UNL     1      -5.344   3.425 -23.241  0.00  0.00    +0.090 C 
ATOM     20  C   UNL     1      -2.157   2.875 -22.635  0.00  0.00    +0.174 A 
ENDROOT
BRANCH   1  22
ATOM     21  C   UNL     1      -0.210   1.229 -21.054  0.00  0.00    +0.277 C 
ATOM     22  O   UNL     1      -0.824   2.326 -20.970  0.00  0.00    -0.491 OA
ENDBRANCH   1  22
BRANCH  20  23
ATOM     23  O   UNL     1      -1.053   2.983 -23.745  0.00  0.00    -0.452 OA
BRANCH  23  24
ATOM     24  C   UNL     1       0.267   3.414 -23.747  0.00  0.00    +0.129 A 
ATOM     25  C   UNL     1       0.444   4.634 -23.409  0.00  0.00    +0.046 A 
ATOM     26  C   UNL     1       1.622   5.128 -23.379  0.00  0.00    +0.004 A 
ATOM     27  C   UNL     1       2.628   4.399 -23.689  0.00  0.00    +0.000 A 
ATOM     28  C   UNL     1       2.453   3.179 -24.028  0.00  0.00    +0.004 A 
ATOM     29  C   UNL     1       1.276   2.682 -24.058  0.00  0.00    +0.046 A 
ENDBRANCH  23  24
ENDBRANCH  20  23
TORSDOF 3
ENDMDL
