MODEL 1
REMARK VINA RESULT:   -10.936      0.000      0.000
REMARK INTER + INTRA:         -11.575
REMARK INTER:                 -11.575
REMARK INTRA:                   0.000
REMARK UNBOUND:                 0.000
REMARK  Name = ZINC000000125040
REMARK  3 active torsions:
REMARK  status: ('A' for Active; 'I' for Inactive)
REMARK    1  A    between atoms: C_1  and  C_2
REMARK    2  A    between atoms: C_9  and  O_10
REMARK    3  A    between atoms: C_19  and  O_20
REMARK                            x       y       z     vdW  Elec       q    Type
REMARK                         _______ _______ _______ _____ _____    ______ ____
ROOT
ATOM      1  C   UNL     1      -4.499   3.845 -23.889  0.00  0.00    +0.014 C 
ATOM      2  C   UNL     1      -3.661   3.287 -23.067  0.00  0.00    -0.003 C 
ATOM      3  C   UNL     1      -3.136   3.627 -24.207  0.00  0.00    +0.010 C 
ATOM      4  C   UNL     1      -1.877   3.400 -24.437  0.00  0.00    +0.009 C 
ATOM      5  C   UNL     1      -1.143   2.831 -23.527  0.00  0.00    +0.023 C 
ATOM      6  C   UNL     1       0.116   2.603 -23.757  0.00  0.00    -0.041 A 
ATOM      7  C   UNL     1       0.641   2.944 -24.896  0.00  0.00    +0.008 A 
ATOM      8  C   UNL     1       1.900   2.716 -25.127  0.00  0.00    +0.046 A 
ATOM      9  C   UNL     1       2.635   2.147 -24.217  0.00  0.00    +0.117 A 
ATOM     10  C   UNL     1       2.109   1.806 -23.077  0.00  0.00    +0.049 A 
ATOM     11  C   UNL     1       0.850   2.034 -22.848  0.00  0.00    -0.040 A 
ATOM     12  C   UNL     1       0.325   1.694 -21.708  0.00  0.00    +0.036 C 
ATOM     13  C   UNL     1      -0.934   1.922 -21.478  0.00  0.00    +0.009 C 
ATOM     14  C   UNL     1      -1.668   2.490 -22.387  0.00  0.00    +0.000 C 
ATOM     15  C   UNL     1      -4.867   3.400 -22.597  0.00  0.00    +0.121 C 
ATOM     16  C   UNL     1      -4.879   2.902 -21.396  0.00  0.00    +0.032 C 
ATOM     17  C   UNL     1      -3.679   2.480 -21.124  0.00  0.00    +0.007 C 
ATOM     18  C   UNL     1      -2.927   2.718 -22.157  0.00  0.00    +0.001 C 
ENDROOT
BRANCH   9  19
ATOM     19  O   UNL     1       3.893   1.919 -24.447  0.00  0.00    -0.507 OA
ATOM     20  H   UNL     1       4.215   1.915 -25.326  0.00  0.00    +0.292 HD
ENDBRANCH   9  19
BRANCH  15  21
ATOM     21  O   UNL     1      -5.884   3.921 -23.217  0.00  0.00    -0.391 OA
ATOM     22  H   UNL     1      -6.530   4.242 -22.567  0.00  0.00    +0.210 HD
ENDBRANCH  15  21
TORSDOF 2
ENDMDL
