MODEL 1
REMARK VINA RESULT:   -11.081      0.000      0.000
REMARK INTER + INTRA:         -11.801
REMARK INTER:                 -11.729
REMARK INTRA:                  -0.072
REMARK UNBOUND:                -0.072
REMARK  Name = ZINC000013360793
REMARK  4 active torsions:
REMARK  status: ('A' for Active; 'I' for Inactive)
REMARK    1  A    between atoms: C_1  and  O_2
REMARK    2  A    between atoms: O_2  and  C_3
REMARK    3  A    between atoms: C_22  and  C_23
REMARK    4  A    between atoms: C_22  and  C_24
REMARK                            x       y       z     vdW  Elec       q    Type
REMARK                         _______ _______ _______ _____ _____    ______ ____
ROOT
ATOM      1  C   UNL     1       5.511   2.414 -22.694  0.00  0.00    +0.124 A 
ATOM      2  C   UNL     1       4.905   3.039 -23.660  0.00  0.00    +0.046 A 
ATOM      3  C   UNL     1       3.610   3.147 -23.653  0.00  0.00    +0.019 A 
ATOM      4  C   UNL     1       2.919   2.632 -22.681  0.00  0.00    +0.060 A 
ATOM      5  C   UNL     1       3.525   2.007 -21.714  0.00  0.00    +0.135 A 
ATOM      6  O   UNL     1       2.835   1.491 -20.740  0.00  0.00    -0.486 OA
ATOM      7  C   UNL     1       1.539   1.600 -20.733  0.00  0.00    +0.269 C 
ATOM      8  C   UNL     1       0.935   2.225 -21.699  0.00  0.00    +0.043 A 
ATOM      9  C   UNL     1      -0.323   2.468 -21.925  0.00  0.00    +0.028 A 
ATOM     10  C   UNL     1      -1.400   2.169 -21.261  0.00  0.00    +0.023 A 
ATOM     11  C   UNL     1      -2.563   2.536 -21.710  0.00  0.00    +0.017 A 
ATOM     12  C   UNL     1      -3.640   2.237 -21.046  0.00  0.00    +0.011 C 
ATOM     13  C   UNL     1      -4.804   2.604 -21.495  0.00  0.00    +0.020 C 
ATOM     14  C   UNL     1      -4.890   3.270 -22.608  0.00  0.00    +0.124 C 
ATOM     15  O   UNL     1      -3.813   3.569 -23.272  0.00  0.00    -0.482 OA
ATOM     16  C   UNL     1      -6.149   3.193 -22.292  0.00  0.00    +0.060 C 
ATOM     17  C   UNL     1      -5.414   3.910 -23.611  0.00  0.00    +0.060 C 
ATOM     18  C   UNL     1      -2.650   3.202 -22.823  0.00  0.00    +0.132 A 
ATOM     19  C   UNL     1      -1.573   3.501 -23.487  0.00  0.00    +0.093 A 
ATOM     20  C   UNL     1      -0.410   3.134 -23.038  0.00  0.00    +0.140 A 
ATOM     21  O   UNL     1       0.793   3.303 -23.500  0.00  0.00    -0.454 OA
ATOM     22  C   UNL     1       1.624   2.740 -22.672  0.00  0.00    +0.146 A 
ATOM     23  C   UNL     1       4.821   1.898 -21.721  0.00  0.00    +0.092 A 
ENDROOT
BRANCH   1  25
ATOM     24  C   UNL     1       7.528   3.183 -23.332  0.00  0.00    +0.277 C 
ATOM     25  O   UNL     1       6.805   2.305 -22.701  0.00  0.00    -0.495 OA
ENDBRANCH   1  25
TORSDOF 1
ENDMDL
