MODEL 1
REMARK VINA RESULT:   -10.817      0.000      0.000
REMARK INTER + INTRA:         -11.548
REMARK INTER:                 -11.449
REMARK INTRA:                  -0.099
REMARK UNBOUND:                -0.099
REMARK  Name = COc1ccc2c(c1)[C@@]13CCN(C)[C@H](C2)[C@@H]1[C@H](C)CC(=O)C3           ZINC000100393706
REMARK  4 active torsions:
REMARK  status: ('A' for Active; 'I' for Inactive)
REMARK    1  A    between atoms: C_1  and  O_2
REMARK    2  A    between atoms: O_2  and  C_3
REMARK    3  A    between atoms: N_12  and  C_13
REMARK    4  A    between atoms: C_17  and  C_18
REMARK                            x       y       z     vdW  Elec       q    Type
REMARK                         _______ _______ _______ _____ _____    ______ ____
ROOT
ATOM      1  C   UNL     1       0.166   3.824 -23.922  0.00  0.00    +0.120 A 
ATOM      2  C   UNL     1      -0.048   3.761 -25.170  0.00  0.00    +0.046 A 
ATOM      3  C   UNL     1      -1.241   3.647 -25.579  0.00  0.00    +0.008 A 
ATOM      4  C   UNL     1      -2.334   3.591 -24.597  0.00  0.00    -0.038 A 
ATOM      5  C   UNL     1      -2.080   3.650 -23.568  0.00  0.00    -0.033 A 
ATOM      6  C   UNL     1      -2.621   3.633 -22.786  0.00  0.00    +0.016 C 
ATOM      7  C   UNL     1      -1.502   3.681 -24.045  0.00  0.00    +0.063 C 
ATOM      8  C   UNL     1      -1.980   3.590 -25.436  0.00  0.00    +0.132 C 
ATOM      9  N   UNL     1      -3.133   3.487 -25.643  0.00  0.00    +0.236 N 
ATOM     10  H   UNL     1      -4.137   3.409 -25.483  0.00  0.00    +0.203 HD
ATOM     11  C   UNL     1      -4.201   3.440 -24.473  0.00  0.00    +0.073 C 
ATOM     12  C   UNL     1      -2.924   3.454 -27.028  0.00  0.00    +0.190 C 
ATOM     13  C   UNL     1      -2.329   3.702 -21.565  0.00  0.00    +0.086 C 
ATOM     14  C   UNL     1      -3.268   3.656 -20.671  0.00  0.00    +0.134 C 
ATOM     15  O   UNL     1      -2.965   3.727 -19.425  0.00  0.00    -0.297 OA
ATOM     16  C   UNL     1      -4.531   3.538 -21.024  0.00  0.00    +0.078 C 
ATOM     17  C   UNL     1      -4.879   3.464 -22.271  0.00  0.00    +0.002 C 
ATOM     18  C   UNL     1      -6.117   3.349 -22.598  0.00  0.00    +0.008 C 
ATOM     19  C   UNL     1      -3.992   3.505 -23.167  0.00  0.00    +0.052 C 
ATOM     20  C   UNL     1      -3.528   3.477 -25.015  0.00  0.00    +0.090 C 
ATOM     21  C   UNL     1      -0.839   3.770 -23.110  0.00  0.00    +0.050 A 
ENDROOT
BRANCH   1  23
ATOM     22  C   UNL     1       2.301   4.760 -23.248  0.00  0.00    +0.277 C 
ATOM     23  O   UNL     1       1.338   3.948 -23.175  0.00  0.00    -0.495 OA
ENDBRANCH   1  23
TORSDOF 1
ENDMDL
