MODEL 1
REMARK VINA RESULT:    -7.915      0.000      0.000
REMARK INTER + INTRA:         -15.253
REMARK INTER:                 -13.000
REMARK INTRA:                  -2.253
REMARK UNBOUND:                -1.785
REMARK  Name = CCCCCCCCCCCC(=O)C1=C(O)C[C@@H](CCC)OC1=O                             ZINC000100393267
REMARK  14 active torsions:
REMARK  status: ('A' for Active; 'I' for Inactive)
REMARK    1  A    between atoms: C_1  and  C_2
REMARK    2  A    between atoms: C_2  and  C_3
REMARK    3  A    between atoms: C_3  and  C_4
REMARK    4  A    between atoms: C_4  and  C_5
REMARK    5  A    between atoms: C_5  and  C_6
REMARK    6  A    between atoms: C_6  and  C_7
REMARK    7  A    between atoms: C_7  and  C_8
REMARK    8  A    between atoms: C_8  and  C_9
REMARK    9  A    between atoms: C_9  and  C_10
REMARK   10  A    between atoms: C_10  and  C_11
REMARK   11  A    between atoms: C_11  and  C_12
REMARK   12  A    between atoms: C_18  and  C_19
REMARK   13  A    between atoms: C_19  and  C_20
REMARK   14  A    between atoms: C_20  and  C_21
REMARK                            x       y       z     vdW  Elec       q    Type
REMARK                         _______ _______ _______ _____ _____    ______ ____
ROOT
ATOM      1  C   UNL     1       0.015   2.394 -23.016  0.00  0.00    -0.121 C 
ATOM      2  C   UNL     1       1.229   2.857 -22.979  0.00  0.00    -0.109 C 
ATOM      3  C   UNL     1       1.505   4.003 -23.529  0.00  0.00    +0.195 C 
ATOM      4  C   UNL     1       2.718   4.466 -23.493  0.00  0.00    +0.131 C 
ATOM      5  C   UNL     1       3.657   3.783 -22.908  0.00  0.00    +0.180 C 
ATOM      6  O   UNL     1       3.382   2.638 -22.358  0.00  0.00    -0.501 OA
ATOM      7  O   UNL     1       0.565   4.685 -24.115  0.00  0.00    -0.284 OA
ATOM      8  C   UNL     1       2.168   2.175 -22.394  0.00  0.00    +0.056 C 
ATOM      9  O   UNL     1       1.893   1.030 -21.844  0.00  0.00    -0.795 OA
ATOM     10  O   UNL     1      -0.261   1.249 -22.466  0.00  0.00    -0.826 OA
ENDROOT
BRANCH   1  11
ATOM     11  C   UNL     1      -0.924   3.077 -23.601  0.00  0.00    +0.021 C 
BRANCH  11  12
ATOM     12  C   UNL     1      -1.936   2.462 -24.137  0.00  0.00    +0.004 C 
BRANCH  12  13
ATOM     13  C   UNL     1      -2.544   2.982 -25.162  0.00  0.00    +0.000 C 
BRANCH  13  14
ATOM     14  C   UNL     1      -3.311   4.020 -25.005  0.00  0.00    +0.000 C 
BRANCH  14  15
ATOM     15  C   UNL     1      -4.601   3.871 -24.951  0.00  0.00    +0.000 C 
BRANCH  15  16
ATOM     16  C   UNL     1      -5.257   4.263 -23.898  0.00  0.00    +0.000 C 
BRANCH  16  17
ATOM     17  C   UNL     1      -5.643   3.395 -23.011  0.00  0.00    -0.000 C 
BRANCH  17  18
ATOM     18  C   UNL     1      -5.164   3.444 -21.804  0.00  0.00    -0.000 C 
BRANCH  18  19
ATOM     19  C   UNL     1      -4.293   2.561 -21.413  0.00  0.00    -0.000 C 
BRANCH  19  21
ATOM     20  C   UNL     1      -2.924   4.161 -20.619  0.00  0.00    +0.004 C 
ATOM     21  C   UNL     1      -3.301   2.918 -20.653  0.00  0.00    -0.003 C 
ENDBRANCH  19  21
ENDBRANCH  18  19
ENDBRANCH  17  18
ENDBRANCH  16  17
ENDBRANCH  15  16
ENDBRANCH  14  15
ENDBRANCH  13  14
ENDBRANCH  12  13
ENDBRANCH  11  12
ENDBRANCH   1  11
BRANCH   5  22
ATOM     22  C   UNL     1       4.872   4.246 -22.872  0.00  0.00    +0.045 C 
BRANCH  22  23
ATOM     23  C   UNL     1       5.874   3.431 -22.733  0.00  0.00    +0.000 C 
ATOM     24  C   UNL     1       6.734   3.616 -21.775  0.00  0.00    +0.004 C 
ENDBRANCH  22  23
ENDBRANCH   5  22
TORSDOF 12
ENDMDL
