MODEL 1
REMARK VINA RESULT:    -8.077      0.000      0.000
REMARK INTER + INTRA:          -8.077
REMARK INTER:                  -8.077
REMARK INTRA:                   0.000
REMARK UNBOUND:                 0.000
REMARK  Name = ZINC000006091631
REMARK  0 active torsions:
REMARK  status: ('A' for Active; 'I' for Inactive)
REMARK                            x       y       z     vdW  Elec       q    Type
REMARK                         _______ _______ _______ _____ _____    ______ ____
ROOT
ATOM      1  O   UNL     1       2.005   1.187 -23.244  0.00  0.00    -0.245 OA
ATOM      2  C   UNL     1       0.840   1.548 -22.795  0.00  0.00    +0.337 A 
ATOM      3  C   UNL     1       0.591   1.500 -21.520  0.00  0.00    +0.092 A 
ATOM      4  C   UNL     1      -0.575   1.861 -21.072  0.00  0.00    +0.018 A 
ATOM      5  C   UNL     1      -1.491   2.271 -21.898  0.00  0.00    +0.018 A 
ATOM      6  C   UNL     1      -2.656   2.632 -21.450  0.00  0.00    +0.019 A 
ATOM      7  C   UNL     1      -3.572   3.041 -22.277  0.00  0.00    -0.002 A 
ATOM      8  C   UNL     1      -3.323   3.089 -23.552  0.00  0.00    +0.127 A 
ATOM      9  O   UNL     1      -4.389   3.528 -24.153  0.00  0.00    -0.491 OA
ATOM     10  C   UNL     1      -5.297   3.750 -23.250  0.00  0.00    +0.234 C 
ATOM     11  C   UNL     1      -2.158   2.728 -24.000  0.00  0.00    +0.092 A 
ATOM     12  C   UNL     1      -4.793   3.449 -22.090  0.00  0.00    +0.080 C 
ATOM     13  C   UNL     1      -1.242   2.319 -23.173  0.00  0.00    +0.143 A 
ATOM     14  O   UNL     1      -0.076   1.958 -23.622  0.00  0.00    -0.422 OA
ENDROOT
TORSDOF 0
ENDMDL
