MODEL 1
REMARK VINA RESULT:    -9.857      0.000      0.000
REMARK INTER + INTRA:          -7.134
REMARK INTER:                 -10.392
REMARK INTRA:                   3.258
REMARK UNBOUND:                 3.299
REMARK  Name = CC(=O)O[C@H]1c2occ(C)c2[C@H]2C=C(CC[C@H]3O[C@]31C)C(=O)O2            ZINC000106803372
REMARK  5 active torsions:
REMARK  status: ('A' for Active; 'I' for Inactive)
REMARK    1  A    between atoms: C_1  and  C_2
REMARK    2  A    between atoms: C_2  and  O_4
REMARK    3  A    between atoms: O_4  and  C_5
REMARK    4  A    between atoms: C_9  and  C_10
REMARK    5  A    between atoms: C_19  and  C_20
REMARK                            x       y       z     vdW  Elec       q    Type
REMARK                         _______ _______ _______ _____ _____    ______ ____
ROOT
ATOM      1  C   UNL     1      -3.441   3.226 -23.098  0.00  0.00    +0.276 C 
ATOM      2  C   UNL     1      -2.130   2.969 -22.834  0.00  0.00    +0.155 A 
ATOM      3  O   UNL     1      -1.401   2.742 -21.804  0.00  0.00    -0.463 OA
ATOM      4  C   UNL     1      -0.198   2.567 -22.208  0.00  0.00    +0.199 A 
ATOM      5  C   UNL     1      -0.183   2.685 -23.483  0.00  0.00    -0.005 A 
ATOM      6  C   UNL     1       0.840   2.575 -24.246  0.00  0.00    +0.047 C 
ATOM      7  C   UNL     1      -1.380   2.933 -23.866  0.00  0.00    +0.044 A 
ATOM      8  C   UNL     1      -1.931   3.135 -24.967  0.00  0.00    +0.234 C 
ATOM      9  C   UNL     1      -3.170   3.332 -24.727  0.00  0.00    +0.032 C 
ATOM     10  C   UNL     1      -3.762   3.542 -25.837  0.00  0.00    +0.037 C 
ATOM     11  C   UNL     1      -2.886   3.476 -26.778  0.00  0.00    +0.336 C 
ATOM     12  O   UNL     1      -3.108   3.634 -28.028  0.00  0.00    -0.245 OA
ATOM     13  C   UNL     1      -4.981   3.748 -25.720  0.00  0.00    +0.045 C 
ATOM     14  C   UNL     1      -5.745   3.766 -24.479  0.00  0.00    +0.039 C 
ATOM     15  C   UNL     1      -5.553   3.589 -22.973  0.00  0.00    +0.155 C 
ATOM     16  O   UNL     1      -5.633   3.482 -21.699  0.00  0.00    -0.361 OA
ATOM     17  O   UNL     1      -1.753   3.224 -26.236  0.00  0.00    -0.449 OA
ATOM     18  C   UNL     1      -4.501   3.337 -22.282  0.00  0.00    +0.137 C 
ATOM     19  C   UNL     1      -4.145   3.193 -21.424  0.00  0.00    +0.048 C 
ENDROOT
BRANCH   1  20
ATOM     20  O   UNL     1      -2.931   2.998 -21.644  0.00  0.00    -0.451 OA
BRANCH  20  22
ATOM     21  C   UNL     1      -3.085   3.720 -19.507  0.00  0.00    +0.136 C 
ATOM     22  C   UNL     1      -2.734   3.950 -20.734  0.00  0.00    +0.305 C 
ATOM     23  O   UNL     1      -2.211   5.083 -21.034  0.00  0.00    -0.251 OA
ENDBRANCH  20  22
ENDBRANCH   1  20
TORSDOF 2
ENDMDL
