MODEL 1
REMARK VINA RESULT:   -10.959      0.000      0.000
REMARK INTER + INTRA:         -12.867
REMARK INTER:                 -12.065
REMARK INTRA:                  -0.802
REMARK UNBOUND:                 0.655
REMARK  Name = ZINC000014557836
REMARK  7 active torsions:
REMARK  status: ('A' for Active; 'I' for Inactive)
REMARK    1  A    between atoms: C_1  and  C_2
REMARK    2  A    between atoms: C_2  and  C_3
REMARK    3  A    between atoms: C_10  and  C_11
REMARK    4  A    between atoms: C_11  and  C_13
REMARK    5  A    between atoms: C_14  and  C_15
REMARK    6  A    between atoms: C_18  and  O_19
REMARK    7  A    between atoms: C_22  and  O_23
REMARK                            x       y       z     vdW  Elec       q    Type
REMARK                         _______ _______ _______ _____ _____    ______ ____
ROOT
ATOM      1  C   UNL     1      -4.974   3.101 -21.790  0.00  0.00    +0.060 C 
ATOM      2  C   UNL     1      -4.266   3.329 -22.856  0.00  0.00    +0.124 C 
ATOM      3  C   UNL     1      -3.961   3.705 -24.062  0.00  0.00    +0.020 C 
ATOM      4  C   UNL     1      -2.742   3.577 -24.494  0.00  0.00    +0.015 C 
ATOM      5  C   UNL     1      -1.827   3.073 -23.719  0.00  0.00    +0.059 A 
ATOM      6  C   UNL     1      -2.132   2.697 -22.513  0.00  0.00    +0.132 A 
ATOM      7  C   UNL     1      -1.217   2.194 -21.739  0.00  0.00    +0.047 A 
ATOM      8  C   UNL     1       0.002   2.066 -22.170  0.00  0.00    +0.019 A 
ATOM      9  C   UNL     1       0.306   2.442 -23.377  0.00  0.00    +0.064 A 
ATOM     10  C   UNL     1      -0.608   2.946 -24.151  0.00  0.00    +0.138 A 
ATOM     11  C   UNL     1      -5.427   3.753 -23.259  0.00  0.00    +0.060 C 
ATOM     12  O   UNL     1      -3.352   2.826 -22.081  0.00  0.00    -0.482 OA
ENDROOT
BRANCH   9  13
ATOM     13  C   UNL     1       1.526   2.314 -23.809  0.00  0.00    +0.190 C 
ATOM     14  O   UNL     1       1.750   1.783 -24.974  0.00  0.00    -0.287 OA
BRANCH  13  15
ATOM     15  C   UNL     1       2.521   2.719 -23.077  0.00  0.00    +0.052 C 
ATOM     16  C   UNL     1       3.736   2.647 -23.534  0.00  0.00    +0.012 C 
BRANCH  16  17
ATOM     17  C   UNL     1       4.731   3.051 -22.801  0.00  0.00    -0.025 A 
ATOM     18  C   UNL     1       5.046   2.405 -21.718  0.00  0.00    +0.011 A 
ATOM     19  C   UNL     1       6.041   2.809 -20.986  0.00  0.00    +0.046 A 
ATOM     20  C   UNL     1       6.722   3.861 -21.337  0.00  0.00    +0.117 A 
ATOM     21  C   UNL     1       6.407   4.506 -22.420  0.00  0.00    +0.046 A 
ATOM     22  C   UNL     1       5.412   4.102 -23.152  0.00  0.00    +0.011 A 
BRANCH  20  23
ATOM     23  O   UNL     1       7.717   4.265 -20.605  0.00  0.00    -0.507 OA
ATOM     24  H   UNL     1       7.767   4.013 -19.703  0.00  0.00    +0.292 HD
ENDBRANCH  20  23
ENDBRANCH  16  17
ENDBRANCH  13  15
ENDBRANCH   9  13
BRANCH  10  25
ATOM     25  O   UNL     1      -0.303   3.322 -25.359  0.00  0.00    -0.505 OA
ATOM     26  H   UNL     1       0.433   2.940 -25.796  0.00  0.00    +0.292 HD
ENDBRANCH  10  25
TORSDOF 5
ENDMDL
