MODEL 1
REMARK VINA RESULT:    -9.649      0.000      0.000
REMARK INTER + INTRA:         -10.592
REMARK INTER:                 -10.742
REMARK INTRA:                   0.150
REMARK UNBOUND:                 0.185
REMARK  Name = ZINC000071325813
REMARK  5 active torsions:
REMARK  status: ('A' for Active; 'I' for Inactive)
REMARK    1  A    between atoms: C_1  and  C_2
REMARK    2  A    between atoms: C_2  and  O_4
REMARK    3  A    between atoms: O_4  and  C_5
REMARK    4  A    between atoms: C_15  and  C_16
REMARK    5  A    between atoms: C_21  and  C_22
REMARK                            x       y       z     vdW  Elec       q    Type
REMARK                         _______ _______ _______ _____ _____    ______ ____
ROOT
ATOM      1  C   UNL     1      -2.672   3.637 -23.628  0.00  0.00    +0.203 C 
ATOM      2  C   UNL     1      -1.700   3.571 -23.850  0.00  0.00    +0.054 C 
ATOM      3  C   UNL     1      -1.220   4.032 -24.880  0.00  0.00    +0.046 C 
ATOM      4  C   UNL     1      -0.338   3.752 -24.669  0.00  0.00    +0.037 C 
ATOM      5  C   UNL     1      -0.391   3.170 -23.562  0.00  0.00    +0.032 C 
ATOM      6  C   UNL     1       0.765   2.795 -23.271  0.00  0.00    +0.234 C 
ATOM      7  C   UNL     1       0.968   2.200 -22.231  0.00  0.00    +0.045 A 
ATOM      8  C   UNL     1       2.105   1.803 -21.893  0.00  0.00    -0.005 A 
ATOM      9  C   UNL     1       1.998   1.227 -20.780  0.00  0.00    +0.199 A 
ATOM     10  O   UNL     1       0.792   1.272 -20.436  0.00  0.00    -0.463 OA
ATOM     11  C   UNL     1       3.167   1.956 -22.555  0.00  0.00    +0.047 C 
ATOM     12  C   UNL     1       0.151   1.873 -21.333  0.00  0.00    +0.135 A 
ATOM     13  C   UNL     1      -2.111   2.304 -21.337  0.00  0.00    +0.049 C 
ATOM     14  O   UNL     1       1.535   3.144 -24.196  0.00  0.00    -0.449 OA
ATOM     15  C   UNL     1       0.850   3.738 -25.063  0.00  0.00    +0.336 C 
ATOM     16  O   UNL     1       1.282   4.229 -26.133  0.00  0.00    -0.245 OA
ATOM     17  C   UNL     1      -3.101   3.070 -22.417  0.00  0.00    -0.029 C 
ATOM     18  C   UNL     1      -4.363   3.169 -22.155  0.00  0.00    +0.043 C 
ENDROOT
BRANCH   1  19
ATOM     19  O   UNL     1      -3.335   4.289 -24.611  0.00  0.00    -0.457 OA
BRANCH  19  21
ATOM     20  C   UNL     1      -4.692   3.156 -25.884  0.00  0.00    +0.136 C 
ATOM     21  C   UNL     1      -4.473   4.154 -25.096  0.00  0.00    +0.305 C 
ATOM     22  O   UNL     1      -5.368   4.937 -24.842  0.00  0.00    -0.251 OA
ENDBRANCH  19  21
ENDBRANCH   1  19
TORSDOF 2
ENDMDL
