MODEL 1
REMARK VINA RESULT:   -10.639      0.000      0.000
REMARK INTER + INTRA:         -10.950
REMARK INTER:                 -10.950
REMARK INTRA:                   0.000
REMARK UNBOUND:                 0.000
REMARK  Name = O=CN1CC[C@@]23CC(=O)CC[C@@H]2[C@H]1Cc1cc(Br)c(O)cc13                 ZINC000253505262
REMARK  1 active torsions:
REMARK  status: ('A' for Active; 'I' for Inactive)
REMARK    1  A    between atoms: C_19  and  O_20
REMARK                            x       y       z     vdW  Elec       q    Type
REMARK                         _______ _______ _______ _____ _____    ______ ____
ROOT
ATOM      1  O   UNL     1       1.189   3.868 -26.074  0.00  0.00    -0.279 OA
ATOM      2  C   UNL     1       0.224   3.760 -25.454  0.00  0.00    +0.328 C 
ATOM      3  N   UNL     1      -0.561   3.333 -24.164  0.00  0.00    -0.300 N 
ATOM      4  C   UNL     1      -1.252   3.046 -23.234  0.00  0.00    +0.109 C 
ATOM      5  C   UNL     1      -0.893   2.530 -22.179  0.00  0.00    +0.031 C 
ATOM      6  C   UNL     1       0.024   2.320 -22.042  0.00  0.00    +0.009 C 
ATOM      7  C   UNL     1       0.482   1.788 -20.986  0.00  0.00    +0.086 C 
ATOM      8  C   UNL     1       1.755   1.537 -20.892  0.00  0.00    +0.134 C 
ATOM      9  C   UNL     1       2.585   1.827 -21.883  0.00  0.00    +0.075 C 
ATOM     10  C   UNL     1       2.147   2.378 -22.990  0.00  0.00    +0.014 C 
ATOM     11  O   UNL     1       2.134   0.984 -19.756  0.00  0.00    -0.297 OA
ATOM     12  C   UNL     1      -1.585   2.741 -22.402  0.00  0.00    -0.034 A 
ATOM     13  C   UNL     1      -2.371   2.446 -21.417  0.00  0.00    +0.051 A 
ATOM     14  C   UNL     1      -3.626   2.693 -21.507  0.00  0.00    +0.131 A 
ATOM     15  C   UNL     1      -4.105   3.235 -22.580  0.00  0.00    +0.059 A 
ATOM     16 BR   UNL     1      -5.378   3.419 -22.519  0.00  0.00    -0.047 Br
ATOM     17  C   UNL     1      -3.315   3.533 -23.573  0.00  0.00    +0.023 A 
ATOM     18  C   UNL     1      -2.057   3.291 -23.493  0.00  0.00    -0.041 A 
ATOM     19  C   UNL     1      -1.287   3.553 -24.396  0.00  0.00    +0.058 C 
ATOM     20  C   UNL     1       0.915   2.640 -23.126  0.00  0.00    +0.021 C 
ATOM     21  C   UNL     1       0.303   3.206 -24.200  0.00  0.00    +0.084 C 
ENDROOT
BRANCH  14  22
ATOM     22  O   UNL     1      -4.348   2.352 -20.441  0.00  0.00    -0.506 OA
ATOM     23  H   UNL     1      -4.766   3.014 -19.927  0.00  0.00    +0.292 HD
ENDBRANCH  14  22
TORSDOF 1
ENDMDL
