MODEL 1
REMARK VINA RESULT:    -9.491      0.000      0.000
REMARK INTER + INTRA:         -10.323
REMARK INTER:                 -10.323
REMARK INTRA:                   0.000
REMARK UNBOUND:                 0.000
REMARK  Name = ZINC000004104720
REMARK  6 active torsions:
REMARK  status: ('A' for Active; 'I' for Inactive)
REMARK    1  A    between atoms: C_1  and  C_2
REMARK    2  A    between atoms: C_2  and  C_3
REMARK    3  A    between atoms: C_7  and  O_8
REMARK    4  A    between atoms: C_9  and  C_10
REMARK    5  A    between atoms: C_13  and  C_14
REMARK    6  A    between atoms: C_13  and  O_15
REMARK                            x       y       z     vdW  Elec       q    Type
REMARK                         _______ _______ _______ _____ _____    ______ ____
ROOT
ATOM      1  C   UNL     1      -0.298   1.875 -21.290  0.00  0.00    +0.011 C 
ATOM      2  C   UNL     1      -1.018   2.280 -22.295  0.00  0.00    -0.028 C 
ATOM      3  C   UNL     1      -2.152   2.486 -21.693  0.00  0.00    -0.001 C 
ATOM      4  C   UNL     1      -3.193   2.634 -20.930  0.00  0.00    +0.007 C 
ATOM      5  C   UNL     1      -4.385   3.039 -21.254  0.00  0.00    +0.032 C 
ATOM      6  C   UNL     1      -4.829   3.397 -22.422  0.00  0.00    +0.121 C 
ATOM      7  C   UNL     1      -4.192   3.437 -23.555  0.00  0.00    -0.000 C 
ATOM      8  C   UNL     1      -4.739   3.814 -24.672  0.00  0.00    +0.012 C 
ATOM      9  C   UNL     1      -3.837   3.740 -25.606  0.00  0.00    +0.035 C 
ATOM     10  C   UNL     1      -2.732   3.317 -25.066  0.00  0.00    +0.067 C 
ATOM     11  C   UNL     1      -2.263   3.420 -26.274  0.00  0.00    +0.041 C 
ATOM     12  C   UNL     1      -5.441   3.792 -23.539  0.00  0.00    +0.014 C 
ATOM     13  C   UNL     1      -2.951   3.130 -23.798  0.00  0.00    +0.033 C 
ATOM     14  C   UNL     1      -0.134   2.213 -23.246  0.00  0.00    +0.011 C 
ATOM     15  C   UNL     1      -2.044   2.706 -22.969  0.00  0.00    +0.005 C 
ENDROOT
BRANCH  10  16
ATOM     16  O   UNL     1      -1.530   2.915 -24.778  0.00  0.00    -0.389 OA
ATOM     17  H   UNL     1      -1.579   2.140 -24.198  0.00  0.00    +0.210 HD
ENDBRANCH  10  16
BRANCH   6  18
ATOM     18  O   UNL     1      -6.076   3.763 -22.464  0.00  0.00    -0.391 OA
ATOM     19  H   UNL     1      -6.129   4.704 -22.692  0.00  0.00    +0.210 HD
ENDBRANCH   6  18
TORSDOF 2
ENDMDL
