MODEL 1
REMARK VINA RESULT:    -8.504      0.000      0.000
REMARK INTER + INTRA:         -15.891
REMARK INTER:                 -13.551
REMARK INTRA:                  -2.339
REMARK UNBOUND:                -1.422
REMARK  Name = CCCCCCCCCCCc1c(O)c(O)cc2nc3ccc(OC)cc3nc12                            ZINC000103006380
REMARK  15 active torsions:
REMARK  status: ('A' for Active; 'I' for Inactive)
REMARK    1  A    between atoms: C_1  and  C_2
REMARK    2  A    between atoms: C_2  and  C_3
REMARK    3  A    between atoms: C_3  and  C_4
REMARK    4  A    between atoms: C_4  and  C_5
REMARK    5  A    between atoms: C_5  and  C_6
REMARK    6  A    between atoms: C_6  and  C_7
REMARK    7  A    between atoms: C_7  and  C_8
REMARK    8  A    between atoms: C_8  and  C_9
REMARK    9  A    between atoms: C_9  and  C_10
REMARK   10  A    between atoms: C_10  and  C_11
REMARK   11  A    between atoms: C_11  and  C_12
REMARK   12  A    between atoms: C_13  and  O_14
REMARK   13  A    between atoms: C_15  and  O_16
REMARK   14  A    between atoms: C_23  and  O_24
REMARK   15  A    between atoms: O_24  and  C_25
REMARK                            x       y       z     vdW  Elec       q    Type
REMARK                         _______ _______ _______ _____ _____    ______ ____
ROOT
ATOM      1  C   UNL     1       3.522   3.280 -23.919  0.00  0.00    +0.025 A 
ATOM      2  C   UNL     1       4.493   3.987 -23.423  0.00  0.00    +0.164 A 
ATOM      3  C   UNL     1       4.254   5.157 -22.910  0.00  0.00    +0.161 A 
ATOM      4  C   UNL     1       3.040   5.622 -22.893  0.00  0.00    +0.079 A 
ATOM      5  C   UNL     1       2.068   4.918 -23.388  0.00  0.00    +0.094 A 
ATOM      6  N   UNL     1       0.854   5.383 -23.370  0.00  0.00    -0.243 NA
ATOM      7  C   UNL     1      -0.120   4.680 -23.865  0.00  0.00    +0.090 A 
ATOM      8  C   UNL     1      -1.333   5.146 -23.847  0.00  0.00    +0.033 A 
ATOM      9  C   UNL     1      -2.308   4.443 -24.342  0.00  0.00    +0.048 A 
ATOM     10  C   UNL     1      -2.068   3.273 -24.855  0.00  0.00    +0.122 A 
ATOM     11  C   UNL     1      -0.856   2.805 -24.874  0.00  0.00    +0.075 A 
ATOM     12  C   UNL     1       0.120   3.510 -24.378  0.00  0.00    +0.093 A 
ATOM     13  N   UNL     1       1.333   3.043 -24.396  0.00  0.00    -0.243 NA
ATOM     14  C   UNL     1       2.306   3.747 -23.901  0.00  0.00    +0.097 A 
ENDROOT
BRANCH   2  15
ATOM     15  O   UNL     1       5.707   3.520 -23.440  0.00  0.00    -0.503 OA
ATOM     16  H   UNL     1       5.855   2.595 -23.422  0.00  0.00    +0.292 HD
ENDBRANCH   2  15
BRANCH   3  17
ATOM     17  O   UNL     1       5.227   5.861 -22.415  0.00  0.00    -0.503 OA
ATOM     18  H   UNL     1       5.641   5.592 -21.618  0.00  0.00    +0.292 HD
ENDBRANCH   3  17
BRANCH  10  19
ATOM     19  O   UNL     1      -3.044   2.569 -25.351  0.00  0.00    -0.495 OA
ATOM     20  C   UNL     1      -3.943   3.138 -26.096  0.00  0.00    +0.277 C 
ENDBRANCH  10  19
BRANCH   1  21
ATOM     21  C   UNL     1       3.760   2.111 -24.431  0.00  0.00    +0.041 C 
BRANCH  21  22
ATOM     22  C   UNL     1       3.293   1.042 -23.857  0.00  0.00    +0.005 C 
BRANCH  22  23
ATOM     23  C   UNL     1       3.646   0.749 -22.640  0.00  0.00    +0.000 C 
BRANCH  23  24
ATOM     24  C   UNL     1       2.740   0.523 -21.736  0.00  0.00    +0.000 C 
BRANCH  24  25
ATOM     25  C   UNL     1       2.342   1.486 -20.959  0.00  0.00    +0.000 C 
BRANCH  25  26
ATOM     26  C   UNL     1       1.102   1.875 -20.987  0.00  0.00    +0.000 C 
BRANCH  26  27
ATOM     27  C   UNL     1       0.210   1.159 -21.604  0.00  0.00    -0.000 C 
BRANCH  27  28
ATOM     28  C   UNL     1      -1.049   1.460 -21.504  0.00  0.00    -0.000 C 
BRANCH  28  29
ATOM     29  C   UNL     1      -1.405   2.642 -21.094  0.00  0.00    -0.000 C 
BRANCH  29  31
ATOM     30  C   UNL     1      -3.132   3.721 -20.133  0.00  0.00    +0.004 C 
ATOM     31  C   UNL     1      -2.660   2.979 -21.091  0.00  0.00    -0.003 C 
ENDBRANCH  29  31
ENDBRANCH  28  29
ENDBRANCH  27  28
ENDBRANCH  26  27
ENDBRANCH  25  26
ENDBRANCH  24  25
ENDBRANCH  23  24
ENDBRANCH  22  23
ENDBRANCH  21  22
ENDBRANCH   1  21
TORSDOF 13
ENDMDL
