MODEL 1
REMARK VINA RESULT:    -9.679      0.000      0.000
REMARK INTER + INTRA:         -13.626
REMARK INTER:                 -12.743
REMARK INTRA:                  -0.883
REMARK UNBOUND:                -0.834
REMARK  Name = ZINC000004257488
REMARK  7 active torsions:
REMARK  status: ('A' for Active; 'I' for Inactive)
REMARK    1  A    between atoms: O5*_1  and  C5*_2
REMARK    2  A    between atoms: C5*_2  and  C4*_3
REMARK    3  A    between atoms: C1*_5  and  N_6
REMARK    4  A    between atoms: N_11  and  C_12
REMARK    5  A    between atoms: C_12  and  C_13
REMARK    6  A    between atoms: C2*_23  and  O2*_24
REMARK    7  A    between atoms: C3*_25  and  O3*_26
REMARK                            x       y       z     vdW  Elec       q    Type
REMARK                         _______ _______ _______ _____ _____    ______ ____
ROOT
ATOM      1  N   UNL     1       3.185   2.375 -23.033  0.00  0.00    -0.286 N 
ATOM      2  C   UNL     1       2.686   1.175 -23.015  0.00  0.00    +0.203 A 
ATOM      3  N   UNL     1       1.414   1.265 -23.274  0.00  0.00    -0.231 NA
ATOM      4  C   UNL     1       1.128   2.520 -23.452  0.00  0.00    +0.147 A 
ATOM      5  C   UNL     1       0.013   3.128 -23.731  0.00  0.00    +0.150 A 
ATOM      6  N   UNL     1      -0.008   4.421 -23.861  0.00  0.00    -0.219 NA
ATOM      7  C   UNL     1       1.086   5.107 -23.712  0.00  0.00    +0.225 A 
ATOM      8  N   UNL     1       2.202   4.500 -23.433  0.00  0.00    -0.216 NA
ATOM      9  N   UNL     1      -1.081   2.442 -23.880  0.00  0.00    -0.323 N 
ATOM     10  H   UNL     1      -1.065   1.462 -23.782  0.00  0.00    +0.148 HD
ATOM     11  C   UNL     1       2.222   3.207 -23.303  0.00  0.00    +0.167 A 
ENDROOT
BRANCH   1  14
ATOM     12  C4* UNL     1       6.433   3.243 -23.129  0.00  0.00    +0.177 C 
ATOM     13  O4* UNL     1       5.308   2.988 -23.728  0.00  0.00    -0.346 OA
ATOM     14  C1* UNL     1       4.428   2.689 -22.818  0.00  0.00    +0.253 C 
ATOM     15  C2* UNL     1       5.009   2.760 -21.658  0.00  0.00    +0.195 C 
ATOM     16  C3* UNL     1       6.249   3.102 -21.850  0.00  0.00    +0.178 C 
BRANCH  15  17
ATOM     17  O2* UNL     1       4.450   2.529 -20.508  0.00  0.00    -0.385 OA
ATOM     18  H2* UNL     1       5.094   2.117 -19.912  0.00  0.00    +0.210 HD
ENDBRANCH  15  17
BRANCH  16  19
ATOM     19  O3* UNL     1       7.146   3.274 -20.925  0.00  0.00    -0.386 OA
ATOM     20  H3* UNL     1       7.276   4.223 -20.774  0.00  0.00    +0.210 HD
ENDBRANCH  16  19
BRANCH  12  21
ATOM     21  C5* UNL     1       7.547   3.580 -23.708  0.00  0.00    +0.190 C 
BRANCH  21  22
ATOM     22  O5* UNL     1       8.609   2.847 -23.549  0.00  0.00    -0.392 OA
ATOM     23  H5* UNL     1       8.927   2.932 -22.637  0.00  0.00    +0.210 HD
ENDBRANCH  21  22
ENDBRANCH  12  21
ENDBRANCH   1  14
BRANCH   9  24
ATOM     24  C   UNL     1      -2.196   3.049 -24.159  0.00  0.00    +0.138 C 
BRANCH  24  25
ATOM     25  C   UNL     1      -3.169   3.048 -23.297  0.00  0.00    -0.030 A 
ATOM     26  C   UNL     1      -4.338   3.504 -23.637  0.00  0.00    +0.005 A 
ATOM     27  C   UNL     1      -5.312   3.503 -22.775  0.00  0.00    +0.000 A 
ATOM     28  C   UNL     1      -5.116   3.047 -21.574  0.00  0.00    +0.000 A 
ATOM     29  C   UNL     1      -3.947   2.591 -21.233  0.00  0.00    +0.000 A 
ATOM     30  C   UNL     1      -2.973   2.592 -22.095  0.00  0.00    +0.005 A 
ENDBRANCH  24  25
ENDBRANCH   9  24
TORSDOF 7
ENDMDL
