MODEL 1
REMARK VINA RESULT:    -8.366      0.000      0.000
REMARK INTER + INTRA:         -11.279
REMARK INTER:                 -10.390
REMARK INTRA:                  -0.889
REMARK UNBOUND:                -0.957
REMARK  Name = CC(C)=CC[C@@H](O)[C@@]1(C)[C@H]2CC[C@@H](C2)[C@@]1(C)O               ZINC000100393349
REMARK  9 active torsions:
REMARK  status: ('A' for Active; 'I' for Inactive)
REMARK    1  A    between atoms: C_1  and  C_2
REMARK    2  A    between atoms: C_2  and  C_3
REMARK    3  A    between atoms: C_4  and  C_5
REMARK    4  A    between atoms: C_5  and  C_6
REMARK    5  A    between atoms: C_6  and  O_7
REMARK    6  A    between atoms: C_6  and  C_8
REMARK    7  A    between atoms: C_8  and  C_9
REMARK    8  A    between atoms: C_15  and  C_16
REMARK    9  A    between atoms: C_15  and  O_17
REMARK                            x       y       z     vdW  Elec       q    Type
REMARK                         _______ _______ _______ _____ _____    ______ ____
ROOT
ATOM      1  C   UNL     1      -1.079   4.373 -23.750  0.00  0.00    +0.026 C 
ATOM      2  C   UNL     1       0.235   4.529 -23.605  0.00  0.00    +0.000 C 
ATOM      3  C   UNL     1       1.558   4.598 -23.647  0.00  0.00    +0.004 C 
ATOM      4  C   UNL     1       1.549   3.853 -25.231  0.00  0.00    +0.006 C 
ATOM      5  C   UNL     1       0.225   3.784 -25.190  0.00  0.00    +0.021 C 
ATOM      6  C   UNL     1       0.481   4.170 -24.406  0.00  0.00    +0.010 C 
ATOM      7  C   UNL     1      -1.217   4.927 -22.550  0.00  0.00    +0.017 C 
ATOM      8  C   UNL     1      -1.085   3.802 -24.965  0.00  0.00    +0.074 C 
ATOM      9  C   UNL     1      -2.216   3.747 -24.921  0.00  0.00    +0.042 C 
ENDROOT
BRANCH   8  10
ATOM     10  O   UNL     1      -1.216   3.232 -26.158  0.00  0.00    -0.388 OA
ATOM     11  H   UNL     1      -0.708   3.736 -26.815  0.00  0.00    +0.210 HD
ENDBRANCH   8  10
BRANCH   1  12
ATOM     12  C   UNL     1      -2.486   4.263 -23.783  0.00  0.00    +0.127 C 
BRANCH  12  13
ATOM     13  O   UNL     1      -3.175   4.812 -24.756  0.00  0.00    -0.391 OA
ATOM     14  H   UNL     1      -4.064   4.425 -24.781  0.00  0.00    +0.210 HD
ENDBRANCH  12  13
BRANCH  12  15
ATOM     15  C   UNL     1      -3.121   3.588 -22.804  0.00  0.00    +0.059 C 
BRANCH  15  18
ATOM     16  C   UNL     1      -6.324   2.708 -21.707  0.00  0.00    +0.038 C 
ATOM     17  C   UNL     1      -5.007   2.833 -21.739  0.00  0.00    -0.080 C 
ATOM     18  C   UNL     1      -4.424   3.462 -22.769  0.00  0.00    -0.026 C 
ATOM     19  C   UNL     1      -4.269   2.331 -20.745  0.00  0.00    +0.038 C 
ENDBRANCH  15  18
ENDBRANCH  12  15
ENDBRANCH   1  12
TORSDOF 5
ENDMDL
