MODEL 1
REMARK VINA RESULT:    -8.545      0.000      0.000
REMARK INTER + INTRA:         -10.965
REMARK INTER:                 -11.331
REMARK INTRA:                   0.367
REMARK UNBOUND:                -0.422
REMARK  Name = ZINC000000689935
REMARK  8 active torsions:
REMARK  status: ('A' for Active; 'I' for Inactive)
REMARK    1  A    between atoms: C_1  and  O_2
REMARK    2  A    between atoms: O_2  and  C_3
REMARK    3  A    between atoms: C_8  and  O_9
REMARK    4  A    between atoms: O_9  and  C_10
REMARK    5  A    between atoms: C_18  and  O_19
REMARK    6  A    between atoms: O_19  and  C_20
REMARK    7  A    between atoms: C_21  and  O_22
REMARK    8  A    between atoms: O_22  and  C_23
REMARK                            x       y       z     vdW  Elec       q    Type
REMARK                         _______ _______ _______ _____ _____    ______ ____
ROOT
ATOM      1  C   UNL     1       3.685   2.273 -22.077  0.00  0.00    +0.162 A 
ATOM      2  C   UNL     1       2.419   2.405 -21.816  0.00  0.00    +0.053 A 
ATOM      3  C   UNL     1       1.581   2.670 -22.773  0.00  0.00    -0.030 A 
ATOM      4  C   UNL     1       2.010   2.803 -23.994  0.00  0.00    +0.044 A 
ATOM      5  C   UNL     1       1.172   3.068 -24.952  0.00  0.00    +0.248 C 
ATOM      6  N   UNL     1      -0.094   3.201 -24.690  0.00  0.00    -0.290 N 
ATOM      7  C   UNL     1      -0.932   3.466 -25.648  0.00  0.00    +0.113 C 
ATOM      8  C   UNL     1      -2.198   3.598 -25.386  0.00  0.00    +0.054 C 
ATOM      9  C   UNL     1      -2.627   3.466 -24.166  0.00  0.00    -0.037 A 
ATOM     10  C   UNL     1      -3.893   3.598 -23.903  0.00  0.00    +0.053 A 
ATOM     11  C   UNL     1      -4.322   3.466 -22.683  0.00  0.00    +0.162 A 
ATOM     12  C   UNL     1      -3.484   3.201 -21.726  0.00  0.00    +0.162 A 
ATOM     13  C   UNL     1      -2.218   3.068 -21.987  0.00  0.00    +0.055 A 
ATOM     14  C   UNL     1      -1.789   3.201 -23.207  0.00  0.00    -0.020 A 
ATOM     15  C   UNL     1      -0.522   3.068 -23.470  0.00  0.00    +0.111 C 
ATOM     16  O   UNL     1       1.601   3.200 -26.172  0.00  0.00    -0.270 OA
ATOM     17  C   UNL     1       3.276   2.670 -24.256  0.00  0.00    +0.062 A 
ATOM     18  C   UNL     1       0.315   2.803 -22.512  0.00  0.00    +0.063 C 
ATOM     19  C   UNL     1       4.114   2.405 -23.297  0.00  0.00    +0.162 A 
ENDROOT
BRANCH   1  21
ATOM     20  C   UNL     1       4.642   0.790 -20.679  0.00  0.00    +0.277 C 
ATOM     21  O   UNL     1       4.524   2.008 -21.120  0.00  0.00    -0.491 OA
ENDBRANCH   1  21
BRANCH  12  22
ATOM     22  O   UNL     1      -3.913   3.069 -20.505  0.00  0.00    -0.491 OA
ATOM     23  C   UNL     1      -3.316   3.694 -19.535  0.00  0.00    +0.277 C 
ENDBRANCH  12  22
BRANCH  11  24
ATOM     24  O   UNL     1      -5.588   3.599 -22.422  0.00  0.00    -0.491 OA
ATOM     25  C   UNL     1      -6.237   2.634 -21.841  0.00  0.00    +0.277 C 
ENDBRANCH  11  24
BRANCH  19  26
ATOM     26  O   UNL     1       5.381   2.272 -23.560  0.00  0.00    -0.491 OA
ATOM     27  C   UNL     1       6.144   3.322 -23.628  0.00  0.00    +0.277 C 
ENDBRANCH  19  26
TORSDOF 4
ENDMDL
