MODEL 1
REMARK VINA RESULT:   -10.549      0.000      0.000
REMARK INTER + INTRA:         -10.857
REMARK INTER:                 -10.857
REMARK INTRA:                   0.000
REMARK UNBOUND:                 0.000
REMARK  Name = C=C1C(=O)O[C@@H]2/C=C(\C)[C@H](O)C/C=C(\C)CC[C@H]12                  ZINC000253393411
REMARK  3 active torsions:
REMARK  status: ('A' for Active; 'I' for Inactive)
REMARK    1  A    between atoms: C_8  and  C_9
REMARK    2  A    between atoms: C_10  and  O_11
REMARK    3  A    between atoms: C_14  and  C_15
REMARK                            x       y       z     vdW  Elec       q    Type
REMARK                         _______ _______ _______ _____ _____    ______ ____
ROOT
ATOM      1  C   UNL     1       0.603   1.536 -21.201  0.00  0.00    +0.020 C 
ATOM      2  C   UNL     1      -0.120   1.985 -22.186  0.00  0.00    +0.036 C 
ATOM      3  C   UNL     1       0.287   2.175 -23.410  0.00  0.00    +0.336 C 
ATOM      4  O   UNL     1      -0.715   2.630 -24.106  0.00  0.00    -0.453 OA
ATOM      5  C   UNL     1      -1.744   2.721 -23.310  0.00  0.00    +0.207 C 
ATOM      6  C   UNL     1      -2.830   3.070 -23.488  0.00  0.00    +0.019 C 
ATOM      7  C   UNL     1      -3.245   3.475 -24.645  0.00  0.00    -0.045 C 
ATOM      8  C   UNL     1      -4.550   3.883 -24.811  0.00  0.00    +0.144 C 
ATOM      9  C   UNL     1      -5.510   3.893 -23.769  0.00  0.00    +0.063 C 
ATOM     10  C   UNL     1      -5.257   3.504 -22.491  0.00  0.00    -0.025 C 
ATOM     11  C   UNL     1      -4.127   3.134 -22.280  0.00  0.00    -0.076 C 
ATOM     12  C   UNL     1      -3.628   2.713 -21.151  0.00  0.00    +0.031 C 
ATOM     13  C   UNL     1      -2.286   2.314 -21.064  0.00  0.00    +0.016 C 
ATOM     14  C   UNL     1      -3.507   3.168 -23.117  0.00  0.00    +0.039 C 
ATOM     15  C   UNL     1      -2.422   3.497 -25.665  0.00  0.00    +0.041 C 
ATOM     16  O   UNL     1       1.489   1.950 -23.863  0.00  0.00    -0.245 OA
ATOM     17  C   UNL     1      -1.378   2.324 -22.127  0.00  0.00    +0.070 C 
ENDROOT
BRANCH   8  18
ATOM     18  O   UNL     1      -4.924   4.284 -26.001  0.00  0.00    -0.387 OA
ATOM     19  H   UNL     1      -4.144   4.371 -26.572  0.00  0.00    +0.210 HD
ENDBRANCH   8  18
TORSDOF 1
ENDMDL
