MODEL 1
REMARK VINA RESULT:   -11.107      0.000      0.000
REMARK INTER + INTRA:         -11.756
REMARK INTER:                 -11.756
REMARK INTRA:                   0.000
REMARK UNBOUND:                 0.000
REMARK  Name = ZINC000003902446
REMARK  3 active torsions:
REMARK  status: ('A' for Active; 'I' for Inactive)
REMARK    1  A    between atoms: C_1  and  C_2
REMARK    2  A    between atoms: C_10  and  O_11
REMARK    3  A    between atoms: C_20  and  O_21
REMARK                            x       y       z     vdW  Elec       q    Type
REMARK                         _______ _______ _______ _____ _____    ______ ____
ROOT
ATOM      1  C   UNL     1      -4.587   3.042 -21.811  0.00  0.00    +0.014 C 
ATOM      2  C   UNL     1      -3.867   3.284 -22.865  0.00  0.00    -0.003 C 
ATOM      3  C   UNL     1      -3.198   2.775 -21.874  0.00  0.00    +0.010 C 
ATOM      4  C   UNL     1      -1.923   2.553 -21.995  0.00  0.00    +0.009 C 
ATOM      5  C   UNL     1      -1.316   2.841 -23.108  0.00  0.00    +0.023 C 
ATOM      6  C   UNL     1      -0.041   2.620 -23.230  0.00  0.00    -0.040 A 
ATOM      7  C   UNL     1       0.627   2.110 -22.239  0.00  0.00    +0.023 A 
ATOM      8  C   UNL     1       1.903   1.889 -22.360  0.00  0.00    +0.060 A 
ATOM      9  C   UNL     1       2.509   2.177 -23.474  0.00  0.00    +0.131 A 
ATOM     10  C   UNL     1       1.840   2.686 -24.465  0.00  0.00    +0.050 A 
ATOM     11 BR   UNL     1       2.572   1.379 -21.368  0.00  0.00    -0.047 Br
ATOM     12  C   UNL     1       0.565   2.907 -24.343  0.00  0.00    -0.040 A 
ATOM     13  C   UNL     1      -0.104   3.417 -25.335  0.00  0.00    +0.036 C 
ATOM     14  C   UNL     1      -1.379   3.638 -25.214  0.00  0.00    +0.009 C 
ATOM     15  C   UNL     1      -1.985   3.351 -24.100  0.00  0.00    +0.000 C 
ATOM     16  C   UNL     1      -5.121   3.596 -22.998  0.00  0.00    +0.121 C 
ATOM     17  C   UNL     1      -5.291   4.077 -24.194  0.00  0.00    +0.032 C 
ATOM     18  C   UNL     1      -4.140   4.062 -24.800  0.00  0.00    +0.007 C 
ATOM     19  C   UNL     1      -3.260   3.572 -23.978  0.00  0.00    +0.001 C 
ENDROOT
BRANCH   9  20
ATOM     20  O   UNL     1       3.785   1.955 -23.595  0.00  0.00    -0.506 OA
ATOM     21  H   UNL     1       4.101   1.406 -24.285  0.00  0.00    +0.292 HD
ENDBRANCH   9  20
BRANCH  16  22
ATOM     22  O   UNL     1      -6.045   3.453 -22.095  0.00  0.00    -0.391 OA
ATOM     23  H   UNL     1      -6.527   2.626 -22.254  0.00  0.00    +0.210 HD
ENDBRANCH  16  22
TORSDOF 2
ENDMDL
