MODEL 1
REMARK VINA RESULT:    -5.629      0.000      0.000
REMARK INTER + INTRA:          -6.683
REMARK INTER:                  -6.300
REMARK INTRA:                  -0.382
REMARK UNBOUND:                -0.396
REMARK  Name = ZINC000001530365
REMARK  3 active torsions:
REMARK  status: ('A' for Active; 'I' for Inactive)
REMARK    1  A    between atoms: C_1  and  C_2
REMARK    2  A    between atoms: C_2  and  C_4
REMARK    3  A    between atoms: C_4  and  C_5
REMARK                            x       y       z     vdW  Elec       q    Type
REMARK                         _______ _______ _______ _____ _____    ______ ____
ROOT
ATOM      1  C   UNL     1      -3.959   3.772 -23.627  0.00  0.00    +0.070 C 
ATOM      2  C   UNL     1      -5.201   3.752 -23.244  0.00  0.00    +0.055 C 
ATOM      3  C   UNL     1      -5.523   3.195 -22.114  0.00  0.00    +0.011 C 
ATOM      4  C   UNL     1      -4.604   2.658 -21.368  0.00  0.00    +0.051 C 
ATOM      5  C   UNL     1      -3.362   2.679 -21.752  0.00  0.00    +0.129 C 
ATOM      6  N   UNL     1      -3.039   3.236 -22.881  0.00  0.00    +0.229 N 
ATOM      7  H   UNL     1      -2.709   2.451 -23.444  0.00  0.00    +0.202 HD
ATOM      8  H   UNL     1      -2.368   3.973 -22.665  0.00  0.00    +0.202 HD
ENDROOT
BRANCH   1   9
ATOM      9  C   UNL     1      -3.637   4.330 -24.757  0.00  0.00    +0.128 C 
BRANCH   9  11
ATOM     10  C   UNL     1      -3.440   3.327 -26.763  0.00  0.00    +0.086 C 
ATOM     11  C   UNL     1      -2.921   3.676 -25.624  0.00  0.00    +0.136 C 
ATOM     12  O   UNL     1      -1.687   3.372 -25.351  0.00  0.00    -0.297 OA
ENDBRANCH   9  11
ENDBRANCH   1   9
TORSDOF 2
ENDMDL
