MODEL 1
REMARK VINA RESULT:   -11.596      0.000      0.000
REMARK INTER + INTRA:         -11.596
REMARK INTER:                 -11.596
REMARK INTRA:                   0.000
REMARK UNBOUND:                 0.000
REMARK  Name = ZINC000020111233
REMARK  1 active torsions:
REMARK  status: ('A' for Active; 'I' for Inactive)
REMARK    1  A    between atoms: C_1  and  N_2
REMARK                            x       y       z     vdW  Elec       q    Type
REMARK                         _______ _______ _______ _____ _____    ______ ____
ROOT
ATOM      1  C   UNL     1       0.595   3.565 -25.848  0.00  0.00    +0.191 C 
ATOM      2  N   UNL     1      -0.026   3.206 -24.764  0.00  0.00    +0.237 N 
ATOM      3  H   UNL     1       0.476   2.731 -24.013  0.00  0.00    +0.203 HD
ATOM      4  C   UNL     1       0.622   2.601 -23.813  0.00  0.00    +0.136 C 
ATOM      5  C   UNL     1       1.892   2.355 -23.946  0.00  0.00    +0.087 C 
ATOM      6  C   UNL     1       2.540   1.750 -22.996  0.00  0.00    -0.028 A 
ATOM      7  C   UNL     1       3.810   1.504 -23.129  0.00  0.00    +0.054 A 
ATOM      8  C   UNL     1       4.457   0.899 -22.179  0.00  0.00    +0.167 A 
ATOM      9  C   UNL     1       3.836   0.541 -21.095  0.00  0.00    +0.167 A 
ATOM     10  O   UNL     1       4.698  -0.038 -20.310  0.00  0.00    -0.453 OA
ATOM     11  C   UNL     1       5.851  -0.036 -20.910  0.00  0.00    +0.466 C 
ATOM     12  C   UNL     1       2.567   0.786 -20.961  0.00  0.00    +0.061 A 
ATOM     13  O   UNL     1       5.703   0.543 -22.065  0.00  0.00    -0.453 OA
ATOM     14  C   UNL     1       1.919   1.391 -21.912  0.00  0.00    +0.025 A 
ATOM     15  C   UNL     1       0.649   1.637 -21.778  0.00  0.00    +0.168 C 
ATOM     16  C   UNL     1       0.001   2.243 -22.729  0.00  0.00    +0.115 C 
ATOM     17  C   UNL     1      -1.269   2.489 -22.596  0.00  0.00    -0.028 A 
ATOM     18  C   UNL     1      -1.890   2.130 -21.512  0.00  0.00    +0.008 A 
ATOM     19  C   UNL     1      -3.160   2.376 -21.378  0.00  0.00    +0.050 A 
ATOM     20  C   UNL     1      -3.807   2.981 -22.329  0.00  0.00    +0.167 A 
ATOM     21  C   UNL     1      -3.186   3.339 -23.413  0.00  0.00    +0.175 A 
ATOM     22  O   UNL     1      -4.047   3.918 -24.197  0.00  0.00    -0.452 OA
ATOM     23  C   UNL     1      -5.201   3.916 -23.597  0.00  0.00    +0.466 C 
ATOM     24  O   UNL     1      -5.053   3.337 -22.442  0.00  0.00    -0.453 OA
ATOM     25  C   UNL     1      -1.917   3.094 -23.546  0.00  0.00    +0.046 A 
ATOM     26  O   UNL     1       0.028   1.279 -20.694  0.00  0.00    -0.292 OA
ATOM     27  C   UNL     1      -1.296   3.453 -24.630  0.00  0.00    +0.171 C 
ENDROOT
TORSDOF 0
ENDMDL
