MODEL 1
REMARK VINA RESULT:   -10.352      0.000      0.000
REMARK INTER + INTRA:         -10.654
REMARK INTER:                 -10.654
REMARK INTRA:                   0.000
REMARK UNBOUND:                 0.000
REMARK  Name = CC1=C2CC[C@](C)(O)[C@@H]2[C@H]2OC(=O)[C@H](C)[C@@H]2CC1              ZINC000106803358
REMARK  4 active torsions:
REMARK  status: ('A' for Active; 'I' for Inactive)
REMARK    1  A    between atoms: C_1  and  C_2
REMARK    2  A    between atoms: C_6  and  C_7
REMARK    3  A    between atoms: C_6  and  O_8
REMARK    4  A    between atoms: C_14  and  C_15
REMARK                            x       y       z     vdW  Elec       q    Type
REMARK                         _______ _______ _______ _____ _____    ______ ____
ROOT
ATOM      1  C   UNL     1      -5.764   3.385 -22.136  0.00  0.00    +0.039 C 
ATOM      2  C   UNL     1      -4.517   3.113 -22.385  0.00  0.00    -0.073 C 
ATOM      3  C   UNL     1      -4.139   3.274 -23.618  0.00  0.00    -0.061 C 
ATOM      4  C   UNL     1      -4.934   3.680 -24.563  0.00  0.00    +0.034 C 
ATOM      5  C   UNL     1      -4.250   3.734 -25.668  0.00  0.00    +0.039 C 
ATOM      6  C   UNL     1      -3.033   3.363 -25.405  0.00  0.00    +0.073 C 
ATOM      7  C   UNL     1      -2.839   3.578 -26.672  0.00  0.00    +0.042 C 
ATOM      8  C   UNL     1      -2.964   3.078 -24.138  0.00  0.00    +0.087 C 
ATOM      9  C   UNL     1      -1.876   2.672 -23.553  0.00  0.00    +0.190 C 
ATOM     10  O   UNL     1      -0.746   2.509 -24.175  0.00  0.00    -0.460 OA
ATOM     11  C   UNL     1       0.133   2.099 -23.310  0.00  0.00    +0.311 C 
ATOM     12  C   UNL     1      -0.454   2.008 -22.153  0.00  0.00    +0.101 C 
ATOM     13  C   UNL     1       0.104   1.630 -21.042  0.00  0.00    +0.019 C 
ATOM     14  O   UNL     1       1.380   1.827 -23.558  0.00  0.00    -0.251 OA
ATOM     15  C   UNL     1      -1.695   2.363 -22.303  0.00  0.00    +0.044 C 
ATOM     16  C   UNL     1      -2.557   2.382 -21.330  0.00  0.00    +0.012 C 
ATOM     17  C   UNL     1      -3.812   2.716 -21.366  0.00  0.00    +0.031 C 
ENDROOT
BRANCH   6  18
ATOM     18  O   UNL     1      -1.774   3.036 -25.407  0.00  0.00    -0.388 OA
ATOM     19  H   UNL     1      -1.597   2.428 -24.673  0.00  0.00    +0.210 HD
ENDBRANCH   6  18
TORSDOF 1
ENDMDL
