MODEL 1
REMARK VINA RESULT:    -9.120      0.000      0.000
REMARK INTER + INTRA:          -9.653
REMARK INTER:                  -9.653
REMARK INTRA:                   0.000
REMARK UNBOUND:                 0.000
REMARK  Name = ZINC000004104790
REMARK  2 active torsions:
REMARK  status: ('A' for Active; 'I' for Inactive)
REMARK    1  A    between atoms: C_11  and  O_12
REMARK    2  A    between atoms: C_15  and  O_16
REMARK                            x       y       z     vdW  Elec       q    Type
REMARK                         _______ _______ _______ _____ _____    ______ ____
ROOT
ATOM      1  O   UNL     1      -1.887   3.599 -25.415  0.00  0.00    -0.286 OA
ATOM      2  C   UNL     1      -1.895   3.171 -24.187  0.00  0.00    +0.204 A 
ATOM      3  C   UNL     1      -2.993   3.211 -23.493  0.00  0.00    +0.065 A 
ATOM      4  C   UNL     1      -4.084   3.677 -24.026  0.00  0.00    +0.015 A 
ATOM      5  C   UNL     1      -5.182   3.716 -23.330  0.00  0.00    +0.001 A 
ATOM      6  C   UNL     1      -5.190   3.289 -22.104  0.00  0.00    +0.004 A 
ATOM      7  C   UNL     1      -4.100   2.823 -21.570  0.00  0.00    +0.047 A 
ATOM      8  C   UNL     1      -3.001   2.783 -22.265  0.00  0.00    +0.139 A 
ATOM      9  O   UNL     1      -1.912   2.317 -21.731  0.00  0.00    -0.451 OA
ATOM     10  C   UNL     1      -0.814   2.278 -22.426  0.00  0.00    +0.184 A 
ATOM     11  C   UNL     1       0.277   1.811 -21.893  0.00  0.00    +0.160 A 
ATOM     12  C   UNL     1       1.375   1.772 -22.587  0.00  0.00    +0.053 A 
ATOM     13  C   UNL     1       1.383   2.199 -23.815  0.00  0.00    +0.050 A 
ATOM     14  C   UNL     1       0.293   2.666 -24.348  0.00  0.00    +0.131 A 
ATOM     15  C   UNL     1      -0.806   2.705 -23.654  0.00  0.00    +0.109 A 
ENDROOT
BRANCH  14  16
ATOM     16  O   UNL     1       0.301   3.093 -25.576  0.00  0.00    -0.506 OA
ATOM     17  H   UNL     1      -0.233   2.673 -26.222  0.00  0.00    +0.292 HD
ENDBRANCH  14  16
BRANCH  11  18
ATOM     18  O   UNL     1       0.269   1.384 -20.665  0.00  0.00    -0.503 OA
ATOM     19  H   UNL     1       0.072   0.485 -20.483  0.00  0.00    +0.292 HD
ENDBRANCH  11  18
TORSDOF 2
ENDMDL
