MODEL 1
REMARK VINA RESULT:    -7.569      0.000      0.000
REMARK INTER + INTRA:          -9.787
REMARK INTER:                  -9.580
REMARK INTRA:                  -0.208
REMARK UNBOUND:                -0.006
REMARK  Name = ZINC000000399557
REMARK  7 active torsions:
REMARK  status: ('A' for Active; 'I' for Inactive)
REMARK    1  A    between atoms: CD1_1  and  CG_2
REMARK    2  A    between atoms: CG_2  and  CD2_3
REMARK    3  A    between atoms: CG_2  and  CB_4
REMARK    4  A    between atoms: CB_4  and  CA_5
REMARK    5  A    between atoms: CA_5  and  N_6
REMARK    6  A    between atoms: CA_5  and  C_15
REMARK    7  A    between atoms: C_7  and  C_9
REMARK                            x       y       z     vdW  Elec       q    Type
REMARK                         _______ _______ _______ _____ _____    ______ ____
ROOT
ATOM      1  N   LEU A   1       0.185   2.648 -22.096  0.00  0.00    -0.303 N 
ATOM      2  H   LEU A   1       0.162   3.104 -21.224  0.00  0.00    +0.150 HD
ATOM      3  C   UNK A   0      -0.917   2.447 -22.755  0.00  0.00    +0.245 C 
ATOM      4  O   UNK A   0      -0.885   1.844 -23.907  0.00  0.00    -0.270 OA
ENDROOT
BRANCH   3   5
ATOM      5  C   UNK A   0      -2.051   2.850 -22.264  0.00  0.00    +0.037 A 
ATOM      6  C   UNK A   0      -3.081   2.999 -23.042  0.00  0.00    +0.013 A 
ATOM      7  C   UNK A   0      -4.215   3.401 -22.550  0.00  0.00    +0.001 A 
ATOM      8  C   UNK A   0      -4.318   3.655 -21.279  0.00  0.00    +0.000 A 
ATOM      9  C   UNK A   0      -3.288   3.506 -20.500  0.00  0.00    +0.001 A 
ATOM     10  C   UNK A   0      -2.154   3.103 -20.993  0.00  0.00    +0.013 A 
ENDBRANCH   3   5
BRANCH   1  11
ATOM     11  CA  LEU A   1       1.319   2.245 -22.589  0.00  0.00    +0.119 C 
BRANCH  11  12
ATOM     12  C   LEU A   1       1.914   1.204 -22.086  0.00  0.00    +0.062 C 
ATOM     13  OXT LEU A   1       2.123   1.130 -20.804  0.00  0.00    -0.548 OA
ATOM     14  O   LEU A   1       2.299   0.236 -22.864  0.00  0.00    -0.548 OA
ENDBRANCH  11  12
BRANCH  11  15
ATOM     15  CB  LEU A   1       1.859   2.884 -23.584  0.00  0.00    +0.031 C 
BRANCH  15  17
ATOM     16  CD1 LEU A   1       3.844   3.870 -23.188  0.00  0.00    +0.007 C 
ATOM     17  CG  LEU A   1       2.559   3.957 -23.364  0.00  0.00    -0.015 C 
ATOM     18  CD2 LEU A   1       1.974   5.117 -23.322  0.00  0.00    +0.007 C 
ENDBRANCH  15  17
ENDBRANCH  11  15
ENDBRANCH   1  11
TORSDOF 5
ENDMDL
