MODEL 1
REMARK VINA RESULT:    -8.793      0.000      0.000
REMARK INTER + INTRA:         -11.466
REMARK INTER:                 -10.648
REMARK INTRA:                  -0.818
REMARK UNBOUND:                -0.103
REMARK  Name = ZINC000000338302
REMARK  8 active torsions:
REMARK  status: ('A' for Active; 'I' for Inactive)
REMARK    1  A    between atoms: C_1  and  O_2
REMARK    2  A    between atoms: O_2  and  C_3
REMARK    3  A    between atoms: C_6  and  C_7
REMARK    4  A    between atoms: C_7  and  C_8
REMARK    5  A    between atoms: C_7  and  C_9
REMARK    6  A    between atoms: C_9  and  C_11
REMARK    7  A    between atoms: C_14  and  O_15
REMARK    8  A    between atoms: C_17  and  O_18
REMARK                            x       y       z     vdW  Elec       q    Type
REMARK                         _______ _______ _______ _____ _____    ______ ____
ROOT
ATOM      1  C   UNL     1      -1.721   3.714 -24.442  0.00  0.00    +0.174 C 
ATOM      2  O   UNL     1      -1.581   3.326 -25.675  0.00  0.00    -0.291 OA
ENDROOT
BRANCH   1   3
ATOM      3  C   UNL     1      -2.884   3.643 -23.866  0.00  0.00    +0.060 A 
ATOM      4  C   UNL     1      -3.013   3.013 -22.736  0.00  0.00    +0.018 A 
ATOM      5  C   UNL     1      -4.176   2.942 -22.160  0.00  0.00    +0.046 A 
ATOM      6  C   UNL     1      -5.211   3.501 -22.714  0.00  0.00    +0.120 A 
ATOM      7  C   UNL     1      -5.082   4.131 -23.844  0.00  0.00    +0.091 A 
ATOM      8  C   UNL     1      -3.919   4.202 -24.420  0.00  0.00    +0.131 A 
BRANCH   6   9
ATOM      9  O   UNL     1      -6.374   3.430 -22.138  0.00  0.00    -0.507 OA
ATOM     10  H   UNL     1      -7.155   3.547 -22.643  0.00  0.00    +0.292 HD
ENDBRANCH   6   9
BRANCH   8  11
ATOM     11  O   UNL     1      -3.791   4.832 -25.550  0.00  0.00    -0.506 OA
ATOM     12  H   UNL     1      -4.541   4.975 -26.094  0.00  0.00    +0.292 HD
ENDBRANCH   8  11
ENDBRANCH   1   3
BRANCH   1  13
ATOM     13  C   UNL     1      -0.697   4.173 -23.785  0.00  0.00    +0.087 C 
ATOM     14  C   UNL     1      -0.737   5.366 -23.269  0.00  0.00    +0.021 C 
BRANCH  13  18
ATOM     15  C   UNL     1       2.495   1.972 -23.363  0.00  0.00    +0.120 A 
ATOM     16  C   UNL     1       2.467   2.912 -24.261  0.00  0.00    +0.046 A 
ATOM     17  C   UNL     1       1.404   3.646 -24.402  0.00  0.00    +0.008 A 
ATOM     18  C   UNL     1       0.366   3.440 -23.644  0.00  0.00    -0.037 A 
ATOM     19  C   UNL     1       0.394   2.500 -22.747  0.00  0.00    +0.008 A 
ATOM     20  C   UNL     1       1.458   1.766 -22.606  0.00  0.00    +0.046 A 
BRANCH  15  22
ATOM     21  C   UNL     1       3.794   0.647 -22.089  0.00  0.00    +0.277 C 
ATOM     22  O   UNL     1       3.559   1.239 -23.222  0.00  0.00    -0.495 OA
ENDBRANCH  15  22
ENDBRANCH  13  18
ENDBRANCH   1  13
TORSDOF 6
ENDMDL
