MODEL 1
REMARK VINA RESULT:   -10.754      0.000      0.000
REMARK INTER + INTRA:         -11.068
REMARK INTER:                 -11.068
REMARK INTRA:                   0.000
REMARK UNBOUND:                 0.000
REMARK  Name = CN1CC[C@@]23CC(=O)CC[C@H]2[C@H]1Cc1ccc(O)cc13                        ZINC000169369172
REMARK  2 active torsions:
REMARK  status: ('A' for Active; 'I' for Inactive)
REMARK    1  A    between atoms: C_1  and  N_2
REMARK    2  A    between atoms: C_17  and  O_18
REMARK                            x       y       z     vdW  Elec       q    Type
REMARK                         _______ _______ _______ _____ _____    ______ ____
ROOT
ATOM      1  C   UNL     1      -3.683   3.011 -20.266  0.00  0.00    +0.190 C 
ATOM      2  N   UNL     1      -3.473   3.100 -21.762  0.00  0.00    +0.236 N 
ATOM      3  H   UNL     1      -4.192   3.403 -22.420  0.00  0.00    +0.203 HD
ATOM      4  C   UNL     1      -3.360   3.187 -22.936  0.00  0.00    +0.132 C 
ATOM      5  C   UNL     1      -2.374   2.937 -23.599  0.00  0.00    +0.063 C 
ATOM      6  C   UNL     1      -1.579   2.633 -23.166  0.00  0.00    +0.015 C 
ATOM      7  C   UNL     1      -0.499   2.345 -23.757  0.00  0.00    +0.086 C 
ATOM      8  C   UNL     1       0.536   1.937 -23.071  0.00  0.00    +0.134 C 
ATOM      9  C   UNL     1       0.469   1.820 -21.754  0.00  0.00    +0.075 C 
ATOM     10  C   UNL     1      -0.626   2.107 -21.101  0.00  0.00    +0.017 C 
ATOM     11  O   UNL     1       1.621   1.654 -23.721  0.00  0.00    -0.297 OA
ATOM     12  C   UNL     1      -3.063   3.182 -23.808  0.00  0.00    -0.033 A 
ATOM     13  C   UNL     1      -3.006   3.299 -25.089  0.00  0.00    +0.050 A 
ATOM     14  C   UNL     1      -4.027   3.699 -25.741  0.00  0.00    +0.117 A 
ATOM     15  C   UNL     1      -5.119   3.988 -25.119  0.00  0.00    +0.046 A 
ATOM     16  C   UNL     1      -5.182   3.872 -23.828  0.00  0.00    +0.007 A 
ATOM     17  C   UNL     1      -4.161   3.472 -23.173  0.00  0.00    -0.038 A 
ATOM     18  C   UNL     1      -4.179   3.352 -21.981  0.00  0.00    +0.090 C 
ATOM     19  C   UNL     1      -1.655   2.508 -21.738  0.00  0.00    +0.049 C 
ATOM     20  C   UNL     1      -2.845   2.839 -21.218  0.00  0.00    +0.072 C 
ENDROOT
BRANCH  14  21
ATOM     21  O   UNL     1      -3.805   3.768 -27.082  0.00  0.00    -0.507 OA
ATOM     22  H   UNL     1      -4.434   4.180 -27.640  0.00  0.00    +0.292 HD
ENDBRANCH  14  21
TORSDOF 1
ENDMDL
