MODEL 1
REMARK VINA RESULT:    -7.567      0.000      0.000
REMARK INTER + INTRA:          -7.788
REMARK INTER:                  -7.788
REMARK INTRA:                   0.000
REMARK UNBOUND:                 0.000
REMARK  Name = ZINC000000058121
REMARK  2 active torsions:
REMARK  status: ('A' for Active; 'I' for Inactive)
REMARK    1  A    between atoms: C_1  and  C_2
REMARK    2  A    between atoms: C_9  and  O_10
REMARK                            x       y       z     vdW  Elec       q    Type
REMARK                         _______ _______ _______ _____ _____    ______ ____
ROOT
ATOM      1  C   UNL     1      -3.135   3.375 -20.487  0.00  0.00    +0.045 C 
ATOM      2  C   UNL     1      -2.509   2.919 -21.532  0.00  0.00    -0.033 A 
ATOM      3  C   UNL     1      -1.367   2.314 -21.392  0.00  0.00    +0.096 A 
ATOM      4  C   UNL     1      -0.741   1.859 -22.437  0.00  0.00    +0.337 A 
ATOM      5  O   UNL     1      -1.256   2.009 -23.620  0.00  0.00    -0.422 OA
ATOM      6  C   UNL     1      -2.398   2.615 -23.759  0.00  0.00    +0.143 A 
ATOM      7  C   UNL     1      -2.914   2.765 -24.944  0.00  0.00    +0.092 A 
ATOM      8  C   UNL     1      -4.056   3.371 -25.083  0.00  0.00    +0.120 A 
ATOM      9  C   UNL     1      -4.682   3.826 -24.038  0.00  0.00    +0.046 A 
ATOM     10  C   UNL     1      -4.167   3.676 -22.855  0.00  0.00    +0.015 A 
ATOM     11  O   UNL     1       0.401   1.253 -22.298  0.00  0.00    -0.245 OA
ATOM     12  C   UNL     1      -3.024   3.070 -22.715  0.00  0.00    +0.021 A 
ENDROOT
BRANCH   8  13
ATOM     13  O   UNL     1      -4.571   3.521 -26.267  0.00  0.00    -0.507 OA
ATOM     14  H   UNL     1      -4.024   3.755 -26.990  0.00  0.00    +0.292 HD
ENDBRANCH   8  13
TORSDOF 1
ENDMDL
