MODEL 1
REMARK VINA RESULT:    -8.243      0.000      0.000
REMARK INTER + INTRA:          -8.243
REMARK INTER:                  -8.243
REMARK INTRA:                   0.000
REMARK UNBOUND:                 0.000
REMARK  Name = ZINC000013130932
REMARK  1 active torsions:
REMARK  status: ('A' for Active; 'I' for Inactive)
REMARK    1  A    between atoms: C_1  and  C_2
REMARK                            x       y       z     vdW  Elec       q    Type
REMARK                         _______ _______ _______ _____ _____    ______ ____
ROOT
ATOM      1  C   UNL     1       0.466   1.504 -21.447  0.00  0.00    +0.067 C 
ATOM      2  C   UNL     1      -0.093   2.084 -22.469  0.00  0.00    +0.056 C 
ATOM      3  N   UNL     1       0.614   2.366 -23.523  0.00  0.00    -0.286 NA
ATOM      4  C   UNL     1       0.054   2.945 -24.543  0.00  0.00    +0.146 C 
ATOM      5  C   UNL     1      -1.210   3.242 -24.510  0.00  0.00    +0.061 C 
ATOM      6  C   UNL     1      -1.916   2.960 -23.455  0.00  0.00    -0.012 A 
ATOM      7  C   UNL     1      -3.172   3.147 -23.173  0.00  0.00    +0.004 A 
ATOM      8  C   UNL     1      -4.145   3.680 -23.851  0.00  0.00    +0.010 A 
ATOM      9  C   UNL     1      -5.335   3.749 -23.333  0.00  0.00    +0.001 A 
ATOM     10  C   UNL     1      -5.552   3.286 -22.138  0.00  0.00    +0.002 A 
ATOM     11  C   UNL     1      -4.579   2.753 -21.461  0.00  0.00    +0.026 A 
ATOM     12  C   UNL     1      -3.389   2.684 -21.979  0.00  0.00    +0.047 A 
ATOM     13  N   UNL     1      -2.267   2.210 -21.522  0.00  0.00    -0.353 N 
ATOM     14  H   UNL     1      -2.131   1.795 -20.640  0.00  0.00    +0.166 HD
ATOM     15  C   UNL     1      -1.357   2.381 -22.435  0.00  0.00    +0.064 A 
ENDROOT
TORSDOF 0
ENDMDL
