MODEL 1
REMARK VINA RESULT:   -11.211      0.000      0.000
REMARK INTER + INTRA:         -12.336
REMARK INTER:                 -12.187
REMARK INTRA:                  -0.149
REMARK UNBOUND:                -0.143
REMARK  Name = COc1ccc2c3c1O[C@]1(C)[C@@H](O)C=C[C@@H]4[C@@H](C2)N(C)CC[C@@]341     ZINC000253505005
REMARK  5 active torsions:
REMARK  status: ('A' for Active; 'I' for Inactive)
REMARK    1  A    between atoms: C_1  and  O_2
REMARK    2  A    between atoms: O_2  and  C_3
REMARK    3  A    between atoms: C_10  and  C_11
REMARK    4  A    between atoms: C_12  and  O_13
REMARK    5  A    between atoms: N_19  and  C_20
REMARK                            x       y       z     vdW  Elec       q    Type
REMARK                         _______ _______ _______ _____ _____    ______ ____
ROOT
ATOM      1  C   UNL     1       0.433   2.216 -23.343  0.00  0.00    +0.162 A 
ATOM      2  C   UNL     1       0.399   1.877 -22.125  0.00  0.00    +0.050 A 
ATOM      3  C   UNL     1      -0.671   1.941 -21.477  0.00  0.00    +0.008 A 
ATOM      4  C   UNL     1      -1.718   2.344 -22.039  0.00  0.00    -0.034 A 
ATOM      5  C   UNL     1      -1.704   2.686 -23.251  0.00  0.00    +0.012 A 
ATOM      6  C   UNL     1      -2.749   3.088 -23.809  0.00  0.00    +0.058 C 
ATOM      7  C   UNL     1      -3.873   3.559 -24.548  0.00  0.00    +0.067 C 
ATOM      8  C   UNL     1      -5.093   3.641 -23.843  0.00  0.00    +0.132 C 
ATOM      9  N   UNL     1      -5.092   3.254 -22.487  0.00  0.00    +0.236 N 
ATOM     10  H   UNL     1      -5.946   3.293 -21.929  0.00  0.00    +0.203 HD
ATOM     11  C   UNL     1      -6.131   3.297 -21.792  0.00  0.00    +0.190 C 
ATOM     12  C   UNL     1      -3.850   2.812 -21.945  0.00  0.00    +0.076 C 
ATOM     13  C   UNL     1      -3.820   3.152 -23.164  0.00  0.00    +0.075 C 
ATOM     14  C   UNL     1      -4.874   3.558 -23.729  0.00  0.00    -0.019 C 
ATOM     15  C   UNL     1      -4.851   3.896 -24.934  0.00  0.00    +0.004 C 
ATOM     16  C   UNL     1      -3.774   3.834 -25.592  0.00  0.00    +0.181 C 
ATOM     17  C   UNL     1      -2.728   3.432 -25.035  0.00  0.00    +0.148 C 
ATOM     18  C   UNL     1      -2.420   3.698 -26.219  0.00  0.00    +0.060 C 
ATOM     19  O   UNL     1      -1.256   3.130 -25.173  0.00  0.00    -0.478 OA
ATOM     20  C   UNL     1      -2.808   2.410 -21.384  0.00  0.00    +0.090 C 
ATOM     21  C   UNL     1      -0.627   2.623 -23.908  0.00  0.00    +0.167 A 
ENDROOT
BRANCH   1  23
ATOM     22  C   UNL     1       2.178   3.185 -24.191  0.00  0.00    +0.277 C 
ATOM     23  O   UNL     1       1.504   2.151 -23.986  0.00  0.00    -0.491 OA
ENDBRANCH   1  23
BRANCH  16  24
ATOM     24  O   UNL     1      -3.753   4.173 -26.798  0.00  0.00    -0.384 OA
ATOM     25  H   UNL     1      -3.229   4.984 -26.897  0.00  0.00    +0.210 HD
ENDBRANCH  16  24
TORSDOF 2
ENDMDL
