MODEL 1
REMARK VINA RESULT:    -9.531      0.000      0.000
REMARK INTER + INTRA:         -11.473
REMARK INTER:                 -11.244
REMARK INTRA:                  -0.229
REMARK UNBOUND:                -0.271
REMARK  Name = ZINC000000338368
REMARK  5 active torsions:
REMARK  status: ('A' for Active; 'I' for Inactive)
REMARK    1  A    between atoms: C_1  and  O_2
REMARK    2  A    between atoms: O_2  and  C_3
REMARK    3  A    between atoms: C_8  and  O_9
REMARK    4  A    between atoms: O_9  and  C_10
REMARK    5  A    between atoms: C_16  and  C_17
REMARK                            x       y       z     vdW  Elec       q    Type
REMARK                         _______ _______ _______ _____ _____    ______ ____
ROOT
ATOM      1  C   UNL     1       4.176   2.493 -23.107  0.00  0.00    +0.162 A 
ATOM      2  C   UNL     1       3.564   2.998 -24.137  0.00  0.00    +0.053 A 
ATOM      3  C   UNL     1       2.272   3.134 -24.123  0.00  0.00    -0.037 A 
ATOM      4  C   UNL     1       1.590   2.765 -23.080  0.00  0.00    -0.020 A 
ATOM      5  C   UNL     1       0.298   2.901 -23.066  0.00  0.00    +0.111 C 
ATOM      6  C   UNL     1      -0.384   2.533 -22.022  0.00  0.00    +0.063 C 
ATOM      7  C   UNL     1      -1.677   2.669 -22.008  0.00  0.00    -0.033 A 
ATOM      8  C   UNL     1      -2.358   2.300 -20.964  0.00  0.00    +0.006 A 
ATOM      9  C   UNL     1      -3.651   2.436 -20.950  0.00  0.00    +0.019 A 
ATOM     10  C   UNL     1      -4.262   2.941 -21.981  0.00  0.00    +0.053 A 
ATOM     11  C   UNL     1      -3.581   3.310 -23.025  0.00  0.00    +0.032 A 
ATOM     12  C   UNL     1      -2.288   3.173 -23.038  0.00  0.00    +0.041 A 
ATOM     13  C   UNL     1      -1.607   3.542 -24.082  0.00  0.00    +0.247 C 
ATOM     14  O   UNL     1      -2.218   4.047 -25.112  0.00  0.00    -0.270 OA
ATOM     15  N   UNL     1      -0.314   3.406 -24.096  0.00  0.00    -0.290 N 
ATOM     16  C   UNL     1       0.367   3.775 -25.140  0.00  0.00    +0.113 C 
ATOM     17  C   UNL     1       2.201   2.260 -22.050  0.00  0.00    +0.055 A 
ATOM     18  C   UNL     1       1.660   3.639 -25.154  0.00  0.00    +0.054 C 
ATOM     19  C   UNL     1       3.495   2.124 -22.063  0.00  0.00    +0.162 A 
ENDROOT
BRANCH   1  21
ATOM     20  C   UNL     1       6.229   3.391 -23.324  0.00  0.00    +0.277 C 
ATOM     21  O   UNL     1       5.469   2.357 -23.121  0.00  0.00    -0.491 OA
ENDBRANCH   1  21
BRANCH  10  22
ATOM     22  C   UNL     1      -5.554   3.077 -21.967  0.00  0.00    +0.099 C 
ATOM     23  N   UNL     1      -6.848   3.213 -21.952  0.00  0.00    -0.191 NA
ENDBRANCH  10  22
BRANCH  19  24
ATOM     24  O   UNL     1       4.106   1.619 -21.033  0.00  0.00    -0.491 OA
ATOM     25  C   UNL     1       4.015   0.346 -20.782  0.00  0.00    +0.277 C 
ENDBRANCH  19  24
TORSDOF 3
ENDMDL
