MODEL 1
REMARK VINA RESULT:   -13.653      0.000      0.000
REMARK INTER + INTRA:          -8.211
REMARK INTER:                 -10.982
REMARK INTRA:                   2.770
REMARK UNBOUND:                 7.837
REMARK  Name = COC1=CC=C2[C@@H]3Cc4ccc(OC)c(Oc5ccccc5)c4[C@@]2(CCN3C)C1             ZINC000100393783
REMARK  7 active torsions:
REMARK  status: ('A' for Active; 'I' for Inactive)
REMARK    1  A    between atoms: C_1  and  O_2
REMARK    2  A    between atoms: O_2  and  C_3
REMARK    3  A    between atoms: C_12  and  O_13
REMARK    4  A    between atoms: O_13  and  C_14
REMARK    5  A    between atoms: C_15  and  O_16
REMARK    6  A    between atoms: O_16  and  C_17
REMARK    7  A    between atoms: N_27  and  C_28
REMARK                            x       y       z     vdW  Elec       q    Type
REMARK                         _______ _______ _______ _____ _____    ______ ____
ROOT
ATOM      1  C   UNL     1      -2.937   2.847 -22.176  0.00  0.00    +0.098 C 
ATOM      2  C   UNL     1      -3.973   3.015 -22.609  0.00  0.00    +0.041 C 
ATOM      3  C   UNL     1      -4.057   3.211 -23.608  0.00  0.00    +0.009 C 
ATOM      4  C   UNL     1      -2.818   3.288 -24.568  0.00  0.00    -0.011 C 
ATOM      5  C   UNL     1      -3.494   3.454 -25.145  0.00  0.00    +0.096 C 
ATOM      6  C   UNL     1      -4.170   3.370 -24.402  0.00  0.00    +0.094 C 
ATOM      7  C   UNL     1      -3.246   3.056 -23.149  0.00  0.00    -0.034 A 
ATOM      8  C   UNL     1      -3.340   2.757 -21.523  0.00  0.00    +0.008 A 
ATOM      9  C   UNL     1      -2.245   2.538 -20.849  0.00  0.00    +0.050 A 
ATOM     10  C   UNL     1      -1.068   2.553 -21.453  0.00  0.00    +0.162 A 
ATOM     11  C   UNL     1      -0.964   2.788 -22.744  0.00  0.00    +0.174 A 
ATOM     12  C   UNL     1      -2.084   3.029 -23.523  0.00  0.00    +0.013 A 
ATOM     13  N   UNL     1      -3.073   3.649 -26.368  0.00  0.00    +0.239 N 
ATOM     14  H   UNL     1      -4.089   3.742 -26.407  0.00  0.00    +0.204 HD
ATOM     15  C   UNL     1      -3.772   3.898 -27.373  0.00  0.00    +0.191 C 
ATOM     16  C   UNL     1      -1.732   3.569 -26.539  0.00  0.00    +0.133 C 
ATOM     17  C   UNL     1      -1.031   3.305 -25.452  0.00  0.00    +0.067 C 
ATOM     18  C   UNL     1      -1.727   3.166 -24.406  0.00  0.00    +0.038 C 
ATOM     19  C   UNL     1      -1.701   2.885 -22.929  0.00  0.00    +0.090 C 
ENDROOT
BRANCH   1  21
ATOM     20  C   UNL     1      -6.255   3.020 -21.950  0.00  0.00    +0.276 C 
ATOM     21  O   UNL     1      -5.088   3.018 -22.129  0.00  0.00    -0.499 OA
ENDBRANCH   1  21
BRANCH  10  22
ATOM     22  O   UNL     1       0.109   2.335 -20.821  0.00  0.00    -0.491 OA
ATOM     23  C   UNL     1       0.551   1.176 -20.518  0.00  0.00    +0.277 C 
ENDBRANCH  10  22
BRANCH  11  24
ATOM     24  O   UNL     1       0.107   2.806 -23.316  0.00  0.00    -0.452 OA
BRANCH  24  25
ATOM     25  C   UNL     1       1.111   2.698 -23.627  0.00  0.00    +0.129 A 
ATOM     26  C   UNL     1       1.513   3.863 -23.268  0.00  0.00    +0.046 A 
ATOM     27  C   UNL     1       2.735   4.208 -23.455  0.00  0.00    +0.004 A 
ATOM     28  C   UNL     1       3.558   3.385 -24.003  0.00  0.00    +0.000 A 
ATOM     29  C   UNL     1       3.161   2.218 -24.364  0.00  0.00    +0.004 A 
ATOM     30  C   UNL     1       1.936   1.875 -24.175  0.00  0.00    +0.046 A 
ENDBRANCH  24  25
ENDBRANCH  11  24
TORSDOF 4
ENDMDL
