MODEL 1
REMARK VINA RESULT:    -8.011      0.000      0.000
REMARK INTER + INTRA:          -9.988
REMARK INTER:                  -9.878
REMARK INTRA:                  -0.110
REMARK UNBOUND:                -0.103
REMARK  Name = ZINC000000338408
REMARK  7 active torsions:
REMARK  status: ('A' for Active; 'I' for Inactive)
REMARK    1  A    between atoms: C_1  and  C_2
REMARK    2  A    between atoms: C_2  and  N_3
REMARK    3  A    between atoms: C_4  and  C_5
REMARK    4  A    between atoms: C_13  and  O_14
REMARK    5  A    between atoms: O_14  and  C_15
REMARK    6  A    between atoms: C_16  and  O_17
REMARK    7  A    between atoms: O_17  and  C_18
REMARK                            x       y       z     vdW  Elec       q    Type
REMARK                         _______ _______ _______ _____ _____    ______ ____
ROOT
ATOM      1  N   UNL     1      -2.075   3.852 -24.450  0.00  0.00    -0.228 N 
ATOM      2  C   UNL     1      -1.586   3.320 -23.369  0.00  0.00    +0.217 C 
ATOM      3  C   UNL     1      -0.376   2.844 -23.369  0.00  0.00    +0.053 A 
ATOM      4  C   UNL     1       0.112   2.311 -22.289  0.00  0.00    +0.064 A 
ATOM      5  C   UNL     1       1.322   1.835 -22.288  0.00  0.00    +0.162 A 
ATOM      6  C   UNL     1       2.043   1.891 -23.369  0.00  0.00    +0.162 A 
ATOM      7  C   UNL     1       1.554   2.424 -24.450  0.00  0.00    +0.054 A 
ATOM      8  C   UNL     1       0.344   2.900 -24.450  0.00  0.00    -0.024 A 
ATOM      9  C   UNL     1      -0.144   3.432 -25.530  0.00  0.00    +0.108 C 
ATOM     10  C   UNL     1      -1.354   3.909 -25.531  0.00  0.00    +0.355 C 
ENDROOT
BRANCH   2  11
ATOM     11  C   UNL     1      -2.306   3.263 -22.289  0.00  0.00    +0.046 A 
ATOM     12  C   UNL     1      -2.199   4.194 -21.387  0.00  0.00    +0.014 A 
ATOM     13  C   UNL     1      -2.919   4.137 -20.306  0.00  0.00    +0.001 A 
ATOM     14  C   UNL     1      -3.748   3.151 -20.128  0.00  0.00    +0.000 A 
ATOM     15  C   UNL     1      -3.855   2.221 -21.030  0.00  0.00    +0.001 A 
ATOM     16  C   UNL     1      -3.134   2.277 -22.110  0.00  0.00    +0.014 A 
ENDBRANCH   2  11
BRANCH   1  18
ATOM     17  C   UNL     1      -4.050   4.157 -25.487  0.00  0.00    +0.082 C 
ATOM     18  C   UNL     1      -3.284   4.328 -24.450  0.00  0.00    +0.347 C 
ENDBRANCH   1  18
BRANCH   6  19
ATOM     19  O   UNL     1       3.253   1.415 -23.369  0.00  0.00    -0.491 OA
ATOM     20  C   UNL     1       4.259   2.197 -23.627  0.00  0.00    +0.277 C 
ENDBRANCH   6  19
BRANCH   5  21
ATOM     21  O   UNL     1       1.811   1.303 -21.208  0.00  0.00    -0.491 OA
ATOM     22  C   UNL     1       1.226   1.501 -20.064  0.00  0.00    +0.277 C 
ENDBRANCH   5  21
TORSDOF 4
ENDMDL
