MODEL 1
REMARK VINA RESULT:   -11.291      0.000      0.000
REMARK INTER + INTRA:         -12.061
REMARK INTER:                 -11.955
REMARK INTRA:                  -0.106
REMARK UNBOUND:                -0.110
REMARK  Name = COc1ccc2c3c1OC1=C[C@@H](C)C=C4[C@@H](C2)N(C)CC[C@]143                ZINC000096316437
REMARK  4 active torsions:
REMARK  status: ('A' for Active; 'I' for Inactive)
REMARK    1  A    between atoms: C_1  and  O_2
REMARK    2  A    between atoms: O_2  and  C_3
REMARK    3  A    between atoms: C_12  and  C_13
REMARK    4  A    between atoms: N_18  and  C_19
REMARK                            x       y       z     vdW  Elec       q    Type
REMARK                         _______ _______ _______ _____ _____    ______ ____
ROOT
ATOM      1  C   UNL     1      -4.815   3.620 -22.910  0.00  0.00    +0.162 A 
ATOM      2  C   UNL     1      -4.949   4.047 -24.092  0.00  0.00    +0.050 A 
ATOM      3  C   UNL     1      -3.980   4.043 -24.880  0.00  0.00    +0.008 A 
ATOM      4  C   UNL     1      -2.869   3.614 -24.497  0.00  0.00    -0.034 A 
ATOM      5  C   UNL     1      -2.713   3.184 -23.325  0.00  0.00    +0.020 A 
ATOM      6  C   UNL     1      -1.602   2.757 -22.949  0.00  0.00    +0.088 C 
ATOM      7  C   UNL     1      -0.389   2.247 -22.405  0.00  0.00    +0.075 C 
ATOM      8  C   UNL     1       0.723   2.230 -23.271  0.00  0.00    +0.133 C 
ATOM      9  N   UNL     1       0.536   2.714 -24.582  0.00  0.00    +0.239 N 
ATOM     10  H   UNL     1       1.309   2.723 -25.247  0.00  0.00    +0.204 HD
ATOM     11  C   UNL     1       1.469   2.733 -25.412  0.00  0.00    +0.191 C 
ATOM     12  C   UNL     1      -0.767   3.179 -24.916  0.00  0.00    +0.096 C 
ATOM     13  C   UNL     1      -0.630   2.752 -23.735  0.00  0.00    -0.007 C 
ATOM     14  C   UNL     1       0.491   2.319 -23.350  0.00  0.00    -0.014 C 
ATOM     15  C   UNL     1       0.633   1.895 -22.181  0.00  0.00    +0.035 C 
ATOM     16  C   UNL     1       1.744   1.467 -21.805  0.00  0.00    +0.016 C 
ATOM     17  C   UNL     1      -0.345   1.897 -21.381  0.00  0.00    +0.023 C 
ATOM     18  C   UNL     1      -1.456   2.325 -21.760  0.00  0.00    +0.117 C 
ATOM     19  O   UNL     1      -2.893   2.599 -21.403  0.00  0.00    -0.455 OA
ATOM     20  C   UNL     1      -1.877   3.608 -25.298  0.00  0.00    +0.094 C 
ATOM     21  C   UNL     1      -3.690   3.187 -22.527  0.00  0.00    +0.174 A 
ENDROOT
BRANCH   1  23
ATOM     22  C   UNL     1      -6.283   2.548 -21.734  0.00  0.00    +0.277 C 
ATOM     23  O   UNL     1      -5.787   3.626 -22.125  0.00  0.00    -0.491 OA
ENDBRANCH   1  23
TORSDOF 1
ENDMDL
