MODEL 1
REMARK VINA RESULT:   -12.449      0.000      0.000
REMARK INTER + INTRA:         -12.449
REMARK INTER:                 -12.449
REMARK INTRA:                   0.000
REMARK UNBOUND:                 0.000
REMARK  Name = C[C@]12CC[C@@H]3[C@@H](CC(=O)[C@H]4CC(=O)CC[C@@]43C)[C@@H]1CCC2=O    ZINC000253504860
REMARK  2 active torsions:
REMARK  status: ('A' for Active; 'I' for Inactive)
REMARK    1  A    between atoms: C_1  and  C_2
REMARK    2  A    between atoms: C_16  and  C_17
REMARK                            x       y       z     vdW  Elec       q    Type
REMARK                         _______ _______ _______ _____ _____    ______ ____
ROOT
ATOM      1  C   UNL     1      -4.855   2.876 -21.660  0.00  0.00    +0.019 C 
ATOM      2  C   UNL     1      -4.001   3.160 -22.598  0.00  0.00    +0.029 C 
ATOM      3  C   UNL     1      -3.480   2.553 -21.574  0.00  0.00    +0.015 C 
ATOM      4  C   UNL     1      -2.207   2.284 -21.555  0.00  0.00    +0.005 C 
ATOM      5  C   UNL     1      -1.458   2.623 -22.562  0.00  0.00    -0.001 C 
ATOM      6  C   UNL     1      -1.979   3.230 -23.586  0.00  0.00    +0.004 C 
ATOM      7  C   UNL     1      -1.229   3.569 -24.593  0.00  0.00    +0.078 C 
ATOM      8  C   UNL     1       0.042   3.300 -24.575  0.00  0.00    +0.138 C 
ATOM      9  C   UNL     1       0.564   2.693 -23.550  0.00  0.00    +0.068 C 
ATOM     10  C   UNL     1       1.836   2.425 -23.532  0.00  0.00    +0.086 C 
ATOM     11  C   UNL     1       2.358   1.818 -22.508  0.00  0.00    +0.134 C 
ATOM     12  C   UNL     1       1.608   1.479 -21.501  0.00  0.00    +0.075 C 
ATOM     13  C   UNL     1       0.336   1.747 -21.519  0.00  0.00    +0.015 C 
ATOM     14  O   UNL     1       3.630   1.549 -22.490  0.00  0.00    -0.297 OA
ATOM     15  O   UNL     1       0.793   3.639 -25.581  0.00  0.00    -0.297 OA
ATOM     16  C   UNL     1      -0.186   2.355 -22.544  0.00  0.00    -0.019 C 
ATOM     17  C   UNL     1      -0.936   2.016 -21.538  0.00  0.00    +0.012 C 
ATOM     18  C   UNL     1      -5.218   3.536 -22.859  0.00  0.00    +0.139 C 
ATOM     19  O   UNL     1      -6.252   3.371 -22.089  0.00  0.00    -0.297 OA
ATOM     20  C   UNL     1      -5.220   4.107 -24.027  0.00  0.00    +0.075 C 
ATOM     21  C   UNL     1      -4.005   4.084 -24.488  0.00  0.00    +0.012 C 
ATOM     22  C   UNL     1      -3.251   3.499 -23.604  0.00  0.00    +0.006 C 
ENDROOT
TORSDOF 0
ENDMDL
