MODEL 1
REMARK VINA RESULT:   -11.088      0.000      0.000
REMARK INTER + INTRA:          -9.273
REMARK INTER:                 -12.938
REMARK INTRA:                   3.665
REMARK UNBOUND:                 3.759
REMARK  Name = COc1ccc2c3c1OC1=C[C@@H](C(C)(C)O)C=C4[C@@H](C2)N(C)CC[C@]143         ZINC000096316430
REMARK  7 active torsions:
REMARK  status: ('A' for Active; 'I' for Inactive)
REMARK    1  A    between atoms: C_1  and  O_2
REMARK    2  A    between atoms: O_2  and  C_3
REMARK    3  A    between atoms: C_12  and  C_13
REMARK    4  A    between atoms: C_13  and  C_14
REMARK    5  A    between atoms: C_13  and  C_15
REMARK    6  A    between atoms: C_13  and  O_16
REMARK    7  A    between atoms: N_21  and  C_22
REMARK                            x       y       z     vdW  Elec       q    Type
REMARK                         _______ _______ _______ _____ _____    ______ ____
ROOT
ATOM      1  C   UNL     1      -4.541   3.419 -22.455  0.00  0.00    +0.162 A 
ATOM      2  C   UNL     1      -4.766   3.926 -23.595  0.00  0.00    +0.050 A 
ATOM      3  C   UNL     1      -3.854   3.996 -24.453  0.00  0.00    +0.008 A 
ATOM      4  C   UNL     1      -2.708   3.559 -24.179  0.00  0.00    -0.034 A 
ATOM      5  C   UNL     1      -2.462   3.049 -23.050  0.00  0.00    +0.020 A 
ATOM      6  C   UNL     1      -1.317   2.616 -22.784  0.00  0.00    +0.088 C 
ATOM      7  C   UNL     1      -0.056   2.089 -22.364  0.00  0.00    +0.075 C 
ATOM      8  C   UNL     1       0.995   2.153 -23.310  0.00  0.00    +0.133 C 
ATOM      9  N   UNL     1       0.706   2.725 -24.571  0.00  0.00    +0.239 N 
ATOM     10  H   UNL     1       1.427   2.796 -25.289  0.00  0.00    +0.204 HD
ATOM     11  C   UNL     1       1.580   2.820 -25.465  0.00  0.00    +0.191 C 
ATOM     12  C   UNL     1      -0.629   3.192 -24.778  0.00  0.00    +0.096 C 
ATOM     13  C   UNL     1      -0.400   2.683 -23.639  0.00  0.00    -0.007 C 
ATOM     14  C   UNL     1       0.756   2.243 -23.365  0.00  0.00    -0.011 C 
ATOM     15  C   UNL     1       0.988   1.739 -22.239  0.00  0.00    +0.069 C 
ATOM     16  C   UNL     1       0.067   1.667 -21.370  0.00  0.00    +0.026 C 
ATOM     17  C   UNL     1      -1.078   2.101 -21.637  0.00  0.00    +0.117 C 
ATOM     18  O   UNL     1      -2.495   2.325 -21.159  0.00  0.00    -0.455 OA
ATOM     19  C   UNL     1      -1.773   3.627 -25.049  0.00  0.00    +0.094 C 
ATOM     20  C   UNL     1      -3.382   2.978 -22.183  0.00  0.00    +0.174 A 
ENDROOT
BRANCH  15  21
ATOM     21  C   UNL     1       2.136   1.303 -21.971  0.00  0.00    +0.070 C 
ATOM     22  C   UNL     1       2.936   2.006 -21.307  0.00  0.00    +0.042 C 
ATOM     23  C   UNL     1       2.999   0.395 -22.046  0.00  0.00    +0.042 C 
BRANCH  21  24
ATOM     24  O   UNL     1       1.877   0.239 -22.584  0.00  0.00    -0.388 OA
ATOM     25  H   UNL     1       0.989  -0.066 -22.340  0.00  0.00    +0.210 HD
ENDBRANCH  21  24
ENDBRANCH  15  21
BRANCH   1  27
ATOM     26  C   UNL     1      -6.494   2.687 -21.842  0.00  0.00    +0.277 C 
ATOM     27  O   UNL     1      -5.458   3.352 -21.601  0.00  0.00    -0.491 OA
ENDBRANCH   1  27
TORSDOF 3
ENDMDL
