MODEL 1
REMARK VINA RESULT:   -11.090      0.000      0.000
REMARK INTER + INTRA:         -11.739
REMARK INTER:                 -11.739
REMARK INTRA:                   0.000
REMARK UNBOUND:                 0.000
REMARK  Name = ZINC000017417717
REMARK  3 active torsions:
REMARK  status: ('A' for Active; 'I' for Inactive)
REMARK    1  A    between atoms: C_1  and  C_2
REMARK    2  A    between atoms: C_10  and  O_11
REMARK    3  A    between atoms: C_21  and  O_22
REMARK                            x       y       z     vdW  Elec       q    Type
REMARK                         _______ _______ _______ _____ _____    ______ ____
ROOT
ATOM      1  C   UNL     1       2.759   2.346 -24.761  0.00  0.00    +0.014 C 
ATOM      2  C   UNL     1       2.020   2.092 -23.721  0.00  0.00    -0.003 C 
ATOM      3  C   UNL     1       1.383   2.675 -24.693  0.00  0.00    +0.010 C 
ATOM      4  C   UNL     1       0.118   2.951 -24.568  0.00  0.00    +0.009 C 
ATOM      5  C   UNL     1      -0.509   2.643 -23.472  0.00  0.00    +0.023 C 
ATOM      6  C   UNL     1      -1.773   2.918 -23.347  0.00  0.00    -0.039 A 
ATOM      7  C   UNL     1      -2.410   3.501 -24.319  0.00  0.00    +0.023 A 
ATOM      8  C   UNL     1      -3.675   3.777 -24.194  0.00  0.00    +0.061 A 
ATOM      9  C   UNL     1      -4.302   3.469 -23.098  0.00  0.00    +0.145 A 
ATOM     10  C   UNL     1      -3.665   2.886 -22.126  0.00  0.00    +0.064 A 
ATOM     11 BR   UNL     1      -4.292   2.578 -21.030  0.00  0.00    -0.046 Br
ATOM     12 BR   UNL     1      -4.312   4.359 -25.165  0.00  0.00    -0.046 Br
ATOM     13  C   UNL     1      -2.401   2.611 -22.250  0.00  0.00    -0.026 A 
ATOM     14  C   UNL     1      -1.763   2.028 -21.279  0.00  0.00    +0.037 C 
ATOM     15  C   UNL     1      -0.499   1.752 -21.404  0.00  0.00    +0.009 C 
ATOM     16  C   UNL     1       0.129   2.060 -22.500  0.00  0.00    +0.000 C 
ATOM     17  C   UNL     1       3.258   1.716 -23.595  0.00  0.00    +0.121 C 
ATOM     18  C   UNL     1       3.396   1.176 -22.420  0.00  0.00    +0.032 C 
ATOM     19  C   UNL     1       2.243   1.219 -21.821  0.00  0.00    +0.007 C 
ATOM     20  C   UNL     1       1.393   1.785 -22.624  0.00  0.00    +0.001 C 
ENDROOT
BRANCH   9  21
ATOM     21  O   UNL     1      -5.567   3.744 -22.973  0.00  0.00    -0.505 OA
ATOM     22  H   UNL     1      -5.925   4.499 -23.397  0.00  0.00    +0.292 HD
ENDBRANCH   9  21
BRANCH  17  23
ATOM     23  O   UNL     1       4.193   1.855 -24.486  0.00  0.00    -0.391 OA
ATOM     24  H   UNL     1       4.878   2.453 -24.146  0.00  0.00    +0.210 HD
ENDBRANCH  17  23
TORSDOF 2
ENDMDL
