MODEL 1
REMARK VINA RESULT:    -8.922      0.000      0.000
REMARK INTER + INTRA:          -6.859
REMARK INTER:                 -11.652
REMARK INTRA:                   4.793
REMARK UNBOUND:                 4.671
REMARK  Name = CCCC[C@]12Oc3c(OC)ccc4c3[C@]13CCN(C)[C@H](C4)C3=CC=C2OC              ZINC000100393618
REMARK  9 active torsions:
REMARK  status: ('A' for Active; 'I' for Inactive)
REMARK    1  A    between atoms: C_1  and  C_2
REMARK    2  A    between atoms: C_2  and  C_3
REMARK    3  A    between atoms: C_3  and  C_4
REMARK    4  A    between atoms: C_4  and  C_5
REMARK    5  A    between atoms: C_8  and  O_9
REMARK    6  A    between atoms: O_9  and  C_10
REMARK    7  A    between atoms: N_18  and  C_19
REMARK    8  A    between atoms: C_25  and  O_26
REMARK    9  A    between atoms: O_26  and  C_27
REMARK                            x       y       z     vdW  Elec       q    Type
REMARK                         _______ _______ _______ _____ _____    ______ ____
ROOT
ATOM      1  C   UNL     1      -1.460   3.195 -23.789  0.00  0.00    +0.181 C 
ATOM      2  O   UNL     1      -1.803   3.063 -22.320  0.00  0.00    -0.473 OA
ATOM      3  C   UNL     1      -3.281   3.143 -22.038  0.00  0.00    +0.168 A 
ATOM      4  C   UNL     1      -4.196   3.117 -21.155  0.00  0.00    +0.162 A 
ATOM      5  C   UNL     1      -5.409   3.245 -21.506  0.00  0.00    +0.050 A 
ATOM      6  C   UNL     1      -5.709   3.397 -22.716  0.00  0.00    +0.008 A 
ATOM      7  C   UNL     1      -4.801   3.423 -23.589  0.00  0.00    -0.034 A 
ATOM      8  C   UNL     1      -5.103   3.578 -24.820  0.00  0.00    +0.094 C 
ATOM      9  C   UNL     1      -4.198   3.604 -25.689  0.00  0.00    +0.096 C 
ATOM     10  C   UNL     1      -2.983   3.476 -25.340  0.00  0.00    -0.007 C 
ATOM     11  C   UNL     1      -2.070   3.502 -26.220  0.00  0.00    +0.009 C 
ATOM     12  C   UNL     1      -0.866   3.376 -25.883  0.00  0.00    +0.045 C 
ATOM     13  N   UNL     1      -3.246   3.647 -26.757  0.00  0.00    +0.239 N 
ATOM     14  H   UNL     1      -3.522   3.773 -27.731  0.00  0.00    +0.204 HD
ATOM     15  C   UNL     1      -3.604   3.802 -27.950  0.00  0.00    +0.191 C 
ATOM     16  C   UNL     1      -1.883   3.508 -26.403  0.00  0.00    +0.133 C 
ATOM     17  C   UNL     1      -1.575   3.337 -25.031  0.00  0.00    +0.071 C 
ATOM     18  C   UNL     1      -3.588   3.297 -23.258  0.00  0.00    +0.016 A 
ATOM     19  C   UNL     1      -0.558   3.222 -24.662  0.00  0.00    +0.142 C 
ATOM     20  C   UNL     1      -2.686   3.323 -24.130  0.00  0.00    +0.077 C 
ENDROOT
BRANCH   4  21
ATOM     21  O   UNL     1      -3.900   2.964 -19.944  0.00  0.00    -0.491 OA
ATOM     22  C   UNL     1      -3.079   3.738 -19.395  0.00  0.00    +0.277 C 
ENDBRANCH   4  21
BRANCH  19  23
ATOM     23  O   UNL     1       0.647   3.096 -24.328  0.00  0.00    -0.495 OA
ATOM     24  C   UNL     1       1.526   2.918 -25.206  0.00  0.00    +0.276 C 
ENDBRANCH  19  23
BRANCH   1  25
ATOM     25  C   UNL     1      -0.340   3.047 -23.183  0.00  0.00    +0.057 C 
BRANCH  25  26
ATOM     26  C   UNL     1      -0.258   2.539 -22.015  0.00  0.00    +0.004 C 
BRANCH  26  28
ATOM     27  C   UNL     1       1.574   1.474 -21.501  0.00  0.00    +0.004 C 
ATOM     28  C   UNL     1       0.350   1.458 -21.812  0.00  0.00    -0.003 C 
ENDBRANCH  26  28
ENDBRANCH  25  26
ENDBRANCH   1  25
TORSDOF 5
ENDMDL
