MODEL 1
REMARK VINA RESULT:    -9.308      0.000      0.000
REMARK INTER + INTRA:         -10.186
REMARK INTER:                 -11.071
REMARK INTRA:                   0.884
REMARK UNBOUND:                 2.114
REMARK  Name = ZINC000005357388
REMARK  11 active torsions:
REMARK  status: ('A' for Active; 'I' for Inactive)
REMARK    1  A    between atoms: C_1  and  O_2
REMARK    2  A    between atoms: O_2  and  C_3
REMARK    3  A    between atoms: C_12  and  O_13
REMARK    4  A    between atoms: O_13  and  C_14
REMARK    5  A    between atoms: C_15  and  C_16
REMARK    6  A    between atoms: C_16  and  C_17
REMARK    7  A    between atoms: C_17  and  O_18
REMARK    8  A    between atoms: C_17  and  C_19
REMARK    9  A    between atoms: C_19  and  C_20
REMARK   10  A    between atoms: C_19  and  C_21
REMARK   11  A    between atoms: C_19  and  O_22
REMARK                            x       y       z     vdW  Elec       q    Type
REMARK                         _______ _______ _______ _____ _____    ______ ____
ROOT
ATOM      1  C   UNL     1      -1.009   2.344 -22.447  0.00  0.00    +0.130 A 
ATOM      2  C   UNL     1      -0.271   1.515 -21.771  0.00  0.00    +0.093 A 
ATOM      3  C   UNL     1       1.024   1.580 -21.857  0.00  0.00    +0.146 A 
ATOM      4  O   UNL     1       1.763   0.750 -21.181  0.00  0.00    -0.422 OA
ATOM      5  C   UNL     1       3.059   0.815 -21.267  0.00  0.00    +0.337 A 
ATOM      6  C   UNL     1       3.616   1.709 -22.028  0.00  0.00    +0.093 A 
ATOM      7  C   UNL     1       2.877   2.538 -22.705  0.00  0.00    +0.022 A 
ATOM      8  O   UNL     1       3.797  -0.014 -20.591  0.00  0.00    -0.245 OA
ATOM      9  C   UNL     1       1.582   2.474 -22.619  0.00  0.00    +0.060 A 
ATOM     10  C   UNL     1       0.844   3.303 -23.295  0.00  0.00    +0.137 A 
ATOM     11  C   UNL     1      -0.452   3.238 -23.209  0.00  0.00    +0.039 A 
ENDROOT
BRANCH  10  12
ATOM     12  O   UNL     1       1.401   4.197 -24.056  0.00  0.00    -0.494 OA
ATOM     13  C   UNL     1       1.904   5.275 -23.533  0.00  0.00    +0.277 C 
ENDBRANCH  10  12
BRANCH   1  15
ATOM     14  C   UNL     1      -2.900   2.599 -21.250  0.00  0.00    +0.277 C 
ATOM     15  O   UNL     1      -2.305   2.280 -22.361  0.00  0.00    -0.495 OA
ENDBRANCH   1  15
BRANCH  11  16
ATOM     16  C   UNL     1      -1.190   4.068 -23.885  0.00  0.00    +0.076 C 
BRANCH  16  17
ATOM     17  C   UNL     1      -1.661   3.722 -25.047  0.00  0.00    +0.150 C 
BRANCH  17  18
ATOM     18  C   UNL     1      -2.945   3.683 -25.242  0.00  0.00    +0.087 C 
ATOM     19  C   UNL     1      -3.648   4.773 -25.162  0.00  0.00    +0.043 C 
ATOM     20  C   UNL     1      -4.022   3.007 -25.515  0.00  0.00    +0.043 C 
BRANCH  18  21
ATOM     21  O   UNL     1      -2.874   2.401 -25.448  0.00  0.00    -0.387 OA
ATOM     22  H   UNL     1      -2.079   2.199 -25.966  0.00  0.00    +0.210 HD
ENDBRANCH  18  21
ENDBRANCH  17  18
BRANCH  17  23
ATOM     23  O   UNL     1      -0.845   3.416 -26.012  0.00  0.00    -0.389 OA
ATOM     24  H   UNL     1      -1.292   3.537 -26.864  0.00  0.00    +0.210 HD
ENDBRANCH  17  23
ENDBRANCH  16  17
ENDBRANCH  11  16
TORSDOF 7
ENDMDL
