MODEL 1
REMARK VINA RESULT:    -8.104      0.000      0.000
REMARK INTER + INTRA:          -9.629
REMARK INTER:                  -9.858
REMARK INTRA:                   0.228
REMARK UNBOUND:                 0.607
REMARK  Name = ZINC000006556397
REMARK  8 active torsions:
REMARK  status: ('A' for Active; 'I' for Inactive)
REMARK    1  A    between atoms: C_2  and  C_3
REMARK    2  A    between atoms: C_3  and  C_4
REMARK    3  A    between atoms: C_5  and  O_6
REMARK    4  A    between atoms: C_8  and  O_9
REMARK    5  A    between atoms: O_9  and  C_10
REMARK    6  A    between atoms: C_14  and  O_15
REMARK    7  A    between atoms: O_15  and  C_16
REMARK    8  A    between atoms: C_17  and  C_18
REMARK                            x       y       z     vdW  Elec       q    Type
REMARK                         _______ _______ _______ _____ _____    ______ ____
ROOT
ATOM      1  C   UNL     1      -0.560   3.239 -23.743  0.00  0.00    +0.041 A 
ATOM      2  C   UNL     1      -0.390   3.263 -25.031  0.00  0.00    +0.127 A 
ATOM      3  C   UNL     1      -1.413   3.414 -25.819  0.00  0.00    +0.092 A 
ATOM      4  C   UNL     1      -2.606   3.541 -25.319  0.00  0.00    +0.138 A 
ATOM      5  C   UNL     1      -2.775   3.517 -24.031  0.00  0.00    +0.110 A 
ATOM      6  C   UNL     1      -3.969   3.644 -23.529  0.00  0.00    +0.238 A 
ATOM      7  C   UNL     1      -4.139   3.620 -22.241  0.00  0.00    +0.205 A 
ATOM      8  C   UNL     1      -3.116   3.469 -21.453  0.00  0.00    +0.148 A 
ATOM      9  O   UNL     1      -1.923   3.342 -21.954  0.00  0.00    -0.456 OA
ATOM     10  C   UNL     1      -3.286   3.445 -20.165  0.00  0.00    +0.090 C 
ATOM     11  O   UNL     1      -4.992   3.795 -24.317  0.00  0.00    -0.283 OA
ATOM     12  C   UNL     1      -1.752   3.366 -23.243  0.00  0.00    +0.149 A 
ENDROOT
BRANCH   7  13
ATOM     13  O   UNL     1      -5.332   3.747 -21.741  0.00  0.00    -0.489 OA
ATOM     14  C   UNL     1      -6.143   2.731 -21.728  0.00  0.00    +0.277 C 
ENDBRANCH   7  13
BRANCH   4  15
ATOM     15  O   UNL     1      -3.629   3.692 -26.107  0.00  0.00    -0.494 OA
ATOM     16  C   UNL     1      -3.515   3.437 -27.376  0.00  0.00    +0.277 C 
ENDBRANCH   4  15
BRANCH   2  17
ATOM     17  O   UNL     1       0.803   3.136 -25.532  0.00  0.00    -0.506 OA
ATOM     18  H   UNL     1       1.520   3.615 -25.164  0.00  0.00    +0.292 HD
ENDBRANCH   2  17
BRANCH   1  19
ATOM     19  C   UNL     1       0.463   3.088 -22.955  0.00  0.00    +0.069 C 
BRANCH  19  21
ATOM     20  C   UNL     1       0.874   1.520 -21.392  0.00  0.00    +0.004 C 
ATOM     21  C   UNL     1       0.869   1.895 -22.637  0.00  0.00    -0.030 C 
ENDBRANCH  19  21
ENDBRANCH   1  19
TORSDOF 5
ENDMDL
