MODEL 1
REMARK VINA RESULT:    -9.853      0.000      0.000
REMARK INTER + INTRA:          -9.351
REMARK INTER:                 -10.398
REMARK INTRA:                   1.047
REMARK UNBOUND:                 1.078
REMARK  Name = ZINC000013399052
REMARK  4 active torsions:
REMARK  status: ('A' for Active; 'I' for Inactive)
REMARK    1  A    between atoms: C_1  and  O_2
REMARK    2  A    between atoms: O_2  and  C_3
REMARK    3  A    between atoms: C_15  and  C_16
REMARK    4  A    between atoms: C_15  and  C_17
REMARK                            x       y       z     vdW  Elec       q    Type
REMARK                         _______ _______ _______ _____ _____    ______ ____
ROOT
ATOM      1  C   UNL     1      -0.348   2.756 -23.788  0.00  0.00    +0.145 A 
ATOM      2  C   UNL     1      -1.590   2.939 -23.449  0.00  0.00    +0.101 A 
ATOM      3  C   UNL     1      -1.992   2.621 -22.254  0.00  0.00    +0.139 A 
ATOM      4  O   UNL     1      -3.233   2.804 -21.915  0.00  0.00    -0.485 OA
ATOM      5  C   UNL     1      -4.073   3.305 -22.771  0.00  0.00    +0.112 C 
ATOM      6  C   UNL     1      -3.672   3.624 -23.966  0.00  0.00    +0.127 C 
ATOM      7  C   UNL     1      -4.862   3.142 -21.750  0.00  0.00    +0.056 C 
ATOM      8  C   UNL     1      -5.188   3.750 -23.272  0.00  0.00    +0.056 C 
ATOM      9  C   UNL     1      -1.151   2.120 -21.399  0.00  0.00    +0.093 A 
ATOM     10  C   UNL     1       0.090   1.936 -21.737  0.00  0.00    +0.146 A 
ATOM     11  O   UNL     1       0.931   1.435 -20.882  0.00  0.00    -0.422 OA
ATOM     12  C   UNL     1       2.173   1.251 -21.221  0.00  0.00    +0.337 A 
ATOM     13  C   UNL     1       2.574   1.570 -22.415  0.00  0.00    +0.093 A 
ATOM     14  C   UNL     1       1.734   2.071 -23.271  0.00  0.00    +0.022 A 
ATOM     15  O   UNL     1       3.012   0.750 -20.364  0.00  0.00    -0.245 OA
ATOM     16  C   UNL     1      -2.431   3.441 -24.305  0.00  0.00    +0.174 C 
ATOM     17  O   UNL     1      -2.029   3.759 -25.500  0.00  0.00    -0.292 OA
ATOM     18  C   UNL     1       0.492   2.254 -22.932  0.00  0.00    +0.060 A 
ENDROOT
BRANCH   1  20
ATOM     19  C   UNL     1       0.901   4.046 -25.147  0.00  0.00    +0.277 C 
ATOM     20  O   UNL     1       0.053   3.074 -24.982  0.00  0.00    -0.494 OA
ENDBRANCH   1  20
TORSDOF 1
ENDMDL
