MODEL 1
REMARK VINA RESULT:   -11.093      0.000      0.000
REMARK INTER + INTRA:         -11.741
REMARK INTER:                 -11.741
REMARK INTRA:                   0.000
REMARK UNBOUND:                 0.000
REMARK  Name = ZINC000004946193
REMARK  3 active torsions:
REMARK  status: ('A' for Active; 'I' for Inactive)
REMARK    1  A    between atoms: C_1  and  C_2
REMARK    2  A    between atoms: C_10  and  O_11
REMARK    3  A    between atoms: C_21  and  O_22
REMARK                            x       y       z     vdW  Elec       q    Type
REMARK                         _______ _______ _______ _____ _____    ______ ____
ROOT
ATOM      1  C   UNL     1       2.755   2.345 -24.766  0.00  0.00    +0.014 C 
ATOM      2  C   UNL     1       2.016   2.086 -23.727  0.00  0.00    -0.003 C 
ATOM      3  C   UNL     1       1.381   2.680 -24.694  0.00  0.00    +0.010 C 
ATOM      4  C   UNL     1       0.118   2.961 -24.566  0.00  0.00    +0.009 C 
ATOM      5  C   UNL     1      -0.510   2.648 -23.471  0.00  0.00    +0.023 C 
ATOM      6  C   UNL     1      -1.773   2.929 -23.342  0.00  0.00    -0.039 A 
ATOM      7  C   UNL     1      -2.407   3.523 -24.309  0.00  0.00    +0.023 A 
ATOM      8  C   UNL     1      -3.671   3.804 -24.181  0.00  0.00    +0.061 A 
ATOM      9  C   UNL     1      -4.298   3.491 -23.086  0.00  0.00    +0.145 A 
ATOM     10  C   UNL     1      -3.662   2.897 -22.120  0.00  0.00    +0.064 A 
ATOM     11 BR   UNL     1      -4.290   2.585 -21.025  0.00  0.00    -0.046 Br
ATOM     12 BR   UNL     1      -4.306   4.397 -25.147  0.00  0.00    -0.046 Br
ATOM     13  C   UNL     1      -2.400   2.616 -22.248  0.00  0.00    -0.026 A 
ATOM     14  C   UNL     1      -1.764   2.023 -21.281  0.00  0.00    +0.037 C 
ATOM     15  C   UNL     1      -0.501   1.742 -21.410  0.00  0.00    +0.009 C 
ATOM     16  C   UNL     1       0.126   2.055 -22.505  0.00  0.00    +0.000 C 
ATOM     17  C   UNL     1       3.252   1.703 -23.606  0.00  0.00    +0.121 C 
ATOM     18  C   UNL     1       3.389   1.153 -22.436  0.00  0.00    +0.032 C 
ATOM     19  C   UNL     1       2.237   1.197 -21.835  0.00  0.00    +0.007 C 
ATOM     20  C   UNL     1       1.388   1.774 -22.633  0.00  0.00    +0.001 C 
ENDROOT
BRANCH   9  21
ATOM     21  O   UNL     1      -5.561   3.772 -22.957  0.00  0.00    -0.505 OA
ATOM     22  H   UNL     1      -5.858   4.653 -23.074  0.00  0.00    +0.292 HD
ENDBRANCH   9  21
BRANCH  17  23
ATOM     23  O   UNL     1       4.187   1.844 -24.497  0.00  0.00    -0.391 OA
ATOM     24  H   UNL     1       4.979   2.216 -24.079  0.00  0.00    +0.210 HD
ENDBRANCH  17  23
TORSDOF 2
ENDMDL
