MODEL 1
REMARK VINA RESULT:   -10.463      0.000      0.000
REMARK INTER + INTRA:          -9.484
REMARK INTER:                 -11.810
REMARK INTRA:                   2.327
REMARK UNBOUND:                 2.203
REMARK  Name = ZINC000096316372
REMARK  6 active torsions:
REMARK  status: ('A' for Active; 'I' for Inactive)
REMARK    1  A    between atoms: C_1  and  O_2
REMARK    2  A    between atoms: O_2  and  C_3
REMARK    3  A    between atoms: C_12  and  O_13
REMARK    4  A    between atoms: O_13  and  C_14
REMARK    5  A    between atoms: N_20  and  C_21
REMARK    6  A    between atoms: C_22  and  C_23
REMARK                            x       y       z     vdW  Elec       q    Type
REMARK                         _______ _______ _______ _____ _____    ______ ____
ROOT
ATOM      1  C   UNL     1      -2.730   3.615 -25.356  0.00  0.00    +0.142 C 
ATOM      2  C   UNL     1      -3.867   3.721 -24.809  0.00  0.00    +0.045 C 
ATOM      3  C   UNL     1      -4.021   3.403 -23.606  0.00  0.00    +0.009 C 
ATOM      4  C   UNL     1      -3.039   2.974 -22.933  0.00  0.00    -0.007 C 
ATOM      5  C   UNL     1      -3.203   2.654 -21.717  0.00  0.00    +0.096 C 
ATOM      6  C   UNL     1      -2.233   2.229 -21.049  0.00  0.00    +0.094 C 
ATOM      7  C   UNL     1      -1.085   2.118 -21.591  0.00  0.00    -0.034 A 
ATOM      8  C   UNL     1      -0.111   1.692 -20.922  0.00  0.00    +0.008 A 
ATOM      9  C   UNL     1       1.016   1.585 -21.458  0.00  0.00    +0.050 A 
ATOM     10  C   UNL     1       1.183   1.904 -22.673  0.00  0.00    +0.162 A 
ATOM     11  C   UNL     1       0.198   2.335 -23.348  0.00  0.00    +0.168 A 
ATOM     12  O   UNL     1      -0.286   2.841 -24.678  0.00  0.00    -0.473 OA
ATOM     13  C   UNL     1      -0.938   2.441 -22.802  0.00  0.00    +0.016 A 
ATOM     14  N   UNL     1      -4.371   3.126 -22.388  0.00  0.00    +0.239 N 
ATOM     15  H   UNL     1      -5.277   3.202 -21.923  0.00  0.00    +0.204 HD
ATOM     16  C   UNL     1      -5.474   3.212 -21.800  0.00  0.00    +0.191 C 
ATOM     17  C   UNL     1      -4.224   3.491 -23.743  0.00  0.00    +0.133 C 
ATOM     18  C   UNL     1      -2.941   3.360 -24.322  0.00  0.00    +0.071 C 
ATOM     19  C   UNL     1      -1.911   2.866 -23.467  0.00  0.00    +0.077 C 
ATOM     20  C   UNL     1      -1.758   3.191 -24.691  0.00  0.00    +0.178 C 
ATOM     21  C   UNL     1      -1.324   3.428 -25.843  0.00  0.00    +0.065 C 
ENDROOT
BRANCH   1  23
ATOM     22  C   UNL     1      -3.382   3.516 -27.424  0.00  0.00    +0.276 C 
ATOM     23  O   UNL     1      -2.578   3.935 -26.559  0.00  0.00    -0.495 OA
ENDBRANCH   1  23
BRANCH  10  24
ATOM     24  O   UNL     1       2.312   1.796 -23.206  0.00  0.00    -0.491 OA
ATOM     25  C   UNL     1       3.000   0.766 -23.015  0.00  0.00    +0.277 C 
ENDBRANCH  10  24
TORSDOF 2
ENDMDL
