MODEL 1
REMARK VINA RESULT:    -9.767      0.000      0.000
REMARK INTER + INTRA:          -9.767
REMARK INTER:                  -9.767
REMARK INTRA:                   0.000
REMARK UNBOUND:                 0.000
REMARK  Name = ZINC000007997351
REMARK  2 active torsions:
REMARK  status: ('A' for Active; 'I' for Inactive)
REMARK    1  A    between atoms: C_10  and  C_11
REMARK    2  A    between atoms: C_15  and  C_16
REMARK                            x       y       z     vdW  Elec       q    Type
REMARK                         _______ _______ _______ _____ _____    ______ ____
ROOT
ATOM      1  C   UNL     1       0.199   2.618 -24.400  0.00  0.00    +0.020 C 
ATOM      2  C   UNL     1      -0.380   2.544 -23.238  0.00  0.00    +0.036 C 
ATOM      3  C   UNL     1       0.200   2.242 -22.114  0.00  0.00    +0.335 C 
ATOM      4  O   UNL     1      -0.701   2.271 -21.177  0.00  0.00    -0.455 OA
ATOM      5  C   UNL     1      -1.837   2.590 -21.723  0.00  0.00    +0.216 C 
ATOM      6  C   UNL     1      -3.027   2.749 -21.224  0.00  0.00    +0.192 C 
ATOM      7  O   UNL     1      -4.217   2.908 -20.725  0.00  0.00    -0.361 OA
ATOM      8  C   UNL     1      -4.018   3.076 -21.998  0.00  0.00    +0.097 C 
ATOM      9  C   UNL     1      -5.277   3.357 -22.158  0.00  0.00    +0.044 C 
ATOM     10  C   UNL     1      -3.819   3.245 -23.272  0.00  0.00    +0.041 C 
ATOM     11  C   UNL     1      -4.811   3.572 -24.047  0.00  0.00    +0.030 C 
ATOM     12  C   UNL     1      -4.612   3.741 -25.320  0.00  0.00    -0.028 C 
ATOM     13  C   UNL     1      -3.422   3.582 -25.819  0.00  0.00    -0.077 C 
ATOM     14  C   UNL     1      -3.223   3.751 -27.093  0.00  0.00    +0.039 C 
ATOM     15  C   UNL     1      -2.431   3.255 -25.045  0.00  0.00    +0.031 C 
ATOM     16  C   UNL     1      -2.629   3.086 -23.771  0.00  0.00    +0.016 C 
ATOM     17  O   UNL     1       1.459   1.962 -21.955  0.00  0.00    -0.245 OA
ATOM     18  C   UNL     1      -1.638   2.759 -22.996  0.00  0.00    +0.069 C 
ENDROOT
TORSDOF 0
ENDMDL
