MODEL 1
REMARK VINA RESULT:    -9.259      0.000      0.000
REMARK INTER + INTRA:         -14.347
REMARK INTER:                 -13.841
REMARK INTRA:                  -0.506
REMARK UNBOUND:                -0.758
REMARK  Name = ZINC000000689945
REMARK  11 active torsions:
REMARK  status: ('A' for Active; 'I' for Inactive)
REMARK    1  A    between atoms: C_1  and  O_2
REMARK    2  A    between atoms: O_2  and  C_3
REMARK    3  A    between atoms: C_8  and  O_9
REMARK    4  A    between atoms: O_9  and  C_10
REMARK    5  A    between atoms: C_11  and  C_12
REMARK    6  A    between atoms: C_12  and  C_13
REMARK    7  A    between atoms: C_16  and  O_17
REMARK    8  A    between atoms: O_17  and  C_18
REMARK    9  A    between atoms: C_18  and  C_19
REMARK   10  A    between atoms: C_25  and  O_26
REMARK   11  A    between atoms: O_26  and  C_27
REMARK                            x       y       z     vdW  Elec       q    Type
REMARK                         _______ _______ _______ _____ _____    ______ ____
ROOT
ATOM      1  C   UNL     1       1.869   3.388 -24.244  0.00  0.00    -0.038 A 
ATOM      2  C   UNL     1       1.114   4.038 -25.079  0.00  0.00    +0.008 A 
ATOM      3  C   UNL     1      -0.171   3.841 -25.084  0.00  0.00    +0.050 A 
ATOM      4  C   UNL     1      -0.701   2.993 -24.253  0.00  0.00    +0.162 A 
ATOM      5  C   UNL     1       0.054   2.343 -23.417  0.00  0.00    +0.162 A 
ATOM      6  C   UNL     1       1.338   2.540 -23.413  0.00  0.00    +0.053 A 
ENDROOT
BRANCH   5   7
ATOM      7  O   UNL     1      -0.476   1.495 -22.586  0.00  0.00    -0.491 OA
ATOM      8  C   UNL     1      -0.070   1.454 -21.352  0.00  0.00    +0.277 C 
ENDBRANCH   5   7
BRANCH   1   9
ATOM      9  C   UNL     1       3.153   3.585 -24.239  0.00  0.00    +0.090 C 
BRANCH   9  14
ATOM     10  C   UNL     1       6.702   4.665 -21.372  0.00  0.00    +0.162 A 
ATOM     11  C   UNL     1       6.534   3.380 -21.271  0.00  0.00    +0.053 A 
ATOM     12  C   UNL     1       5.605   2.789 -21.963  0.00  0.00    -0.033 A 
ATOM     13  C   UNL     1       4.844   3.483 -22.755  0.00  0.00    +0.003 A 
ATOM     14  C   UNL     1       3.915   2.891 -23.447  0.00  0.00    +0.048 C 
ATOM     15  N   UNL     1       3.748   1.606 -23.346  0.00  0.00    -0.287 NA
ATOM     16  C   UNL     1       4.510   0.912 -22.553  0.00  0.00    +0.146 C 
ATOM     17  C   UNL     1       5.010   4.768 -22.856  0.00  0.00    +0.059 A 
ATOM     18  C   UNL     1       5.439   1.504 -21.862  0.00  0.00    +0.059 C 
ATOM     19  C   UNL     1       5.939   5.359 -22.165  0.00  0.00    +0.162 A 
BRANCH  10  21
ATOM     20  C   UNL     1       8.858   5.254 -21.106  0.00  0.00    +0.277 C 
ATOM     21  O   UNL     1       7.630   5.256 -20.680  0.00  0.00    -0.491 OA
ENDBRANCH  10  21
BRANCH  19  22
ATOM     22  O   UNL     1       6.107   6.644 -22.265  0.00  0.00    -0.491 OA
ATOM     23  C   UNL     1       5.229   7.457 -21.757  0.00  0.00    +0.277 C 
ENDBRANCH  19  22
ENDBRANCH   9  14
ENDBRANCH   1   9
BRANCH   4  24
ATOM     24  O   UNL     1      -1.986   2.796 -24.257  0.00  0.00    -0.484 OA
BRANCH  24  25
ATOM     25  C   UNL     1      -2.785   3.709 -23.791  0.00  0.00    +0.264 C 
BRANCH  25  26
ATOM     26  C   UNL     1      -3.753   3.378 -22.987  0.00  0.00    -0.010 A 
ATOM     27  C   UNL     1      -3.488   2.776 -21.865  0.00  0.00    +0.007 A 
ATOM     28  C   UNL     1      -4.455   2.445 -21.061  0.00  0.00    +0.000 A 
ATOM     29  C   UNL     1      -5.686   2.715 -21.380  0.00  0.00    +0.000 A 
ATOM     30  C   UNL     1      -5.951   3.316 -22.501  0.00  0.00    +0.000 A 
ATOM     31  C   UNL     1      -4.984   3.648 -23.305  0.00  0.00    +0.007 A 
ENDBRANCH  25  26
ENDBRANCH  24  25
ENDBRANCH   4  24
TORSDOF 8
ENDMDL
