MODEL 1
REMARK VINA RESULT:   -13.482      0.000      0.000
REMARK INTER + INTRA:         -11.972
REMARK INTER:                 -12.782
REMARK INTRA:                   0.810
REMARK UNBOUND:                 3.086
REMARK  Name = ZINC000013408755
REMARK  5 active torsions:
REMARK  status: ('A' for Active; 'I' for Inactive)
REMARK    1  A    between atoms: C_1  and  C_2
REMARK    2  A    between atoms: C_2  and  O_4
REMARK    3  A    between atoms: O_4  and  C_5
REMARK    4  A    between atoms: C_18  and  C_19
REMARK    5  A    between atoms: C_23  and  C_24
REMARK                            x       y       z     vdW  Elec       q    Type
REMARK                         _______ _______ _______ _____ _____    ______ ____
ROOT
ATOM      1  C   UNL     1       1.968   3.117 -23.678  0.00  0.00    +0.183 C 
ATOM      2  C   UNL     1       1.866   3.778 -24.794  0.00  0.00    +0.045 C 
ATOM      3  C   UNL     1       0.608   4.035 -24.996  0.00  0.00    +0.008 C 
ATOM      4  C   UNL     1      -0.068   3.534 -24.005  0.00  0.00    +0.002 C 
ATOM      5  C   UNL     1      -1.341   3.521 -23.740  0.00  0.00    -0.003 C 
ATOM      6  C   UNL     1      -2.181   4.088 -24.554  0.00  0.00    +0.008 C 
ATOM      7  C   UNL     1      -3.453   4.075 -24.289  0.00  0.00    +0.032 C 
ATOM      8  C   UNL     1      -3.886   3.495 -23.209  0.00  0.00    -0.060 C 
ATOM      9  C   UNL     1      -5.159   3.481 -22.943  0.00  0.00    +0.046 C 
ATOM     10  C   UNL     1      -5.592   2.902 -21.864  0.00  0.00    +0.156 C 
ATOM     11  C   UNL     1      -4.752   2.335 -21.050  0.00  0.00    +0.080 C 
ATOM     12  C   UNL     1      -3.479   2.348 -21.315  0.00  0.00    +0.019 C 
ATOM     13  O   UNL     1      -6.864   2.889 -21.599  0.00  0.00    -0.293 OA
ATOM     14  C   UNL     1      -3.046   2.928 -22.395  0.00  0.00    -0.007 C 
ATOM     15  C   UNL     1      -2.206   2.360 -21.580  0.00  0.00    +0.016 C 
ATOM     16  C   UNL     1      -1.774   2.941 -22.660  0.00  0.00    +0.002 C 
ATOM     17  C   UNL     1      -0.934   2.373 -21.845  0.00  0.00    +0.005 C 
ATOM     18  C   UNL     1       0.338   2.386 -22.111  0.00  0.00    +0.011 C 
ATOM     19  C   UNL     1       0.771   2.967 -23.191  0.00  0.00    +0.008 C 
ATOM     20  C   UNL     1       1.710   2.439 -22.462  0.00  0.00    +0.015 C 
ENDROOT
BRANCH   1  21
ATOM     21  O   UNL     1       3.070   2.684 -23.143  0.00  0.00    -0.461 OA
BRANCH  21  23
ATOM     22  C   UNL     1       5.229   3.026 -23.684  0.00  0.00    +0.136 C 
ATOM     23  C   UNL     1       4.127   3.440 -23.131  0.00  0.00    +0.304 C 
ATOM     24  O   UNL     1       4.083   4.610 -22.566  0.00  0.00    -0.251 OA
ENDBRANCH  21  23
ENDBRANCH   1  21
TORSDOF 2
ENDMDL
