MODEL 1
REMARK VINA RESULT:    -9.820      0.000      0.000
REMARK INTER + INTRA:          -7.397
REMARK INTER:                 -11.524
REMARK INTRA:                   4.126
REMARK UNBOUND:                 4.145
REMARK  Name = COc1ccc2c3c1O[C@H]1C(OC)(OC)CC[C@H]4[C@@H](C2)N(C)CC[C@@]341         ZINC000253505308
REMARK  7 active torsions:
REMARK  status: ('A' for Active; 'I' for Inactive)
REMARK    1  A    between atoms: C_1  and  O_2
REMARK    2  A    between atoms: O_2  and  C_3
REMARK    3  A    between atoms: C_11  and  O_12
REMARK    4  A    between atoms: C_11  and  O_14
REMARK    5  A    between atoms: O_12  and  C_13
REMARK    6  A    between atoms: O_14  and  C_15
REMARK    7  A    between atoms: N_21  and  C_22
REMARK                            x       y       z     vdW  Elec       q    Type
REMARK                         _______ _______ _______ _____ _____    ______ ____
ROOT
ATOM      1  C   UNL     1       1.409   1.849 -22.045  0.00  0.00    +0.162 A 
ATOM      2  C   UNL     1       2.072   1.945 -23.121  0.00  0.00    +0.050 A 
ATOM      3  C   UNL     1       1.527   2.360 -24.171  0.00  0.00    +0.008 A 
ATOM      4  C   UNL     1       0.314   2.683 -24.156  0.00  0.00    -0.035 A 
ATOM      5  C   UNL     1      -0.368   2.596 -23.097  0.00  0.00    +0.012 A 
ATOM      6  C   UNL     1      -1.578   2.919 -23.089  0.00  0.00    +0.054 C 
ATOM      7  C   UNL     1      -2.961   3.257 -22.955  0.00  0.00    +0.067 C 
ATOM      8  C   UNL     1      -3.605   3.729 -24.122  0.00  0.00    +0.132 C 
ATOM      9  N   UNL     1      -2.833   3.823 -25.304  0.00  0.00    +0.236 N 
ATOM     10  H   UNL     1      -3.247   4.156 -26.175  0.00  0.00    +0.203 HD
ATOM     11  C   UNL     1      -3.327   4.231 -26.382  0.00  0.00    +0.190 C 
ATOM     12  C   UNL     1      -1.462   3.430 -25.211  0.00  0.00    +0.072 C 
ATOM     13  C   UNL     1      -2.128   3.335 -24.136  0.00  0.00    +0.053 C 
ATOM     14  C   UNL     1      -3.354   3.662 -24.126  0.00  0.00    +0.015 C 
ATOM     15  C   UNL     1      -4.017   3.569 -23.065  0.00  0.00    +0.069 C 
ATOM     16  C   UNL     1      -3.471   3.150 -22.000  0.00  0.00    +0.208 C 
ATOM     17  C   UNL     1      -2.259   2.827 -22.014  0.00  0.00    +0.244 C 
ATOM     18  O   UNL     1      -1.078   2.307 -21.219  0.00  0.00    -0.479 OA
ATOM     19  C   UNL     1      -0.249   3.107 -25.224  0.00  0.00    +0.090 C 
ATOM     20  C   UNL     1       0.180   2.176 -22.035  0.00  0.00    +0.167 A 
ENDROOT
BRANCH   1  22
ATOM     21  C   UNL     1       3.168   1.097 -21.013  0.00  0.00    +0.277 C 
ATOM     22  O   UNL     1       1.959   1.433 -20.997  0.00  0.00    -0.491 OA
ENDBRANCH   1  22
BRANCH  16  23
ATOM     23  O   UNL     1      -4.635   3.355 -21.578  0.00  0.00    -0.349 OA
ATOM     24  C   UNL     1      -5.396   2.387 -21.341  0.00  0.00    +0.197 C 
ENDBRANCH  16  23
BRANCH  16  25
ATOM     25  O   UNL     1      -3.328   2.806 -20.803  0.00  0.00    -0.349 OA
ATOM     26  C   UNL     1      -3.298   3.675 -19.899  0.00  0.00    +0.197 C 
ENDBRANCH  16  25
TORSDOF 3
ENDMDL
