MODEL 1
REMARK VINA RESULT:    -9.372      0.000      0.000
REMARK INTER + INTRA:         -10.501
REMARK INTER:                 -10.587
REMARK INTRA:                   0.086
REMARK UNBOUND:                 0.240
REMARK  Name = ZINC000005783606
REMARK  6 active torsions:
REMARK  status: ('A' for Active; 'I' for Inactive)
REMARK    1  A    between atoms: C_1  and  O_2
REMARK    2  A    between atoms: O_2  and  C_3
REMARK    3  A    between atoms: C_7  and  O_8
REMARK    4  A    between atoms: C_9  and  O_10
REMARK    5  A    between atoms: O_10  and  C_11
REMARK    6  A    between atoms: N_20  and  C_21
REMARK                            x       y       z     vdW  Elec       q    Type
REMARK                         _______ _______ _______ _____ _____    ______ ____
ROOT
ATOM      1  C   UNL     1       1.221   2.245 -22.618  0.00  0.00    +0.167 A 
ATOM      2  C   UNL     1       0.045   2.370 -22.078  0.00  0.00    +0.076 A 
ATOM      3  C   UNL     1      -0.970   2.726 -22.807  0.00  0.00    +0.060 A 
ATOM      4  C   UNL     1      -0.810   2.957 -24.076  0.00  0.00    +0.091 A 
ATOM      5  C   UNL     1      -1.827   3.313 -24.805  0.00  0.00    +0.201 A 
ATOM      6  C   UNL     1      -3.002   3.438 -24.265  0.00  0.00    +0.046 A 
ATOM      7  C   UNL     1      -4.018   3.794 -24.994  0.00  0.00    +0.014 A 
ATOM      8  C   UNL     1      -5.194   3.919 -24.454  0.00  0.00    +0.001 A 
ATOM      9  C   UNL     1      -5.354   3.688 -23.185  0.00  0.00    +0.002 A 
ATOM     10  C   UNL     1      -4.337   3.332 -22.455  0.00  0.00    +0.026 A 
ATOM     11  C   UNL     1      -3.162   3.207 -22.996  0.00  0.00    +0.053 A 
ATOM     12  O   UNL     1      -1.667   3.543 -26.075  0.00  0.00    -0.286 OA
ATOM     13  C   UNL     1       0.365   2.832 -24.617  0.00  0.00    +0.175 A 
ATOM     14  N   UNL     1      -2.147   2.852 -22.267  0.00  0.00    -0.343 N 
ATOM     15  C   UNL     1      -2.306   2.621 -20.997  0.00  0.00    +0.149 C 
ATOM     16  C   UNL     1       1.380   2.476 -23.888  0.00  0.00    +0.204 A 
ENDROOT
BRANCH   1  18
ATOM     17  C   UNL     1       2.055   1.525 -20.655  0.00  0.00    +0.277 C 
ATOM     18  O   UNL     1       2.236   1.890 -21.889  0.00  0.00    -0.491 OA
ENDBRANCH   1  18
BRANCH  13  19
ATOM     19  O   UNL     1       0.525   3.062 -25.886  0.00  0.00    -0.503 OA
ATOM     20  H   UNL     1      -0.069   3.629 -26.338  0.00  0.00    +0.292 HD
ENDBRANCH  13  19
BRANCH  16  21
ATOM     21  O   UNL     1       2.557   2.350 -24.428  0.00  0.00    -0.488 OA
ATOM     22  C   UNL     1       3.007   1.171 -24.738  0.00  0.00    +0.277 C 
ENDBRANCH  16  21
TORSDOF 3
ENDMDL
