MODEL 1
REMARK VINA RESULT:   -10.403      0.000      0.000
REMARK INTER + INTRA:         -11.788
REMARK INTER:                 -11.416
REMARK INTRA:                  -0.372
REMARK UNBOUND:                 0.439
REMARK  Name = COc1ccc2c(c1Oc1ccccc1)[C@@]13CCN(C)[C@H](C2)[C@@H]1[C@H](C)CC(=O)C3  ZINC000100393767
REMARK  6 active torsions:
REMARK  status: ('A' for Active; 'I' for Inactive)
REMARK    1  A    between atoms: C_1  and  O_2
REMARK    2  A    between atoms: O_2  and  C_3
REMARK    3  A    between atoms: C_8  and  O_9
REMARK    4  A    between atoms: O_9  and  C_10
REMARK    5  A    between atoms: N_19  and  C_20
REMARK    6  A    between atoms: C_24  and  C_25
REMARK                            x       y       z     vdW  Elec       q    Type
REMARK                         _______ _______ _______ _____ _____    ______ ____
ROOT
ATOM      1  C   UNL     1      -1.790   2.757 -21.217  0.00  0.00    +0.162 A 
ATOM      2  C   UNL     1      -2.945   2.792 -20.711  0.00  0.00    +0.050 A 
ATOM      3  C   UNL     1      -3.930   3.021 -21.465  0.00  0.00    +0.008 A 
ATOM      4  C   UNL     1      -3.698   3.237 -22.894  0.00  0.00    -0.035 A 
ATOM      5  C   UNL     1      -2.703   3.192 -23.243  0.00  0.00    +0.009 A 
ATOM      6  C   UNL     1      -2.337   3.301 -24.113  0.00  0.00    +0.019 C 
ATOM      7  C   UNL     1      -2.791   3.079 -22.513  0.00  0.00    +0.063 C 
ATOM      8  C   UNL     1      -4.207   3.164 -22.149  0.00  0.00    +0.132 C 
ATOM      9  N   UNL     1      -4.997   3.386 -22.979  0.00  0.00    +0.236 N 
ATOM     10  H   UNL     1      -5.420   3.582 -23.886  0.00  0.00    +0.203 HD
ATOM     11  C   UNL     1      -4.594   3.598 -24.490  0.00  0.00    +0.073 C 
ATOM     12  C   UNL     1      -5.966   3.334 -22.076  0.00  0.00    +0.190 C 
ATOM     13  C   UNL     1      -1.157   3.249 -24.534  0.00  0.00    +0.086 C 
ATOM     14  C   UNL     1      -0.921   3.436 -25.791  0.00  0.00    +0.134 C 
ATOM     15  O   UNL     1       0.279   3.385 -26.229  0.00  0.00    -0.297 OA
ATOM     16  C   UNL     1      -1.891   3.678 -26.637  0.00  0.00    +0.078 C 
ATOM     17  C   UNL     1      -3.117   3.738 -26.238  0.00  0.00    +0.002 C 
ATOM     18  C   UNL     1      -4.066   3.976 -27.066  0.00  0.00    +0.008 C 
ATOM     19  C   UNL     1      -3.393   3.564 -25.027  0.00  0.00    +0.052 C 
ATOM     20  C   UNL     1      -4.688   3.465 -23.642  0.00  0.00    +0.090 C 
ATOM     21  C   UNL     1      -1.657   2.956 -22.481  0.00  0.00    +0.174 A 
ENDROOT
BRANCH   1  23
ATOM     22  C   UNL     1       0.091   1.481 -20.625  0.00  0.00    +0.277 C 
ATOM     23  O   UNL     1      -0.594   2.532 -20.611  0.00  0.00    -0.491 OA
ENDBRANCH   1  23
BRANCH  21  24
ATOM     24  O   UNL     1      -0.376   2.981 -23.421  0.00  0.00    -0.452 OA
BRANCH  24  25
ATOM     25  C   UNL     1       0.865   3.624 -23.360  0.00  0.00    +0.129 A 
ATOM     26  C   UNL     1       1.874   2.839 -23.355  0.00  0.00    +0.046 A 
ATOM     27  C   UNL     1       3.055   3.323 -23.301  0.00  0.00    +0.004 A 
ATOM     28  C   UNL     1       3.227   4.586 -23.252  0.00  0.00    +0.000 A 
ATOM     29  C   UNL     1       2.217   5.373 -23.257  0.00  0.00    +0.004 A 
ATOM     30  C   UNL     1       1.035   4.890 -23.311  0.00  0.00    +0.046 A 
ENDBRANCH  24  25
ENDBRANCH  21  24
TORSDOF 3
ENDMDL
