MODEL 1
REMARK VINA RESULT:   -10.770      0.000      0.000
REMARK INTER + INTRA:         -12.529
REMARK INTER:                 -12.461
REMARK INTRA:                  -0.068
REMARK UNBOUND:                 0.130
REMARK  Name = ZINC000001886965
REMARK  7 active torsions:
REMARK  status: ('A' for Active; 'I' for Inactive)
REMARK    1  A    between atoms: C_1  and  C_2
REMARK    2  A    between atoms: C_2  and  C_3
REMARK    3  A    between atoms: C_4  and  C_5
REMARK    4  A    between atoms: C_5  and  C_6
REMARK    5  A    between atoms: C_6  and  C_7
REMARK    6  A    between atoms: C_7  and  C_8
REMARK    7  A    between atoms: C_13  and  C_14
REMARK                            x       y       z     vdW  Elec       q    Type
REMARK                         _______ _______ _______ _____ _____    ______ ____
ROOT
ATOM      1  C   UNL     1       2.406   1.899 -23.155  0.00  0.00    +0.127 C 
ATOM      2  C   UNL     1       1.841   1.484 -22.063  0.00  0.00    +0.021 C 
ATOM      3  C   UNL     1       0.571   1.680 -21.867  0.00  0.00    +0.013 C 
ATOM      4  C   UNL     1      -0.137   2.295 -22.769  0.00  0.00    +0.041 A 
ATOM      5  C   UNL     1       0.427   2.712 -23.864  0.00  0.00    +0.134 A 
ATOM      6  C   UNL     1      -0.280   3.327 -24.766  0.00  0.00    -0.007 A 
ATOM      7  C   UNL     1      -1.550   3.523 -24.571  0.00  0.00    +0.017 A 
ATOM      8  C   UNL     1      -2.113   3.107 -23.478  0.00  0.00    +0.008 A 
ATOM      9  C   UNL     1      -3.339   3.176 -23.049  0.00  0.00    +0.007 A 
ATOM     10  C   UNL     1      -4.416   3.686 -23.570  0.00  0.00    +0.010 A 
ATOM     11  C   UNL     1      -5.542   3.624 -22.923  0.00  0.00    +0.001 A 
ATOM     12  C   UNL     1      -5.593   3.052 -21.757  0.00  0.00    +0.002 A 
ATOM     13  C   UNL     1      -4.517   2.542 -21.236  0.00  0.00    +0.026 A 
ATOM     14  C   UNL     1      -3.389   2.604 -21.882  0.00  0.00    +0.047 A 
ATOM     15  N   UNL     1      -2.197   2.181 -21.589  0.00  0.00    -0.354 N 
ATOM     16  H   UNL     1      -1.935   1.709 -20.765  0.00  0.00    +0.166 HD
ATOM     17  C   UNL     1       0.282   3.744 -25.860  0.00  0.00    +0.047 C 
ATOM     18  C   UNL     1      -1.408   2.492 -22.575  0.00  0.00    +0.058 A 
ATOM     19  C   UNL     1       3.324   2.132 -24.045  0.00  0.00    +0.060 C 
ATOM     20  O   UNL     1       1.697   2.515 -24.059  0.00  0.00    -0.481 OA
ENDROOT
BRANCH   1  21
ATOM     21  C   UNL     1       3.431   1.366 -22.564  0.00  0.00    +0.056 C 
BRANCH  21  22
ATOM     22  C   UNL     1       4.617   1.866 -22.743  0.00  0.00    +0.031 C 
BRANCH  22  25
ATOM     23  C   UNL     1       6.780   3.853 -20.954  0.00  0.00    +0.038 C 
ATOM     24  C   UNL     1       6.141   3.325 -21.954  0.00  0.00    -0.080 C 
ATOM     25  C   UNL     1       5.257   2.395 -21.742  0.00  0.00    -0.028 C 
ATOM     26  C   UNL     1       6.383   3.726 -23.167  0.00  0.00    +0.038 C 
ENDBRANCH  22  25
ENDBRANCH  21  22
ENDBRANCH   1  21
TORSDOF 3
ENDMDL
