MODEL 1
REMARK VINA RESULT:   -10.174      0.000      0.000
REMARK INTER + INTRA:         -14.129
REMARK INTER:                 -13.305
REMARK INTRA:                  -0.824
REMARK UNBOUND:                -0.684
REMARK  Name = ZINC000003894278
REMARK  8 active torsions:
REMARK  status: ('A' for Active; 'I' for Inactive)
REMARK    1  A    between atoms: C_7  and  O_8
REMARK    2  A    between atoms: O_8  and  C_9
REMARK    3  A    between atoms: C_11  and  C_12
REMARK    4  A    between atoms: C_12  and  O_13
REMARK    5  A    between atoms: C_14  and  O_15
REMARK    6  A    between atoms: C_16  and  O_17
REMARK    7  A    between atoms: C_18  and  O_19
REMARK    8  A    between atoms: C_20  and  O_21
REMARK                            x       y       z     vdW  Elec       q    Type
REMARK                         _______ _______ _______ _____ _____    ______ ____
ROOT
ATOM      1  C   UNL     1       1.509   2.930 -23.937  0.00  0.00    +0.339 C 
ATOM      2  O   UNL     1       1.816   2.819 -22.679  0.00  0.00    -0.331 OA
ATOM      3  C   UNL     1       2.662   1.910 -22.294  0.00  0.00    +0.179 C 
ATOM      4  C   UNL     1       3.202   1.113 -23.167  0.00  0.00    +0.177 C 
ATOM      5  C   UNL     1       2.895   1.224 -24.426  0.00  0.00    +0.180 C 
ATOM      6  C   UNL     1       2.049   2.133 -24.811  0.00  0.00    +0.214 C 
ENDROOT
BRANCH   5   7
ATOM      7  O   UNL     1       3.435   0.427 -25.299  0.00  0.00    -0.386 OA
ATOM      8  H   UNL     1       3.286  -0.494 -25.032  0.00  0.00    +0.210 HD
ENDBRANCH   5   7
BRANCH   4   9
ATOM      9  O   UNL     1       4.048   0.204 -22.782  0.00  0.00    -0.386 OA
ATOM     10  H   UNL     1       3.902  -0.610 -23.291  0.00  0.00    +0.210 HD
ENDBRANCH   4   9
BRANCH   6  11
ATOM     11  O   UNL     1       1.742   2.244 -26.069  0.00  0.00    -0.383 OA
ATOM     12  H   UNL     1       2.417   2.776 -26.520  0.00  0.00    +0.210 HD
ENDBRANCH   6  11
BRANCH   1  13
ATOM     13  O   UNL     1       0.663   3.839 -24.322  0.00  0.00    -0.457 OA
BRANCH  13  20
ATOM     14  O   UNL     1      -6.072   3.258 -21.733  0.00  0.00    -0.245 OA
ATOM     15  C   UNL     1      -4.807   3.391 -22.004  0.00  0.00    +0.337 A 
ATOM     16  C   UNL     1      -3.956   3.608 -21.046  0.00  0.00    +0.092 A 
ATOM     17  C   UNL     1      -2.692   3.741 -21.318  0.00  0.00    +0.018 A 
ATOM     18  C   UNL     1      -2.278   3.657 -22.548  0.00  0.00    +0.021 A 
ATOM     19  C   UNL     1      -1.014   3.790 -22.820  0.00  0.00    +0.061 A 
ATOM     20  C   UNL     1      -0.602   3.706 -24.049  0.00  0.00    +0.166 A 
ATOM     21  C   UNL     1      -1.453   3.490 -25.007  0.00  0.00    +0.162 A 
ATOM     22  C   UNL     1      -2.717   3.357 -24.736  0.00  0.00    +0.096 A 
ATOM     23  C   UNL     1      -3.130   3.440 -23.506  0.00  0.00    +0.143 A 
ATOM     24  O   UNL     1      -4.394   3.308 -23.234  0.00  0.00    -0.422 OA
BRANCH  21  25
ATOM     25  O   UNL     1      -1.041   3.406 -26.237  0.00  0.00    -0.503 OA
ATOM     26  H   UNL     1      -1.024   2.575 -26.670  0.00  0.00    +0.292 HD
ENDBRANCH  21  25
ENDBRANCH  13  20
ENDBRANCH   1  13
BRANCH   3  27
ATOM     27  C   UNL     1       2.969   1.798 -21.036  0.00  0.00    +0.190 C 
BRANCH  27  28
ATOM     28  O   UNL     1       4.128   2.203 -20.610  0.00  0.00    -0.392 OA
ATOM     29  H   UNL     1       4.282   3.113 -20.908  0.00  0.00    +0.210 HD
ENDBRANCH  27  28
ENDBRANCH   3  27
TORSDOF 8
ENDMDL
