MODEL 1
REMARK VINA RESULT:   -10.213      0.000      0.000
REMARK INTER + INTRA:         -13.101
REMARK INTER:                 -12.211
REMARK INTRA:                  -0.889
REMARK UNBOUND:                 0.694
REMARK  Name = ZINC000001668160
REMARK  10 active torsions:
REMARK  status: ('A' for Active; 'I' for Inactive)
REMARK    1  A    between atoms: C_1  and  O_2
REMARK    2  A    between atoms: O_2  and  C_3
REMARK    3  A    between atoms: C_6  and  C_7
REMARK    4  A    between atoms: C_11  and  C_12
REMARK    5  A    between atoms: C_15  and  O_16
REMARK    6  A    between atoms: O_16  and  C_17
REMARK    7  A    between atoms: C_18  and  O_19
REMARK    8  A    between atoms: O_19  and  C_20
REMARK    9  A    between atoms: C_26  and  O_27
REMARK   10  A    between atoms: O_27  and  C_28
REMARK                            x       y       z     vdW  Elec       q    Type
REMARK                         _______ _______ _______ _____ _____    ______ ____
ROOT
ATOM      1  C   UNL     1       2.346   4.184 -23.311  0.00  0.00    +0.154 C 
ATOM      2  O   UNL     1       1.669   5.197 -23.763  0.00  0.00    -0.371 OA
ATOM      3  C   UNL     1       0.408   4.961 -23.561  0.00  0.00    +0.167 C 
ATOM      4  C   UNL     1       0.303   3.801 -22.984  0.00  0.00    +0.056 C 
ATOM      5  C   UNL     1      -0.541   2.937 -22.501  0.00  0.00    +0.154 C 
ATOM      6  O   UNL     1       0.137   1.925 -22.049  0.00  0.00    -0.371 OA
ATOM      7  C   UNL     1       1.398   2.161 -22.251  0.00  0.00    +0.167 C 
ATOM      8  C   UNL     1       1.503   3.321 -22.829  0.00  0.00    +0.056 C 
ENDROOT
BRANCH   5   9
ATOM      9  C   UNL     1      -1.833   3.066 -22.477  0.00  0.00    -0.015 A 
ATOM     10  C   UNL     1      -2.473   2.985 -21.347  0.00  0.00    +0.010 A 
ATOM     11  C   UNL     1      -3.767   3.113 -21.323  0.00  0.00    +0.050 A 
ATOM     12  C   UNL     1      -4.420   3.322 -22.427  0.00  0.00    +0.162 A 
ATOM     13  C   UNL     1      -3.781   3.403 -23.556  0.00  0.00    +0.162 A 
ATOM     14  C   UNL     1      -2.487   3.275 -23.580  0.00  0.00    +0.055 A 
BRANCH  13  15
ATOM     15  O   UNL     1      -4.434   3.612 -24.661  0.00  0.00    -0.491 OA
ATOM     16  C   UNL     1      -3.880   3.337 -25.804  0.00  0.00    +0.277 C 
ENDBRANCH  13  15
BRANCH  12  17
ATOM     17  O   UNL     1      -5.714   3.451 -22.403  0.00  0.00    -0.491 OA
ATOM     18  C   UNL     1      -6.434   2.635 -21.691  0.00  0.00    +0.277 C 
ENDBRANCH  12  17
ENDBRANCH   5   9
BRANCH   1  22
ATOM     19  C   UNL     1       6.226   3.800 -23.386  0.00  0.00    +0.162 A 
ATOM     20  C   UNL     1       5.468   2.820 -23.780  0.00  0.00    +0.050 A 
ATOM     21  C   UNL     1       4.174   2.948 -23.755  0.00  0.00    +0.010 A 
ATOM     22  C   UNL     1       3.639   4.056 -23.336  0.00  0.00    -0.015 A 
ATOM     23  C   UNL     1       4.398   5.036 -22.942  0.00  0.00    +0.055 A 
ATOM     24  C   UNL     1       5.691   4.908 -22.967  0.00  0.00    +0.162 A 
BRANCH  19  26
ATOM     25  C   UNL     1       8.133   3.493 -24.543  0.00  0.00    +0.277 C 
ATOM     26  O   UNL     1       7.520   3.672 -23.411  0.00  0.00    -0.491 OA
ENDBRANCH  19  26
BRANCH  24  27
ATOM     27  O   UNL     1       6.448   5.889 -22.573  0.00  0.00    -0.491 OA
ATOM     28  C   UNL     1       5.961   6.817 -21.804  0.00  0.00    +0.277 C 
ENDBRANCH  24  27
ENDBRANCH   1  22
TORSDOF 6
ENDMDL
