MODEL 1
REMARK VINA RESULT:   -10.555      0.000      0.000
REMARK INTER + INTRA:         -11.267
REMARK INTER:                 -11.143
REMARK INTRA:                  -0.123
REMARK UNBOUND:                -0.095
REMARK  Name = ZINC000027729038
REMARK  3 active torsions:
REMARK  status: ('A' for Active; 'I' for Inactive)
REMARK    1  A    between atoms: C_1  and  O_2
REMARK    2  A    between atoms: O_2  and  C_3
REMARK    3  A    between atoms: N_12  and  C_13
REMARK                            x       y       z     vdW  Elec       q    Type
REMARK                         _______ _______ _______ _____ _____    ______ ____
ROOT
ATOM      1  C   UNL     1      -0.377   2.226 -22.952  0.00  0.00    +0.120 A 
ATOM      2  C   UNL     1      -0.591   2.283 -21.706  0.00  0.00    +0.046 A 
ATOM      3  C   UNL     1      -1.728   2.671 -21.299  0.00  0.00    +0.008 A 
ATOM      4  C   UNL     1      -2.753   3.040 -22.283  0.00  0.00    -0.038 A 
ATOM      5  C   UNL     1      -2.503   2.968 -23.309  0.00  0.00    -0.033 A 
ATOM      6  C   UNL     1      -3.009   3.155 -24.093  0.00  0.00    +0.015 C 
ATOM      7  C   UNL     1      -1.963   2.774 -22.826  0.00  0.00    +0.063 C 
ATOM      8  C   UNL     1      -2.428   2.916 -21.439  0.00  0.00    +0.132 C 
ATOM      9  N   UNL     1      -3.522   3.293 -21.238  0.00  0.00    +0.236 N 
ATOM     10  H   UNL     1      -4.471   3.624 -21.415  0.00  0.00    +0.203 HD
ATOM     11  C   UNL     1      -4.522   3.656 -22.415  0.00  0.00    +0.072 C 
ATOM     12  C   UNL     1      -3.359   3.217 -19.855  0.00  0.00    +0.190 C 
ATOM     13  C   UNL     1      -2.715   3.069 -25.311  0.00  0.00    +0.086 C 
ATOM     14  C   UNL     1      -3.597   3.388 -26.205  0.00  0.00    +0.134 C 
ATOM     15  O   UNL     1      -3.300   3.302 -27.452  0.00  0.00    -0.297 OA
ATOM     16  C   UNL     1      -4.798   3.799 -25.862  0.00  0.00    +0.075 C 
ATOM     17  C   UNL     1      -5.138   3.900 -24.617  0.00  0.00    +0.017 C 
ATOM     18  C   UNL     1      -4.313   3.601 -23.715  0.00  0.00    +0.049 C 
ATOM     19  C   UNL     1      -3.888   3.428 -21.870  0.00  0.00    +0.090 C 
ATOM     20  C   UNL     1      -1.322   2.565 -23.765  0.00  0.00    +0.050 A 
ENDROOT
BRANCH   1  22
ATOM     21  C   UNL     1       1.507   2.495 -24.492  0.00  0.00    +0.277 C 
ATOM     22  O   UNL     1       0.737   1.851 -23.728  0.00  0.00    -0.495 OA
ENDBRANCH   1  22
TORSDOF 1
ENDMDL
