MODEL 1
REMARK VINA RESULT:   -10.983      0.000      0.000
REMARK INTER + INTRA:         -12.050
REMARK INTER:                 -12.278
REMARK INTRA:                   0.229
REMARK UNBOUND:                 0.218
REMARK  Name = ZINC000019701798
REMARK  4 active torsions:
REMARK  status: ('A' for Active; 'I' for Inactive)
REMARK    1  A    between atoms: C_1  and  O_2
REMARK    2  A    between atoms: O_2  and  C_3
REMARK    3  A    between atoms: C_8  and  O_9
REMARK    4  A    between atoms: O_9  and  C_10
REMARK                            x       y       z     vdW  Elec       q    Type
REMARK                         _______ _______ _______ _____ _____    ______ ____
ROOT
ATOM      1  C   UNL     1      -4.276   3.321 -22.501  0.00  0.00    +0.162 A 
ATOM      2  C   UNL     1      -3.929   2.707 -21.410  0.00  0.00    +0.050 A 
ATOM      3  C   UNL     1      -2.702   2.306 -21.250  0.00  0.00    +0.008 A 
ATOM      4  C   UNL     1      -1.822   2.521 -22.184  0.00  0.00    -0.030 A 
ATOM      5  C   UNL     1      -2.169   3.135 -23.275  0.00  0.00    +0.046 A 
ATOM      6  C   UNL     1      -1.290   3.349 -24.208  0.00  0.00    +0.172 C 
ATOM      7  N   UNL     1      -0.063   2.949 -24.049  0.00  0.00    +0.244 N 
ATOM      8  H   UNL     1      -0.263   3.424 -24.930  0.00  0.00    +0.204 HD
ATOM      9  C   UNL     1       0.817   3.163 -24.981  0.00  0.00    +0.137 C 
ATOM     10  C   UNL     1       2.043   2.763 -24.822  0.00  0.00    +0.086 C 
ATOM     11  C   UNL     1       2.390   2.149 -23.731  0.00  0.00    -0.030 A 
ATOM     12  C   UNL     1       3.617   1.748 -23.571  0.00  0.00    +0.053 A 
ATOM     13  C   UNL     1       3.963   1.134 -22.479  0.00  0.00    +0.167 A 
ATOM     14  C   UNL     1       3.083   0.920 -21.547  0.00  0.00    +0.167 A 
ATOM     15  O   UNL     1       3.676   0.297 -20.572  0.00  0.00    -0.453 OA
ATOM     16  C   UNL     1       4.921   0.125 -20.901  0.00  0.00    +0.466 C 
ATOM     17  C   UNL     1       1.857   1.320 -21.706  0.00  0.00    +0.059 A 
ATOM     18  O   UNL     1       5.099   0.643 -22.080  0.00  0.00    -0.453 OA
ATOM     19  C   UNL     1       1.510   1.935 -22.798  0.00  0.00    +0.008 A 
ATOM     20  C   UNL     1       0.284   2.335 -22.957  0.00  0.00    +0.100 C 
ATOM     21  C   UNL     1      -0.596   2.121 -22.024  0.00  0.00    +0.095 C 
ATOM     22  C   UNL     1      -3.396   3.536 -23.435  0.00  0.00    +0.170 A 
ENDROOT
BRANCH   1  24
ATOM     23  C   UNL     1      -6.479   3.052 -22.126  0.00  0.00    +0.277 C 
ATOM     24  O   UNL     1      -5.503   3.722 -22.661  0.00  0.00    -0.491 OA
ENDBRANCH   1  24
BRANCH  22  25
ATOM     25  O   UNL     1      -3.743   4.150 -24.527  0.00  0.00    -0.491 OA
ATOM     26  C   UNL     1      -4.302   3.488 -25.495  0.00  0.00    +0.277 C 
ENDBRANCH  22  25
TORSDOF 2
ENDMDL
