MODEL 1
REMARK VINA RESULT:   -10.986      0.000      0.000
REMARK INTER + INTRA:         -12.088
REMARK INTER:                 -11.971
REMARK INTRA:                  -0.117
REMARK UNBOUND:                -0.138
REMARK  Name = COc1ccc2c3c1O[C@H]1[C@@H](O)C=C[C@H]4[C@H](C2)N(C=O)CC[C@@]341       ZINC000100393479
REMARK  3 active torsions:
REMARK  status: ('A' for Active; 'I' for Inactive)
REMARK    1  A    between atoms: C_1  and  O_2
REMARK    2  A    between atoms: O_2  and  C_3
REMARK    3  A    between atoms: C_11  and  O_12
REMARK                            x       y       z     vdW  Elec       q    Type
REMARK                         _______ _______ _______ _____ _____    ______ ____
ROOT
ATOM      1  C   UNL     1       0.868   2.660 -23.918  0.00  0.00    +0.162 A 
ATOM      2  C   UNL     1       1.012   2.181 -22.755  0.00  0.00    +0.050 A 
ATOM      3  C   UNL     1       0.029   2.065 -21.992  0.00  0.00    +0.008 A 
ATOM      4  C   UNL     1      -1.105   2.427 -22.380  0.00  0.00    -0.038 A 
ATOM      5  C   UNL     1      -1.272   2.906 -23.531  0.00  0.00    +0.012 A 
ATOM      6  C   UNL     1      -2.406   3.265 -23.913  0.00  0.00    +0.049 C 
ATOM      7  C   UNL     1      -3.647   3.707 -24.458  0.00  0.00    +0.035 C 
ATOM      8  C   UNL     1      -4.775   3.590 -23.620  0.00  0.00    +0.109 C 
ATOM      9  N   UNL     1      -4.576   3.051 -22.331  0.00  0.00    -0.300 N 
ATOM     10  C   UNL     1      -5.526   2.908 -21.511  0.00  0.00    +0.328 C 
ATOM     11  O   UNL     1      -6.693   3.244 -21.821  0.00  0.00    -0.279 OA
ATOM     12  C   UNL     1      -3.246   2.672 -21.991  0.00  0.00    +0.088 C 
ATOM     13  C   UNL     1      -3.392   3.151 -23.151  0.00  0.00    +0.046 C 
ATOM     14  C   UNL     1      -4.540   3.515 -23.539  0.00  0.00    -0.022 C 
ATOM     15  C   UNL     1      -4.688   3.989 -24.687  0.00  0.00    +0.004 C 
ATOM     16  C   UNL     1      -3.699   4.109 -25.465  0.00  0.00    +0.178 C 
ATOM     17  C   UNL     1      -2.565   3.748 -25.077  0.00  0.00    +0.217 C 
ATOM     18  O   UNL     1      -1.099   3.609 -25.419  0.00  0.00    -0.481 OA
ATOM     19  C   UNL     1      -2.112   2.311 -21.604  0.00  0.00    +0.058 C 
ATOM     20  C   UNL     1      -0.281   3.024 -24.306  0.00  0.00    +0.167 A 
ENDROOT
BRANCH   1  22
ATOM     21  C   UNL     1       2.706   1.859 -24.741  0.00  0.00    +0.277 C 
ATOM     22  O   UNL     1       1.854   2.773 -24.678  0.00  0.00    -0.491 OA
ENDBRANCH   1  22
BRANCH  16  23
ATOM     23  O   UNL     1      -3.853   4.584 -26.611  0.00  0.00    -0.384 OA
ATOM     24  H   UNL     1      -3.029   4.486 -27.114  0.00  0.00    +0.210 HD
ENDBRANCH  16  23
TORSDOF 2
ENDMDL
