MODEL 1
REMARK VINA RESULT:    -7.625      0.000      0.000
REMARK INTER + INTRA:          -7.848
REMARK INTER:                  -7.848
REMARK INTRA:                   0.000
REMARK UNBOUND:                 0.000
REMARK  Name = ZINC000000338213
REMARK  3 active torsions:
REMARK  status: ('A' for Active; 'I' for Inactive)
REMARK    1  A    between atoms: C_1  and  C_2
REMARK    2  A    between atoms: C_2  and  C_3
REMARK    3  A    between atoms: C_8  and  O_9
REMARK                            x       y       z     vdW  Elec       q    Type
REMARK                         _______ _______ _______ _____ _____    ______ ____
ROOT
ATOM      1  C   UNL     1      -3.961   3.325 -20.453  0.00  0.00    +0.055 C 
ATOM      2  C   UNL     1      -3.394   3.313 -21.623  0.00  0.00    +0.105 C 
ATOM      3  C   UNL     1      -4.633   3.484 -21.975  0.00  0.00    +0.052 C 
ATOM      4  C   UNL     1      -4.944   3.586 -23.233  0.00  0.00    +0.043 C 
ATOM      5  C   UNL     1      -4.014   3.516 -24.139  0.00  0.00    -0.002 A 
ATOM      6  C   UNL     1      -4.324   3.617 -25.398  0.00  0.00    +0.052 A 
ATOM      7  C   UNL     1      -3.395   3.547 -26.304  0.00  0.00    +0.117 A 
ATOM      8  C   UNL     1      -2.155   3.375 -25.952  0.00  0.00    +0.049 A 
ATOM      9  C   UNL     1      -1.845   3.274 -24.694  0.00  0.00    +0.049 A 
ATOM     10  C   UNL     1      -2.775   3.344 -23.787  0.00  0.00    +0.125 A 
ATOM     11  C   UNL     1      -2.352   3.146 -20.864  0.00  0.00    +0.055 C 
ATOM     12  O   UNL     1      -2.464   3.243 -22.529  0.00  0.00    -0.486 OA
ENDROOT
BRANCH   7  13
ATOM     13  O   UNL     1      -3.705   3.648 -27.562  0.00  0.00    -0.507 OA
ATOM     14  H   UNL     1      -3.962   4.477 -27.916  0.00  0.00    +0.292 HD
ENDBRANCH   7  13
TORSDOF 1
ENDMDL
