MODEL 1
REMARK VINA RESULT:   -10.952      0.000      0.000
REMARK INTER + INTRA:         -10.906
REMARK INTER:                 -11.753
REMARK INTRA:                   0.847
REMARK UNBOUND:                 1.006
REMARK  Name = ZINC000005510156
REMARK  6 active torsions:
REMARK  status: ('A' for Active; 'I' for Inactive)
REMARK    1  A    between atoms: C_1  and  O_2
REMARK    2  A    between atoms: O_2  and  C_3
REMARK    3  A    between atoms: C_11  and  O_12
REMARK    4  A    between atoms: O_12  and  C_13
REMARK    5  A    between atoms: C_14  and  O_15
REMARK    6  A    between atoms: N_20  and  C_21
REMARK                            x       y       z     vdW  Elec       q    Type
REMARK                         _______ _______ _______ _____ _____    ______ ____
ROOT
ATOM      1  C   UNL     1      -2.358   3.514 -25.089  0.00  0.00    +0.159 C 
ATOM      2  C   UNL     1      -3.070   3.446 -24.443  0.00  0.00    +0.032 C 
ATOM      3  C   UNL     1      -2.902   3.127 -22.975  0.00  0.00    +0.075 C 
ATOM      4  C   UNL     1      -3.793   3.228 -23.068  0.00  0.00    +0.076 C 
ATOM      5  C   UNL     1      -3.671   3.411 -24.008  0.00  0.00    +0.090 C 
ATOM      6  C   UNL     1      -2.036   3.290 -24.146  0.00  0.00    -0.035 A 
ATOM      7  C   UNL     1      -0.860   3.415 -25.276  0.00  0.00    +0.008 A 
ATOM      8  C   UNL     1       0.307   3.242 -24.955  0.00  0.00    +0.049 A 
ATOM      9  C   UNL     1       0.587   2.969 -23.756  0.00  0.00    +0.162 A 
ATOM     10  C   UNL     1      -0.348   2.867 -22.852  0.00  0.00    +0.163 A 
ATOM     11  C   UNL     1      -1.616   3.044 -23.146  0.00  0.00    +0.009 A 
ATOM     12  N   UNL     1      -4.417   3.061 -21.981  0.00  0.00    +0.236 N 
ATOM     13  H   UNL     1      -5.432   3.149 -21.956  0.00  0.00    +0.203 HD
ATOM     14  C   UNL     1      -5.672   3.159 -21.898  0.00  0.00    +0.190 C 
ATOM     15  C   UNL     1      -3.661   2.775 -20.934  0.00  0.00    +0.132 C 
ATOM     16  C   UNL     1      -2.373   2.705 -21.167  0.00  0.00    +0.064 C 
ATOM     17  C   UNL     1      -2.051   2.919 -22.346  0.00  0.00    +0.023 C 
ATOM     18  C   UNL     1      -0.947   3.034 -23.390  0.00  0.00    +0.095 C 
ATOM     19  C   UNL     1      -1.369   3.365 -24.806  0.00  0.00    +0.198 C 
ATOM     20  O   UNL     1      -2.412   3.794 -26.420  0.00  0.00    -0.289 OA
ENDROOT
BRANCH   1  22
ATOM     21  C   UNL     1      -3.290   3.475 -27.557  0.00  0.00    +0.277 C 
ATOM     22  O   UNL     1      -3.514   3.842 -26.163  0.00  0.00    -0.492 OA
ENDBRANCH   1  22
BRANCH  10  23
ATOM     23  O   UNL     1       0.564   2.628 -22.095  0.00  0.00    -0.503 OA
ATOM     24  H   UNL     1       0.421   2.076 -21.351  0.00  0.00    +0.292 HD
ENDBRANCH  10  23
BRANCH   9  25
ATOM     25  O   UNL     1       1.792   2.764 -23.302  0.00  0.00    -0.491 OA
ATOM     26  C   UNL     1       2.830   2.856 -23.969  0.00  0.00    +0.277 C 
ENDBRANCH   9  25
TORSDOF 3
ENDMDL
