MODEL 1
REMARK VINA RESULT:    -9.689      0.000      0.000
REMARK INTER + INTRA:         -13.625
REMARK INTER:                 -12.732
REMARK INTRA:                  -0.893
REMARK UNBOUND:                -0.820
REMARK  Name = ZINC000005683197
REMARK  7 active torsions:
REMARK  status: ('A' for Active; 'I' for Inactive)
REMARK    1  A    between atoms: O5*_1  and  C5*_2
REMARK    2  A    between atoms: C5*_2  and  C4*_3
REMARK    3  A    between atoms: C1*_5  and  N_6
REMARK    4  A    between atoms: N_11  and  C_12
REMARK    5  A    between atoms: C_12  and  C_13
REMARK    6  A    between atoms: C2*_23  and  O2*_24
REMARK    7  A    between atoms: C3*_25  and  O3*_26
REMARK                            x       y       z     vdW  Elec       q    Type
REMARK                         _______ _______ _______ _____ _____    ______ ____
ROOT
ATOM      1  N   UNL     1       3.175   2.391 -23.053  0.00  0.00    -0.286 N 
ATOM      2  C   UNL     1       2.677   1.191 -23.059  0.00  0.00    +0.203 A 
ATOM      3  N   UNL     1       1.405   1.285 -23.312  0.00  0.00    -0.231 NA
ATOM      4  C   UNL     1       1.117   2.544 -23.461  0.00  0.00    +0.147 A 
ATOM      5  C   UNL     1       0.000   3.157 -23.722  0.00  0.00    +0.150 A 
ATOM      6  N   UNL     1      -0.022   4.453 -23.823  0.00  0.00    -0.219 NA
ATOM      7  C   UNL     1       1.072   5.136 -23.663  0.00  0.00    +0.225 A 
ATOM      8  N   UNL     1       2.189   4.524 -23.402  0.00  0.00    -0.216 NA
ATOM      9  N   UNL     1      -1.094   2.473 -23.882  0.00  0.00    -0.323 N 
ATOM     10  H   UNL     1      -1.076   1.491 -23.805  0.00  0.00    +0.148 HD
ATOM     11  C   UNL     1       2.211   3.228 -23.301  0.00  0.00    +0.167 A 
ENDROOT
BRANCH   1  14
ATOM     12  C4* UNL     1       6.426   3.252 -23.143  0.00  0.00    +0.177 C 
ATOM     13  O4* UNL     1       5.301   3.001 -23.744  0.00  0.00    -0.346 OA
ATOM     14  C1* UNL     1       4.419   2.702 -22.836  0.00  0.00    +0.253 C 
ATOM     15  C2* UNL     1       4.999   2.768 -21.675  0.00  0.00    +0.195 C 
ATOM     16  C3* UNL     1       6.240   3.108 -21.865  0.00  0.00    +0.178 C 
BRANCH  15  17
ATOM     17  O2* UNL     1       4.438   2.536 -20.526  0.00  0.00    -0.385 OA
ATOM     18  H2* UNL     1       3.502   2.321 -20.661  0.00  0.00    +0.210 HD
ENDBRANCH  15  17
BRANCH  16  19
ATOM     19  O3* UNL     1       7.136   3.275 -20.939  0.00  0.00    -0.386 OA
ATOM     20  H3* UNL     1       8.021   3.237 -21.335  0.00  0.00    +0.210 HD
ENDBRANCH  16  19
BRANCH  12  21
ATOM     21  C5* UNL     1       7.541   3.587 -23.720  0.00  0.00    +0.190 C 
BRANCH  21  22
ATOM     22  O5* UNL     1       8.612   2.874 -23.529  0.00  0.00    -0.392 OA
ATOM     23  H5* UNL     1       9.198   2.961 -24.297  0.00  0.00    +0.210 HD
ENDBRANCH  21  22
ENDBRANCH  12  21
ENDBRANCH   1  14
BRANCH   9  24
ATOM     24  C   UNL     1      -2.210   3.085 -24.143  0.00  0.00    +0.138 C 
BRANCH  24  25
ATOM     25  C   UNL     1      -3.179   3.067 -23.276  0.00  0.00    -0.030 A 
ATOM     26  C   UNL     1      -2.981   2.574 -22.090  0.00  0.00    +0.005 A 
ATOM     27  C   UNL     1      -3.950   2.556 -21.223  0.00  0.00    +0.000 A 
ATOM     28  C   UNL     1      -5.117   3.031 -21.543  0.00  0.00    +0.000 A 
ATOM     29  C   UNL     1      -5.316   3.524 -22.730  0.00  0.00    +0.000 A 
ATOM     30  C   UNL     1      -4.347   3.542 -23.596  0.00  0.00    +0.005 A 
ENDBRANCH  24  25
ENDBRANCH   9  24
TORSDOF 7
ENDMDL
