MODEL 1
REMARK VINA RESULT:   -10.035      0.000      0.000
REMARK INTER + INTRA:         -11.351
REMARK INTER:                 -11.250
REMARK INTRA:                  -0.102
REMARK UNBOUND:                -0.143
REMARK  Name = COc1ccc2c(c1O)[C@]13CCN(C)[C@H](C2)[C@@H]1C(Br)=CC=C3C               ZINC000096316403
REMARK  5 active torsions:
REMARK  status: ('A' for Active; 'I' for Inactive)
REMARK    1  A    between atoms: C_1  and  O_2
REMARK    2  A    between atoms: O_2  and  C_3
REMARK    3  A    between atoms: C_8  and  O_9
REMARK    4  A    between atoms: N_13  and  C_14
REMARK    5  A    between atoms: C_22  and  C_23
REMARK                            x       y       z     vdW  Elec       q    Type
REMARK                         _______ _______ _______ _____ _____    ______ ____
ROOT
ATOM      1  C   UNL     1      -4.872   3.461 -22.934  0.00  0.00    +0.162 A 
ATOM      2  C   UNL     1      -5.158   3.758 -24.136  0.00  0.00    +0.049 A 
ATOM      3  C   UNL     1      -4.225   3.743 -25.000  0.00  0.00    +0.008 A 
ATOM      4  C   UNL     1      -2.855   3.384 -24.580  0.00  0.00    -0.034 A 
ATOM      5  C   UNL     1      -2.697   3.146 -23.547  0.00  0.00    +0.012 A 
ATOM      6  C   UNL     1      -1.904   2.891 -23.068  0.00  0.00    +0.038 C 
ATOM      7  C   UNL     1      -3.404   3.325 -23.728  0.00  0.00    +0.067 C 
ATOM      8  C   UNL     1      -3.498   3.631 -25.173  0.00  0.00    +0.132 C 
ATOM      9  N   UNL     1      -2.529   3.570 -25.842  0.00  0.00    +0.236 N 
ATOM     10  H   UNL     1      -1.564   3.437 -26.144  0.00  0.00    +0.203 HD
ATOM     11  C   UNL     1      -1.105   3.166 -25.246  0.00  0.00    +0.078 C 
ATOM     12  C   UNL     1      -3.260   3.927 -26.894  0.00  0.00    +0.190 C 
ATOM     13  C   UNL     1      -1.703   2.608 -21.849  0.00  0.00    -0.061 C 
ATOM     14  C   UNL     1      -2.621   2.623 -20.998  0.00  0.00    +0.040 C 
ATOM     15  C   UNL     1      -0.505   2.287 -21.447  0.00  0.00    +0.001 C 
ATOM     16  C   UNL     1       0.509   2.253 -22.295  0.00  0.00    +0.011 C 
ATOM     17  C   UNL     1       0.349   2.536 -23.556  0.00  0.00    +0.005 C 
ATOM     18 BR   UNL     1       1.345   2.500 -24.375  0.00  0.00    -0.054 Br
ATOM     19  C   UNL     1      -0.799   2.852 -23.984  0.00  0.00    +0.090 C 
ATOM     20  C   UNL     1      -1.927   3.371 -25.447  0.00  0.00    +0.090 C 
ATOM     21  C   UNL     1      -3.651   3.154 -22.626  0.00  0.00    +0.163 A 
ENDROOT
BRANCH   1  23
ATOM     22  C   UNL     1      -6.725   2.650 -21.688  0.00  0.00    +0.277 C 
ATOM     23  O   UNL     1      -5.720   3.413 -21.842  0.00  0.00    -0.491 OA
ENDBRANCH   1  23
BRANCH  21  24
ATOM     24  O   UNL     1      -3.392   2.860 -21.412  0.00  0.00    -0.503 OA
ATOM     25  H   UNL     1      -4.066   2.914 -20.762  0.00  0.00    +0.292 HD
ENDBRANCH  21  24
TORSDOF 2
ENDMDL
