MODEL 1
REMARK VINA RESULT:    -7.811      0.000      0.000
REMARK INTER + INTRA:         -12.075
REMARK INTER:                 -10.954
REMARK INTRA:                  -1.121
REMARK UNBOUND:                -0.611
REMARK  Name = ZINC000085341071
REMARK  9 active torsions:
REMARK  status: ('A' for Active; 'I' for Inactive)
REMARK    1  A    between atoms: C_1  and  C_2
REMARK    2  A    between atoms: C_2  and  C_3
REMARK    3  A    between atoms: C_3  and  C_4
REMARK    4  A    between atoms: C_4  and  C_5
REMARK    5  A    between atoms: C_5  and  C_6
REMARK    6  A    between atoms: C_6  and  C_7
REMARK    7  A    between atoms: C_7  and  C_8
REMARK    8  A    between atoms: C_8  and  C_9
REMARK    9  A    between atoms: C_9  and  C_10
REMARK                            x       y       z     vdW  Elec       q    Type
REMARK                         _______ _______ _______ _____ _____    ______ ____
ROOT
ATOM      1  C   UNL     1      -0.477   2.979 -22.653  0.00  0.00    -0.011 C 
ATOM      2  C   UNL     1      -0.135   4.154 -23.093  0.00  0.00    +0.169 C 
ATOM      3  C   UNL     1       1.095   4.382 -23.447  0.00  0.00    -0.089 C 
ATOM      4  C   UNL     1       1.983   3.436 -23.362  0.00  0.00    +0.039 C 
ATOM      5  C   UNL     1       1.641   2.261 -22.922  0.00  0.00    +0.166 C 
ATOM      6  O   UNL     1       2.528   1.315 -22.837  0.00  0.00    -0.289 OA
ATOM      7  O   UNL     1       1.437   5.557 -23.887  0.00  0.00    -0.826 OA
ATOM      8  O   UNL     1      -1.022   5.100 -23.178  0.00  0.00    -0.289 OA
ATOM      9  C   UNL     1       0.410   2.033 -22.568  0.00  0.00    -0.086 C 
ATOM     10  O   UNL     1       0.068   0.859 -22.128  0.00  0.00    -0.826 OA
ENDROOT
BRANCH   1  11
ATOM     11  C   UNL     1      -1.706   2.751 -22.299  0.00  0.00    +0.038 C 
BRANCH  11  12
ATOM     12  C   UNL     1      -2.091   3.008 -21.083  0.00  0.00    +0.005 C 
BRANCH  12  13
ATOM     13  C   UNL     1      -3.324   3.346 -20.850  0.00  0.00    +0.000 C 
BRANCH  13  14
ATOM     14  C   UNL     1      -4.283   2.494 -21.060  0.00  0.00    +0.000 C 
BRANCH  14  15
ATOM     15  C   UNL     1      -5.289   2.820 -21.817  0.00  0.00    +0.000 C 
BRANCH  15  16
ATOM     16  C   UNL     1      -5.209   3.861 -22.592  0.00  0.00    -0.000 C 
BRANCH  16  17
ATOM     17  C   UNL     1      -5.337   3.725 -23.878  0.00  0.00    -0.000 C 
BRANCH  17  19
ATOM     18  C   UNL     1      -3.660   3.411 -25.348  0.00  0.00    +0.004 C 
ATOM     19  C   UNL     1      -4.433   4.211 -24.676  0.00  0.00    -0.003 C 
ENDBRANCH  17  19
ENDBRANCH  16  17
ENDBRANCH  15  16
ENDBRANCH  14  15
ENDBRANCH  13  14
ENDBRANCH  12  13
ENDBRANCH  11  12
ENDBRANCH   1  11
TORSDOF 8
ENDMDL
