MODEL 1
REMARK VINA RESULT:   -10.684      0.000      0.000
REMARK INTER + INTRA:         -10.996
REMARK INTER:                 -10.996
REMARK INTRA:                   0.000
REMARK UNBOUND:                 0.000
REMARK  Name = ZINC000096316368
REMARK  1 active torsions:
REMARK  status: ('A' for Active; 'I' for Inactive)
REMARK    1  A    between atoms: C_19  and  O_20
REMARK                            x       y       z     vdW  Elec       q    Type
REMARK                         _______ _______ _______ _____ _____    ______ ____
ROOT
ATOM      1  O   UNL     1       1.213   3.885 -26.001  0.00  0.00    -0.279 OA
ATOM      2  C   UNL     1       0.238   3.773 -25.397  0.00  0.00    +0.328 C 
ATOM      3  N   UNL     1      -0.566   3.341 -24.122  0.00  0.00    -0.300 N 
ATOM      4  C   UNL     1      -1.272   3.050 -23.204  0.00  0.00    +0.109 C 
ATOM      5  C   UNL     1      -0.928   2.533 -22.144  0.00  0.00    +0.031 C 
ATOM      6  C   UNL     1      -0.013   2.324 -21.992  0.00  0.00    +0.009 C 
ATOM      7  C   UNL     1       0.429   1.792 -20.930  0.00  0.00    +0.086 C 
ATOM      8  C   UNL     1       1.700   1.544 -20.816  0.00  0.00    +0.134 C 
ATOM      9  C   UNL     1       2.546   1.839 -21.792  0.00  0.00    +0.075 C 
ATOM     10  C   UNL     1       2.125   2.391 -22.905  0.00  0.00    +0.014 C 
ATOM     11  O   UNL     1       2.063   0.989 -19.676  0.00  0.00    -0.297 OA
ATOM     12  C   UNL     1      -1.617   2.743 -22.378  0.00  0.00    -0.034 A 
ATOM     13  C   UNL     1      -2.419   2.442 -21.406  0.00  0.00    +0.051 A 
ATOM     14  C   UNL     1      -3.673   2.686 -21.517  0.00  0.00    +0.131 A 
ATOM     15  C   UNL     1      -4.136   3.230 -22.597  0.00  0.00    +0.059 A 
ATOM     16 BR   UNL     1      -5.410   3.410 -22.556  0.00  0.00    -0.047 Br
ATOM     17  C   UNL     1      -3.330   3.532 -23.575  0.00  0.00    +0.023 A 
ATOM     18  C   UNL     1      -2.073   3.293 -23.476  0.00  0.00    -0.041 A 
ATOM     19  C   UNL     1      -1.289   3.560 -24.365  0.00  0.00    +0.058 C 
ATOM     20  C   UNL     1       0.894   2.650 -23.061  0.00  0.00    +0.021 C 
ATOM     21  C   UNL     1       0.298   3.216 -24.144  0.00  0.00    +0.084 C 
ENDROOT
BRANCH  14  22
ATOM     22  O   UNL     1      -4.411   2.340 -20.464  0.00  0.00    -0.506 OA
ATOM     23  H   UNL     1      -4.121   2.553 -19.599  0.00  0.00    +0.292 HD
ENDBRANCH  14  22
TORSDOF 1
ENDMDL
