MODEL 1
REMARK VINA RESULT:    -7.038      0.000      0.000
REMARK INTER + INTRA:          -8.639
REMARK INTER:                  -8.327
REMARK INTRA:                  -0.312
REMARK UNBOUND:                 0.045
REMARK  Name = ZINC000002560557
REMARK  6 active torsions:
REMARK  status: ('A' for Active; 'I' for Inactive)
REMARK    1  A    between atoms: C_1  and  O_2
REMARK    2  A    between atoms: O_2  and  C_3
REMARK    3  A    between atoms: C_3  and  C_5
REMARK    4  A    between atoms: C_10  and  O_11
REMARK    5  A    between atoms: O_11  and  C_12
REMARK    6  A    between atoms: C_12  and  C_13
REMARK                            x       y       z     vdW  Elec       q    Type
REMARK                         _______ _______ _______ _____ _____    ______ ____
ROOT
ATOM      1  C   UNL     1      -4.233   3.585 -23.815  0.00  0.00    +0.101 A 
ATOM      2  C   UNL     1      -5.430   3.617 -23.311  0.00  0.00    +0.018 A 
ATOM      3  C   UNL     1      -5.636   3.199 -22.097  0.00  0.00    +0.001 A 
ATOM      4  C   UNL     1      -4.643   2.749 -21.387  0.00  0.00    +0.004 A 
ATOM      5  C   UNL     1      -3.446   2.717 -21.892  0.00  0.00    +0.047 A 
ATOM      6  C   UNL     1      -3.240   3.135 -23.105  0.00  0.00    +0.146 A 
ENDROOT
BRANCH   1   7
ATOM      7  C   UNL     1      -4.027   4.002 -25.029  0.00  0.00    +0.343 C 
ATOM      8  O   UNL     1      -3.971   5.277 -25.277  0.00  0.00    -0.245 OA
BRANCH   7  10
ATOM      9  C   UNL     1      -3.192   3.468 -27.051  0.00  0.00    +0.280 C 
ATOM     10  O   UNL     1      -3.877   3.145 -25.994  0.00  0.00    -0.464 OA
ENDBRANCH   7  10
ENDBRANCH   1   7
BRANCH   6  11
ATOM     11  O   UNL     1      -2.043   3.103 -23.611  0.00  0.00    -0.425 OA
BRANCH  11  12
ATOM     12  C   UNL     1      -1.061   3.687 -22.990  0.00  0.00    +0.309 C 
ATOM     13  O   UNL     1      -0.166   2.974 -22.373  0.00  0.00    -0.251 OA
ATOM     14  C   UNL     1      -0.973   4.984 -22.987  0.00  0.00    +0.136 C 
ENDBRANCH  11  12
ENDBRANCH   6  11
TORSDOF 4
ENDMDL
