MODEL 1
REMARK VINA RESULT:   -11.654      0.000      0.000
REMARK INTER + INTRA:         -12.677
REMARK INTER:                 -12.767
REMARK INTRA:                   0.090
REMARK UNBOUND:                 0.339
REMARK  Name = CC[C@]1(O)CC[C@H]2[C@@H]3CC(=O)C4=CC(=O)CC[C@]4(C)[C@H]3CC[C@@]21C   ZINC000118913921
REMARK  5 active torsions:
REMARK  status: ('A' for Active; 'I' for Inactive)
REMARK    1  A    between atoms: C_1  and  C_2
REMARK    2  A    between atoms: C_2  and  C_3
REMARK    3  A    between atoms: C_3  and  O_4
REMARK    4  A    between atoms: C_18  and  C_19
REMARK    5  A    between atoms: C_23  and  C_24
REMARK                            x       y       z     vdW  Elec       q    Type
REMARK                         _______ _______ _______ _____ _____    ______ ____
ROOT
ATOM      1  C   UNL     1      -4.695   3.243 -22.463  0.00  0.00    +0.071 C 
ATOM      2  C   UNL     1      -4.655   2.738 -21.254  0.00  0.00    +0.035 C 
ATOM      3  C   UNL     1      -3.418   2.375 -21.010  0.00  0.00    +0.007 C 
ATOM      4  C   UNL     1      -2.694   2.654 -22.064  0.00  0.00    +0.002 C 
ATOM      5  C   UNL     1      -1.422   2.489 -22.322  0.00  0.00    +0.004 C 
ATOM      6  C   UNL     1      -0.636   1.951 -21.416  0.00  0.00    +0.083 C 
ATOM      7  C   UNL     1       0.639   1.784 -21.672  0.00  0.00    +0.160 C 
ATOM      8  C   UNL     1       1.129   2.154 -22.829  0.00  0.00    +0.004 C 
ATOM      9  C   UNL     1       2.405   1.988 -23.086  0.00  0.00    +0.053 C 
ATOM     10  C   UNL     1       2.896   2.358 -24.243  0.00  0.00    +0.157 C 
ATOM     11  C   UNL     1       2.113   2.896 -25.149  0.00  0.00    +0.080 C 
ATOM     12  C   UNL     1       0.836   3.062 -24.890  0.00  0.00    +0.019 C 
ATOM     13  O   UNL     1       4.173   2.191 -24.498  0.00  0.00    -0.293 OA
ATOM     14  C   UNL     1       0.345   2.692 -23.734  0.00  0.00    -0.000 C 
ATOM     15  C   UNL     1      -0.439   3.229 -24.637  0.00  0.00    +0.016 C 
ATOM     16  O   UNL     1       1.423   1.247 -20.768  0.00  0.00    -0.292 OA
ATOM     17  C   UNL     1      -0.930   2.859 -23.479  0.00  0.00    +0.003 C 
ATOM     18  C   UNL     1      -1.716   3.396 -24.383  0.00  0.00    +0.005 C 
ATOM     19  C   UNL     1      -2.991   3.562 -24.126  0.00  0.00    +0.010 C 
ATOM     20  C   UNL     1      -3.481   3.192 -22.969  0.00  0.00    -0.000 C 
ATOM     21  C   UNL     1      -4.288   3.716 -23.830  0.00  0.00    +0.014 C 
ENDROOT
BRANCH   1  23
ATOM     22  C   UNL     1      -6.665   2.403 -21.680  0.00  0.00    +0.007 C 
ATOM     23  C   UNL     1      -5.970   3.391 -22.164  0.00  0.00    +0.032 C 
ENDBRANCH   1  23
BRANCH   1  24
ATOM     24  O   UNL     1      -5.050   3.669 -23.320  0.00  0.00    -0.388 OA
ATOM     25  H   UNL     1      -5.724   4.330 -23.097  0.00  0.00    +0.210 HD
ENDBRANCH   1  24
TORSDOF 2
ENDMDL
