MODEL 1
REMARK VINA RESULT:    -6.284      0.000      0.000
REMARK INTER + INTRA:          -7.661
REMARK INTER:                  -7.400
REMARK INTRA:                  -0.261
REMARK UNBOUND:                -0.276
REMARK  Name = ZINC000000392017
REMARK  5 active torsions:
REMARK  status: ('A' for Active; 'I' for Inactive)
REMARK    1  A    between atoms: C_1  and  O_2
REMARK    2  A    between atoms: O_2  and  C_3
REMARK    3  A    between atoms: C_6  and  C_7
REMARK    4  A    between atoms: C_11  and  O_12
REMARK    5  A    between atoms: O_12  and  C_13
REMARK                            x       y       z     vdW  Elec       q    Type
REMARK                         _______ _______ _______ _____ _____    ______ ____
ROOT
ATOM      1  C   UNL     1      -3.301   3.134 -22.782  0.00  0.00    +0.162 A 
ATOM      2  C   UNL     1      -2.916   3.067 -21.542  0.00  0.00    +0.050 A 
ATOM      3  C   UNL     1      -1.760   2.550 -21.248  0.00  0.00    +0.013 A 
ATOM      4  C   UNL     1      -0.989   2.101 -22.193  0.00  0.00    +0.001 A 
ATOM      5  C   UNL     1      -1.374   2.168 -23.433  0.00  0.00    +0.059 A 
ATOM      6  C   UNL     1      -2.530   2.685 -23.727  0.00  0.00    +0.162 A 
ENDROOT
BRANCH   4   7
ATOM      7  C   UNL     1       0.167   1.584 -21.898  0.00  0.00    +0.072 C 
ATOM      8  O   UNL     1       1.031   1.348 -22.840  0.00  0.00    -0.545 OA
ATOM      9  O   UNL     1       0.458   1.304 -20.663  0.00  0.00    -0.545 OA
ENDBRANCH   4   7
BRANCH   1  11
ATOM     10  C   UNL     1      -5.503   3.351 -22.365  0.00  0.00    +0.277 C 
ATOM     11  O   UNL     1      -4.457   3.651 -23.076  0.00  0.00    -0.491 OA
ENDBRANCH   1  11
BRANCH   6  12
ATOM     12  O   UNL     1      -2.915   2.752 -24.967  0.00  0.00    -0.491 OA
ATOM     13  C   UNL     1      -2.200   3.405 -25.834  0.00  0.00    +0.277 C 
ENDBRANCH   6  12
TORSDOF 3
ENDMDL
