MODEL 1
REMARK VINA RESULT:    -9.842      0.000      0.000
REMARK INTER + INTRA:         -10.130
REMARK INTER:                 -10.130
REMARK INTRA:                   0.000
REMARK UNBOUND:                 0.000
REMARK  Name = ZINC000004081998
REMARK  5 active torsions:
REMARK  status: ('A' for Active; 'I' for Inactive)
REMARK    1  A    between atoms: C_1  and  C_2
REMARK    2  A    between atoms: C_11  and  C_12
REMARK    3  A    between atoms: C_11  and  O_13
REMARK    4  A    between atoms: C_14  and  C_15
REMARK    5  A    between atoms: C_14  and  C_16
REMARK                            x       y       z     vdW  Elec       q    Type
REMARK                         _______ _______ _______ _____ _____    ______ ____
ROOT
ATOM      1  C   UNL     1      -1.398   3.713 -25.532  0.00  0.00    +0.008 C 
ATOM      2  C   UNL     1      -2.583   3.754 -25.000  0.00  0.00    -0.010 C 
ATOM      3  C   UNL     1      -3.657   4.224 -25.563  0.00  0.00    +0.004 C 
ATOM      4  C   UNL     1      -4.641   4.094 -24.723  0.00  0.00    +0.007 C 
ATOM      5  C   UNL     1      -4.175   3.544 -23.641  0.00  0.00    +0.024 C 
ATOM      6  C   UNL     1      -4.908   3.276 -22.602  0.00  0.00    +0.066 C 
ATOM      7  C   UNL     1      -6.020   3.243 -21.930  0.00  0.00    +0.041 C 
ATOM      8  C   UNL     1      -4.550   2.731 -21.477  0.00  0.00    +0.035 C 
ATOM      9  C   UNL     1      -3.371   2.321 -21.113  0.00  0.00    +0.007 C 
ATOM     10  C   UNL     1      -2.259   2.353 -21.785  0.00  0.00    -0.001 C 
ATOM     11  C   UNL     1      -1.067   2.303 -22.301  0.00  0.00    -0.028 C 
ATOM     12  C   UNL     1      -0.100   2.444 -23.158  0.00  0.00    +0.011 C 
ATOM     13  C   UNL     1      -0.418   1.753 -21.317  0.00  0.00    +0.011 C 
ATOM     14  C   UNL     1      -2.051   2.804 -22.987  0.00  0.00    +0.002 C 
ATOM     15  C   UNL     1      -2.904   3.334 -23.813  0.00  0.00    +0.002 C 
ENDROOT
BRANCH   6  16
ATOM     16  O   UNL     1      -5.760   3.805 -23.428  0.00  0.00    -0.389 OA
ATOM     17  H   UNL     1      -5.829   3.251 -24.221  0.00  0.00    +0.210 HD
ENDBRANCH   6  16
TORSDOF 1
ENDMDL
