MODEL 1
REMARK VINA RESULT:   -11.774      0.000      0.000
REMARK INTER + INTRA:         -12.118
REMARK INTER:                 -12.118
REMARK INTRA:                   0.000
REMARK UNBOUND:                 0.000
REMARK  Name = ZINC000016890071
REMARK  3 active torsions:
REMARK  status: ('A' for Active; 'I' for Inactive)
REMARK    1  A    between atoms: C_1  and  C_2
REMARK    2  A    between atoms: C_15  and  C_16
REMARK    3  A    between atoms: C_20  and  O_21
REMARK                            x       y       z     vdW  Elec       q    Type
REMARK                         _______ _______ _______ _____ _____    ______ ____
ROOT
ATOM      1  C   UNL     1      -4.904   3.017 -21.828  0.00  0.00    +0.014 C 
ATOM      2  C   UNL     1      -3.983   3.243 -22.716  0.00  0.00    -0.003 C 
ATOM      3  C   UNL     1      -3.552   2.639 -21.650  0.00  0.00    +0.010 C 
ATOM      4  C   UNL     1      -2.296   2.317 -21.547  0.00  0.00    +0.005 C 
ATOM      5  C   UNL     1      -1.472   2.601 -22.512  0.00  0.00    -0.001 C 
ATOM      6  C   UNL     1      -1.904   3.206 -23.579  0.00  0.00    -0.004 C 
ATOM      7  C   UNL     1      -1.080   3.490 -24.544  0.00  0.00    +0.004 C 
ATOM      8  C   UNL     1       0.176   3.168 -24.441  0.00  0.00    +0.005 C 
ATOM      9  C   UNL     1       0.608   2.563 -23.375  0.00  0.00    +0.002 C 
ATOM     10  C   UNL     1       1.863   2.242 -23.273  0.00  0.00    +0.078 C 
ATOM     11  C   UNL     1       2.294   1.638 -22.206  0.00  0.00    +0.134 C 
ATOM     12  C   UNL     1       1.470   1.354 -21.241  0.00  0.00    +0.075 C 
ATOM     13  C   UNL     1       0.215   1.675 -21.343  0.00  0.00    +0.015 C 
ATOM     14  O   UNL     1       3.550   1.316 -22.104  0.00  0.00    -0.297 OA
ATOM     15  C   UNL     1      -0.217   2.280 -22.410  0.00  0.00    -0.025 C 
ATOM     16  C   UNL     1      -1.041   1.996 -21.446  0.00  0.00    +0.012 C 
ATOM     17  C   UNL     1      -5.164   3.664 -23.060  0.00  0.00    +0.121 C 
ATOM     18  C   UNL     1      -5.070   4.208 -24.237  0.00  0.00    +0.032 C 
ATOM     19  C   UNL     1      -3.832   4.123 -24.621  0.00  0.00    +0.007 C 
ATOM     20  C   UNL     1      -3.159   3.527 -23.681  0.00  0.00    +0.001 C 
ENDROOT
BRANCH  17  21
ATOM     21  O   UNL     1      -6.249   3.560 -22.352  0.00  0.00    -0.391 OA
ATOM     22  H   UNL     1      -6.050   3.102 -21.521  0.00  0.00    +0.210 HD
ENDBRANCH  17  21
TORSDOF 1
ENDMDL
