MODEL 1
REMARK VINA RESULT:    -9.647      0.000      0.000
REMARK INTER + INTRA:          -9.929
REMARK INTER:                  -9.929
REMARK INTRA:                   0.000
REMARK UNBOUND:                 0.000
REMARK  Name = ZINC000004104714
REMARK  4 active torsions:
REMARK  status: ('A' for Active; 'I' for Inactive)
REMARK    1  A    between atoms: C_1  and  C_2
REMARK    2  A    between atoms: C_9  and  O_10
REMARK    3  A    between atoms: C_14  and  C_15
REMARK    4  A    between atoms: C_14  and  C_16
REMARK                            x       y       z     vdW  Elec       q    Type
REMARK                         _______ _______ _______ _____ _____    ______ ____
ROOT
ATOM      1  C   UNL     1      -3.915   2.557 -20.628  0.00  0.00    +0.008 C 
ATOM      2  C   UNL     1      -4.271   2.990 -21.801  0.00  0.00    -0.010 C 
ATOM      3  C   UNL     1      -5.470   3.359 -22.147  0.00  0.00    +0.004 C 
ATOM      4  C   UNL     1      -5.432   3.727 -23.393  0.00  0.00    +0.011 C 
ATOM      5  C   UNL     1      -4.212   3.586 -23.817  0.00  0.00    +0.059 C 
ATOM      6  C   UNL     1      -3.837   3.869 -25.030  0.00  0.00    +0.139 C 
ATOM      7  C   UNL     1      -2.654   3.768 -25.558  0.00  0.00    +0.106 C 
ATOM      8  C   UNL     1      -1.552   3.357 -25.003  0.00  0.00    +0.126 C 
ATOM      9  C   UNL     1      -1.362   2.947 -23.784  0.00  0.00    +0.028 C 
ATOM     10  C   UNL     1      -2.226   2.846 -22.819  0.00  0.00    +0.005 C 
ATOM     11  C   UNL     1      -0.986   2.512 -22.618  0.00  0.00    -0.026 C 
ATOM     12  C   UNL     1      -1.049   2.149 -21.372  0.00  0.00    +0.011 C 
ATOM     13  C   UNL     1       0.276   2.304 -22.851  0.00  0.00    +0.011 C 
ATOM     14  O   UNL     1      -4.771   4.313 -25.819  0.00  0.00    -0.297 OA
ATOM     15  C   UNL     1      -3.495   3.130 -22.834  0.00  0.00    +0.006 C 
ENDROOT
BRANCH   8  16
ATOM     16  O   UNL     1      -0.502   3.357 -25.769  0.00  0.00    -0.391 OA
ATOM     17  H   UNL     1      -0.776   3.461 -26.694  0.00  0.00    +0.210 HD
ENDBRANCH   8  16
TORSDOF 1
ENDMDL
