MODEL 1
REMARK VINA RESULT:    -7.237      0.000      0.000
REMARK INTER + INTRA:          -7.959
REMARK INTER:                  -7.860
REMARK INTRA:                  -0.099
REMARK UNBOUND:                -0.088
REMARK  Name = ZINC000000057733
REMARK  3 active torsions:
REMARK  status: ('A' for Active; 'I' for Inactive)
REMARK    1  A    between atoms: C_1  and  O_2
REMARK    2  A    between atoms: O_2  and  C_3
REMARK    3  A    between atoms: C_13  and  O_14
REMARK                            x       y       z     vdW  Elec       q    Type
REMARK                         _______ _______ _______ _____ _____    ______ ____
ROOT
ATOM      1  C   UNL     1      -0.296   3.344 -23.609  0.00  0.00    +0.162 A 
ATOM      2  C   UNL     1      -0.855   3.370 -22.436  0.00  0.00    +0.061 A 
ATOM      3  C   UNL     1      -2.151   3.376 -22.333  0.00  0.00    +0.021 A 
ATOM      4  C   UNL     1      -2.710   3.401 -21.160  0.00  0.00    +0.018 A 
ATOM      5  C   UNL     1      -4.006   3.408 -21.058  0.00  0.00    +0.092 A 
ATOM      6  C   UNL     1      -4.743   3.389 -22.128  0.00  0.00    +0.337 A 
ATOM      7  O   UNL     1      -4.184   3.364 -23.301  0.00  0.00    -0.422 OA
ATOM      8  O   UNL     1      -6.038   3.396 -22.026  0.00  0.00    -0.245 OA
ATOM      9  C   UNL     1      -2.888   3.358 -23.404  0.00  0.00    +0.143 A 
ATOM     10  C   UNL     1      -2.328   3.332 -24.578  0.00  0.00    +0.096 A 
ATOM     11  C   UNL     1      -1.033   3.326 -24.680  0.00  0.00    +0.162 A 
ENDROOT
BRANCH   1  13
ATOM     12  C   UNL     1       1.694   2.411 -23.121  0.00  0.00    +0.277 C 
ATOM     13  O   UNL     1       1.000   3.338 -23.712  0.00  0.00    -0.491 OA
ENDBRANCH   1  13
BRANCH  11  14
ATOM     14  O   UNL     1      -0.474   3.300 -25.853  0.00  0.00    -0.503 OA
ATOM     15  H   UNL     1       0.201   2.676 -26.038  0.00  0.00    +0.292 HD
ENDBRANCH  11  14
TORSDOF 2
ENDMDL
