MODEL 1
REMARK VINA RESULT:   -10.295      0.000      0.000
REMARK INTER + INTRA:         -13.354
REMARK INTER:                 -13.198
REMARK INTRA:                  -0.156
REMARK UNBOUND:                 0.552
REMARK  Name = CCOc1cc2c(cc1OC)CC[N@+]1(C)Cc3c(ccc(OC)c3OCC)C[C@H]21                ZINC000248382775
REMARK  11 active torsions:
REMARK  status: ('A' for Active; 'I' for Inactive)
REMARK    1  A    between atoms: C_1  and  C_2
REMARK    2  A    between atoms: C_2  and  O_3
REMARK    3  A    between atoms: O_3  and  C_4
REMARK    4  A    between atoms: C_9  and  O_10
REMARK    5  A    between atoms: O_10  and  C_11
REMARK    6  A    between atoms: N_14  and  C_15
REMARK    7  A    between atoms: C_21  and  O_22
REMARK    8  A    between atoms: O_22  and  C_23
REMARK    9  A    between atoms: C_24  and  O_25
REMARK   10  A    between atoms: O_25  and  C_26
REMARK   11  A    between atoms: C_26  and  C_27
REMARK                            x       y       z     vdW  Elec       q    Type
REMARK                         _______ _______ _______ _____ _____    ______ ____
ROOT
ATOM      1  C   UNL     1       3.224   2.189 -21.970  0.00  0.00    +0.162 A 
ATOM      2  C   UNL     1       1.940   2.385 -22.009  0.00  0.00    +0.058 A 
ATOM      3  C   UNL     1       1.391   2.878 -23.080  0.00  0.00    +0.008 A 
ATOM      4  C   UNL     1       2.126   3.174 -24.111  0.00  0.00    -0.030 A 
ATOM      5  C   UNL     1       1.577   3.666 -25.182  0.00  0.00    +0.086 C 
ATOM      6  C   UNL     1       0.293   3.863 -25.222  0.00  0.00    +0.138 C 
ATOM      7  N   UNL     1      -0.443   3.568 -24.191  0.00  0.00    +0.250 N 
ATOM      8  C   UNL     1      -1.727   3.765 -24.231  0.00  0.00    +0.174 C 
ATOM      9  C   UNL     1      -2.462   3.469 -23.201  0.00  0.00    +0.046 A 
ATOM     10  C   UNL     1      -1.913   2.977 -22.130  0.00  0.00    -0.030 A 
ATOM     11  C   UNL     1      -0.629   2.780 -22.090  0.00  0.00    +0.095 C 
ATOM     12  C   UNL     1      -2.649   2.681 -21.100  0.00  0.00    +0.008 A 
ATOM     13  C   UNL     1      -3.933   2.878 -21.139  0.00  0.00    +0.050 A 
ATOM     14  C   UNL     1      -4.482   3.370 -22.210  0.00  0.00    +0.162 A 
ATOM     15  C   UNL     1      -3.747   3.666 -23.240  0.00  0.00    +0.170 A 
ATOM     16  C   UNL     1      -0.992   4.060 -25.262  0.00  0.00    +0.193 C 
ATOM     17  C   UNL     1       3.411   2.977 -24.071  0.00  0.00    +0.053 A 
ATOM     18  C   UNL     1       0.107   3.075 -23.120  0.00  0.00    +0.102 C 
ATOM     19  C   UNL     1       3.960   2.484 -23.001  0.00  0.00    +0.162 A 
ENDROOT
BRANCH  14  20
ATOM     20  O   UNL     1      -5.766   3.567 -22.250  0.00  0.00    -0.491 OA
ATOM     21  C   UNL     1      -6.575   2.696 -21.723  0.00  0.00    +0.277 C 
ENDBRANCH  14  20
BRANCH  19  22
ATOM     22  O   UNL     1       5.244   2.287 -22.960  0.00  0.00    -0.491 OA
ATOM     23  C   UNL     1       6.060   3.261 -23.236  0.00  0.00    +0.277 C 
ENDBRANCH  19  22
BRANCH   1  24
ATOM     24  O   UNL     1       3.773   1.696 -20.899  0.00  0.00    -0.489 OA
BRANCH  24  26
ATOM     25  C   UNL     1       5.061  -0.125 -20.590  0.00  0.00    +0.048 C 
ATOM     26  C   UNL     1       3.888   0.408 -20.761  0.00  0.00    +0.226 C 
ENDBRANCH  24  26
ENDBRANCH   1  24
BRANCH  15  27
ATOM     27  O   UNL     1      -4.296   4.158 -24.311  0.00  0.00    -0.488 OA
BRANCH  27  28
ATOM     28  C   UNL     1      -4.966   3.385 -25.113  0.00  0.00    +0.226 C 
ATOM     29  C   UNL     1      -4.437   2.997 -26.235  0.00  0.00    +0.048 C 
ENDBRANCH  27  28
ENDBRANCH  15  27
TORSDOF 6
ENDMDL
