MODEL 1
REMARK VINA RESULT:    -9.760      0.000      0.000
REMARK INTER + INTRA:         -10.045
REMARK INTER:                 -10.045
REMARK INTRA:                   0.000
REMARK UNBOUND:                 0.000
REMARK  Name = ZINC000004104716
REMARK  5 active torsions:
REMARK  status: ('A' for Active; 'I' for Inactive)
REMARK    1  A    between atoms: C_1  and  C_2
REMARK    2  A    between atoms: C_2  and  C_3
REMARK    3  A    between atoms: C_9  and  C_10
REMARK    4  A    between atoms: C_13  and  C_14
REMARK    5  A    between atoms: C_13  and  O_15
REMARK                            x       y       z     vdW  Elec       q    Type
REMARK                         _______ _______ _______ _____ _____    ______ ____
ROOT
ATOM      1  C   UNL     1      -0.091   1.876 -21.379  0.00  0.00    +0.011 C 
ATOM      2  C   UNL     1      -0.883   2.281 -22.329  0.00  0.00    -0.028 C 
ATOM      3  C   UNL     1      -1.978   2.455 -21.651  0.00  0.00    -0.001 C 
ATOM      4  C   UNL     1      -2.970   2.571 -20.820  0.00  0.00    +0.012 C 
ATOM      5  C   UNL     1      -4.188   2.957 -21.060  0.00  0.00    +0.075 C 
ATOM      6  C   UNL     1      -4.714   3.323 -22.191  0.00  0.00    +0.140 C 
ATOM      7  C   UNL     1      -4.153   3.393 -23.361  0.00  0.00    +0.032 C 
ATOM      8  C   UNL     1      -4.778   3.776 -24.435  0.00  0.00    +0.017 C 
ATOM      9  C   UNL     1      -3.937   3.734 -25.426  0.00  0.00    +0.036 C 
ATOM     10  C   UNL     1      -2.793   3.325 -24.966  0.00  0.00    +0.067 C 
ATOM     11  C   UNL     1      -2.405   3.456 -26.200  0.00  0.00    +0.041 C 
ATOM     12  C   UNL     1      -5.405   3.723 -23.259  0.00  0.00    +0.019 C 
ATOM     13  C   UNL     1      -2.925   3.115 -23.690  0.00  0.00    +0.037 C 
ATOM     14  O   UNL     1      -5.968   3.664 -22.146  0.00  0.00    -0.297 OA
ATOM     15  C   UNL     1      -0.061   2.247 -23.336  0.00  0.00    +0.011 C 
ATOM     16  C   UNL     1      -1.957   2.697 -22.929  0.00  0.00    +0.005 C 
ENDROOT
BRANCH  10  17
ATOM     17  O   UNL     1      -1.566   2.944 -24.763  0.00  0.00    -0.389 OA
ATOM     18  H   UNL     1      -1.560   2.190 -24.153  0.00  0.00    +0.210 HD
ENDBRANCH  10  17
TORSDOF 1
ENDMDL
