MODEL 1
REMARK VINA RESULT:    -9.664      0.000      0.000
REMARK INTER + INTRA:          -4.953
REMARK INTER:                 -12.301
REMARK INTRA:                   7.347
REMARK UNBOUND:                 8.382
REMARK  Name = CCCC[C@@H](O)[C@]12Oc3c(OC)ccc4c3[C@@]13CCN(C)[C@@H](C4)C3=CC=C2OC   ZINC000253505583
REMARK  11 active torsions:
REMARK  status: ('A' for Active; 'I' for Inactive)
REMARK    1  A    between atoms: C_1  and  C_2
REMARK    2  A    between atoms: C_2  and  C_3
REMARK    3  A    between atoms: C_3  and  C_4
REMARK    4  A    between atoms: C_4  and  C_5
REMARK    5  A    between atoms: C_5  and  O_6
REMARK    6  A    between atoms: C_5  and  C_7
REMARK    7  A    between atoms: C_10  and  O_11
REMARK    8  A    between atoms: O_11  and  C_12
REMARK    9  A    between atoms: N_20  and  C_21
REMARK   10  A    between atoms: C_27  and  O_28
REMARK   11  A    between atoms: O_28  and  C_29
REMARK                            x       y       z     vdW  Elec       q    Type
REMARK                         _______ _______ _______ _____ _____    ______ ____
ROOT
ATOM      1  C   UNL     1      -1.542   3.207 -23.771  0.00  0.00    +0.206 C 
ATOM      2  O   UNL     1      -1.889   3.085 -22.304  0.00  0.00    -0.470 OA
ATOM      3  C   UNL     1      -3.359   3.157 -22.024  0.00  0.00    +0.168 A 
ATOM      4  C   UNL     1      -4.273   3.131 -21.146  0.00  0.00    +0.162 A 
ATOM      5  C   UNL     1      -5.484   3.248 -21.494  0.00  0.00    +0.050 A 
ATOM      6  C   UNL     1      -5.779   3.388 -22.704  0.00  0.00    +0.008 A 
ATOM      7  C   UNL     1      -4.879   3.413 -23.571  0.00  0.00    -0.034 A 
ATOM      8  C   UNL     1      -5.175   3.555 -24.800  0.00  0.00    +0.094 C 
ATOM      9  C   UNL     1      -4.277   3.580 -25.668  0.00  0.00    +0.096 C 
ATOM     10  C   UNL     1      -3.067   3.464 -25.316  0.00  0.00    -0.007 C 
ATOM     11  C   UNL     1      -2.156   3.489 -26.192  0.00  0.00    +0.009 C 
ATOM     12  C   UNL     1      -0.955   3.375 -25.859  0.00  0.00    +0.045 C 
ATOM     13  N   UNL     1      -3.328   3.621 -26.727  0.00  0.00    +0.239 N 
ATOM     14  H   UNL     1      -3.629   3.738 -27.694  0.00  0.00    +0.204 HD
ATOM     15  C   UNL     1      -3.685   3.764 -27.919  0.00  0.00    +0.191 C 
ATOM     16  C   UNL     1      -1.967   3.494 -26.378  0.00  0.00    +0.133 C 
ATOM     17  C   UNL     1      -1.664   3.338 -25.008  0.00  0.00    +0.071 C 
ATOM     18  C   UNL     1      -3.668   3.299 -23.243  0.00  0.00    +0.016 A 
ATOM     19  C   UNL     1      -0.642   3.233 -24.645  0.00  0.00    +0.144 C 
ATOM     20  C   UNL     1      -2.766   3.323 -24.109  0.00  0.00    +0.080 C 
ENDROOT
BRANCH   4  21
ATOM     21  O   UNL     1      -3.977   2.991 -19.936  0.00  0.00    -0.491 OA
ATOM     22  C   UNL     1      -3.139   3.751 -19.404  0.00  0.00    +0.277 C 
ENDBRANCH   4  21
BRANCH  19  23
ATOM     23  O   UNL     1       0.700   3.128 -24.504  0.00  0.00    -0.495 OA
ATOM     24  C   UNL     1       1.445   2.961 -25.543  0.00  0.00    +0.276 C 
ENDBRANCH  19  23
BRANCH   1  25
ATOM     25  C   UNL     1      -0.392   3.059 -23.067  0.00  0.00    +0.167 C 
BRANCH  25  26
ATOM     26  O   UNL     1       0.262   4.068 -22.733  0.00  0.00    -0.387 OA
ATOM     27  H   UNL     1       0.015   4.815 -23.300  0.00  0.00    +0.210 HD
ENDBRANCH  25  26
BRANCH  25  28
ATOM     28  C   UNL     1       0.041   1.920 -22.735  0.00  0.00    +0.036 C 
BRANCH  28  29
ATOM     29  C   UNL     1       0.697   1.727 -21.674  0.00  0.00    +0.002 C 
BRANCH  29  31
ATOM     30  C   UNL     1       2.896   1.924 -21.691  0.00  0.00    +0.004 C 
ATOM     31  C   UNL     1       1.865   1.212 -21.767  0.00  0.00    -0.003 C 
ENDBRANCH  29  31
ENDBRANCH  28  29
ENDBRANCH  25  28
ENDBRANCH   1  25
TORSDOF 7
ENDMDL
