MODEL 1
REMARK VINA RESULT:   -10.383      0.000      0.000
REMARK INTER + INTRA:         -14.124
REMARK INTER:                 -13.299
REMARK INTRA:                  -0.825
REMARK UNBOUND:                -0.402
REMARK  Name = ZINC000000155651
REMARK  8 active torsions:
REMARK  status: ('A' for Active; 'I' for Inactive)
REMARK    1  A    between atoms: C_7  and  O_8
REMARK    2  A    between atoms: O_8  and  C_9
REMARK    3  A    between atoms: C_11  and  C_12
REMARK    4  A    between atoms: C_12  and  O_13
REMARK    5  A    between atoms: C_14  and  O_15
REMARK    6  A    between atoms: C_16  and  O_17
REMARK    7  A    between atoms: C_18  and  O_19
REMARK    8  A    between atoms: C_20  and  O_21
REMARK                            x       y       z     vdW  Elec       q    Type
REMARK                         _______ _______ _______ _____ _____    ______ ____
ROOT
ATOM      1  C   UNL     1       1.491   2.924 -23.957  0.00  0.00    +0.339 C 
ATOM      2  O   UNL     1       1.796   2.823 -22.698  0.00  0.00    -0.331 OA
ATOM      3  C   UNL     1       2.644   1.919 -22.305  0.00  0.00    +0.179 C 
ATOM      4  C   UNL     1       3.186   1.116 -23.171  0.00  0.00    +0.177 C 
ATOM      5  C   UNL     1       2.881   1.217 -24.431  0.00  0.00    +0.180 C 
ATOM      6  C   UNL     1       2.033   2.120 -24.824  0.00  0.00    +0.214 C 
ENDROOT
BRANCH   5   7
ATOM      7  O   UNL     1       3.423   0.413 -25.297  0.00  0.00    -0.386 OA
ATOM      8  H   UNL     1       2.941  -0.429 -25.303  0.00  0.00    +0.210 HD
ENDBRANCH   5   7
BRANCH   4   9
ATOM      9  O   UNL     1       4.034   0.212 -22.778  0.00  0.00    -0.386 OA
ATOM     10  H   UNL     1       4.761   0.151 -23.418  0.00  0.00    +0.210 HD
ENDBRANCH   4   9
BRANCH   6  11
ATOM     11  O   UNL     1       1.728   2.221 -26.083  0.00  0.00    -0.383 OA
ATOM     12  H   UNL     1       0.864   2.654 -26.173  0.00  0.00    +0.210 HD
ENDBRANCH   6  11
BRANCH   1  13
ATOM     13  O   UNL     1       0.643   3.828 -24.350  0.00  0.00    -0.457 OA
BRANCH  13  20
ATOM     14  O   UNL     1      -6.100   3.233 -21.786  0.00  0.00    -0.245 OA
ATOM     15  C   UNL     1      -4.834   3.368 -22.053  0.00  0.00    +0.337 A 
ATOM     16  C   UNL     1      -3.987   3.587 -21.091  0.00  0.00    +0.092 A 
ATOM     17  C   UNL     1      -2.722   3.723 -21.358  0.00  0.00    +0.018 A 
ATOM     18  C   UNL     1      -2.304   3.640 -22.587  0.00  0.00    +0.021 A 
ATOM     19  C   UNL     1      -1.040   3.775 -22.854  0.00  0.00    +0.061 A 
ATOM     20  C   UNL     1      -0.622   3.692 -24.082  0.00  0.00    +0.166 A 
ATOM     21  C   UNL     1      -1.470   3.473 -25.044  0.00  0.00    +0.162 A 
ATOM     22  C   UNL     1      -2.734   3.338 -24.777  0.00  0.00    +0.096 A 
ATOM     23  C   UNL     1      -3.152   3.421 -23.548  0.00  0.00    +0.143 A 
ATOM     24  O   UNL     1      -4.417   3.285 -23.281  0.00  0.00    -0.422 OA
BRANCH  21  25
ATOM     25  O   UNL     1      -1.053   3.390 -26.272  0.00  0.00    -0.503 OA
ATOM     26  H   UNL     1      -1.660   3.477 -26.980  0.00  0.00    +0.292 HD
ENDBRANCH  21  25
ENDBRANCH  13  20
ENDBRANCH   1  13
BRANCH   3  27
ATOM     27  C   UNL     1       2.950   1.818 -21.045  0.00  0.00    +0.190 C 
BRANCH  27  28
ATOM     28  O   UNL     1       4.117   2.203 -20.627  0.00  0.00    -0.392 OA
ATOM     29  H   UNL     1       4.548   1.474 -20.153  0.00  0.00    +0.210 HD
ENDBRANCH  27  28
ENDBRANCH   3  27
TORSDOF 8
ENDMDL
