MODEL 1
REMARK VINA RESULT:    -8.690      0.000      0.000
REMARK INTER + INTRA:         -16.518
REMARK INTER:                 -14.311
REMARK INTRA:                  -2.207
REMARK UNBOUND:                -1.478
REMARK  Name = ZINC000085340919
REMARK  14 active torsions:
REMARK  status: ('A' for Active; 'I' for Inactive)
REMARK    1  A    between atoms: C_1  and  C_2
REMARK    2  A    between atoms: C_2  and  C_3
REMARK    3  A    between atoms: C_3  and  C_4
REMARK    4  A    between atoms: C_4  and  C_5
REMARK    5  A    between atoms: C_5  and  C_6
REMARK    6  A    between atoms: C_6  and  C_7
REMARK    7  A    between atoms: C_7  and  C_8
REMARK    8  A    between atoms: C_8  and  C_9
REMARK    9  A    between atoms: C_9  and  C_10
REMARK   10  A    between atoms: C_10  and  C_11
REMARK   11  A    between atoms: C_11  and  C_12
REMARK   12  A    between atoms: C_24  and  N_25
REMARK   13  A    between atoms: N_25  and  C_26
REMARK   14  A    between atoms: C_31  and  O_32
REMARK                            x       y       z     vdW  Elec       q    Type
REMARK                         _______ _______ _______ _____ _____    ______ ____
ROOT
ATOM      1  C   UNL     1       3.772   3.881 -23.519  0.00  0.00    +0.045 A 
ATOM      2  C   UNL     1       2.513   4.198 -23.607  0.00  0.00    +0.161 A 
ATOM      3  O   UNL     1       1.663   3.351 -24.105  0.00  0.00    -0.451 OA
ATOM      4  C   UNL     1       0.405   3.670 -24.192  0.00  0.00    +0.154 A 
ATOM      5  C   UNL     1      -0.447   2.822 -24.691  0.00  0.00    +0.048 A 
ATOM      6  C   UNL     1      -1.703   3.141 -24.777  0.00  0.00    +0.004 A 
ATOM      7  C   UNL     1      -2.112   4.304 -24.366  0.00  0.00    +0.002 A 
ATOM      8  C   UNL     1      -1.258   5.151 -23.867  0.00  0.00    +0.031 A 
ATOM      9  C   UNL     1      -0.003   4.834 -23.780  0.00  0.00    +0.107 A 
ATOM     10  N   UNL     1       0.849   5.680 -23.282  0.00  0.00    -0.240 NA
ATOM     11  C   UNL     1       2.106   5.363 -23.194  0.00  0.00    +0.109 A 
ATOM     12  C   UNL     1       2.956   6.209 -22.696  0.00  0.00    +0.058 A 
ATOM     13  C   UNL     1       4.215   5.894 -22.608  0.00  0.00    +0.081 A 
ATOM     14  C   UNL     1       4.621   4.729 -23.020  0.00  0.00    +0.207 A 
ATOM     15  O   UNL     1       5.880   4.413 -22.933  0.00  0.00    -0.286 OA
ENDROOT
BRANCH  13  16
ATOM     16  N   UNL     1       5.066   6.739 -22.110  0.00  0.00    -0.309 N 
ATOM     17  H   UNL     1       6.007   6.477 -21.991  0.00  0.00    +0.152 HD
BRANCH  16  18
ATOM     18  C   UNL     1       4.676   7.928 -21.769  0.00  0.00    +0.073 A 
ATOM     19  C   UNL     1       4.265   8.764 -22.682  0.00  0.00    +0.027 A 
ATOM     20  C   UNL     1       3.875   9.955 -22.339  0.00  0.00    +0.002 A 
ATOM     21  C   UNL     1       3.893  10.316 -21.091  0.00  0.00    +0.004 A 
ATOM     22  C   UNL     1       4.303   9.480 -20.179  0.00  0.00    +0.047 A 
ATOM     23  C   UNL     1       4.694   8.289 -20.521  0.00  0.00    +0.138 A 
BRANCH  23  24
ATOM     24  O   UNL     1       5.104   7.454 -19.611  0.00  0.00    -0.505 OA
ATOM     25  H   UNL     1       5.080   6.532 -19.776  0.00  0.00    +0.292 HD
ENDBRANCH  23  24
ENDBRANCH  16  18
ENDBRANCH  13  16
BRANCH   1  26
ATOM     26  C   UNL     1       4.179   2.717 -23.931  0.00  0.00    +0.043 C 
BRANCH  26  27
ATOM     27  C   UNL     1       4.279   1.730 -23.092  0.00  0.00    +0.005 C 
BRANCH  27  28
ATOM     28  C   UNL     1       3.443   0.736 -23.153  0.00  0.00    +0.000 C 
BRANCH  28  29
ATOM     29  C   UNL     1       2.651   0.488 -22.152  0.00  0.00    +0.000 C 
BRANCH  29  30
ATOM     30  C   UNL     1       2.258   1.455 -21.378  0.00  0.00    +0.000 C 
BRANCH  30  31
ATOM     31  C   UNL     1       1.028   1.495 -20.962  0.00  0.00    +0.000 C 
BRANCH  31  32
ATOM     32  C   UNL     1       0.058   1.175 -21.767  0.00  0.00    -0.000 C 
BRANCH  32  33
ATOM     33  C   UNL     1      -1.172   1.437 -21.439  0.00  0.00    -0.000 C 
BRANCH  33  34
ATOM     34  C   UNL     1      -1.501   2.633 -21.052  0.00  0.00    -0.000 C 
BRANCH  34  36
ATOM     35  C   UNL     1      -3.113   4.087 -20.454  0.00  0.00    +0.004 C 
ATOM     36  C   UNL     1      -2.746   3.003 -21.071  0.00  0.00    -0.003 C 
ENDBRANCH  34  36
ENDBRANCH  33  34
ENDBRANCH  32  33
ENDBRANCH  31  32
ENDBRANCH  30  31
ENDBRANCH  29  30
ENDBRANCH  28  29
ENDBRANCH  27  28
ENDBRANCH  26  27
ENDBRANCH   1  26
TORSDOF 13
ENDMDL
