MODEL 1
REMARK VINA RESULT:    -8.174      0.000      0.000
REMARK INTER + INTRA:         -14.004
REMARK INTER:                 -12.314
REMARK INTRA:                  -1.689
REMARK UNBOUND:                -1.529
REMARK  Name = ZINC000096316334
REMARK  9 active torsions:
REMARK  status: ('A' for Active; 'I' for Inactive)
REMARK    1  A    between atoms: N_4  and  C_5
REMARK    2  A    between atoms: C_5  and  C_6
REMARK    3  A    between atoms: C_6  and  C_7
REMARK    4  A    between atoms: C_6  and  N_20
REMARK    5  A    between atoms: C_7  and  CA_8
REMARK    6  A    between atoms: CA_8  and  N_9
REMARK    7  A    between atoms: CA_8  and  C_17
REMARK    8  A    between atoms: N_9  and  C_10
REMARK    9  A    between atoms: C_10  and  C_11
REMARK                            x       y       z     vdW  Elec       q    Type
REMARK                         _______ _______ _______ _____ _____    ______ ____
ROOT
ATOM      1  C   UNL     1       1.712   2.858 -23.713  0.00  0.00    +0.145 C 
ENDROOT
BRANCH   1   2
ATOM      2  C   UNL     1       2.639   3.731 -23.453  0.00  0.00    +0.368 C 
BRANCH   2   3
ATOM      3  N   UNL     1       2.336   4.991 -23.354  0.00  0.00    +0.045 N 
ATOM      4  O   UNL     1       1.292   5.459 -23.973  0.00  0.00    -0.581 OA
ATOM      5  O   UNL     1       3.075   5.784 -22.636  0.00  0.00    +0.035 OA
ENDBRANCH   2   3
BRANCH   2   6
ATOM      6  C   UNL     1       3.870   3.345 -23.291  0.00  0.00    +0.277 C 
BRANCH   6  11
ATOM      7  N   UNL     1       5.003   1.096 -22.643  0.00  0.00    -0.292 N 
ATOM      8  H   UNL     1       4.641   1.222 -23.550  0.00  0.00    +0.255 HD
ATOM      9  H   UNL     1       5.432   0.245 -22.398  0.00  0.00    +0.255 HD
ATOM     10  C   UNL     1       4.914   2.055 -21.770  0.00  0.00    +0.341 C 
ATOM     11  N   UNL     1       4.348   3.180 -22.094  0.00  0.00    -0.272 N 
ATOM     12  H   UNL     1       4.281   3.906 -21.433  0.00  0.00    +0.258 HD
ATOM     13  N   UNL     1       5.392   1.890 -20.572  0.00  0.00    -0.292 N 
ATOM     14  H   UNL     1       5.325   2.617 -19.911  0.00  0.00    +0.255 HD
ATOM     15  H   UNL     1       5.821   1.039 -20.326  0.00  0.00    +0.255 HD
ENDBRANCH   6  11
ENDBRANCH   2   6
ENDBRANCH   1   2
BRANCH   1  16
ATOM     16  CA  UNL     1       0.921   2.448 -22.766  0.00  0.00    +0.116 C 
BRANCH  16  17
ATOM     17  C   UNL     1       1.225   1.388 -22.078  0.00  0.00    +0.090 C 
ATOM     18  OXT UNL     1       1.910   0.430 -22.629  0.00  0.00    -0.544 OA
ATOM     19  O   UNL     1       0.845   1.286 -20.840  0.00  0.00    -0.544 OA
ENDBRANCH  16  17
BRANCH  16  20
ATOM     20  N   UNL     1      -0.175   3.099 -22.507  0.00  0.00    +0.237 N 
ATOM     21  H1  UNL     1      -0.485   2.692 -21.624  0.00  0.00    +0.202 HD
ATOM     22  H2  UNL     1       0.065   4.090 -22.508  0.00  0.00    +0.202 HD
BRANCH  20  23
ATOM     23  C   UNL     1      -1.211   2.962 -23.280  0.00  0.00    +0.166 C 
BRANCH  23  24
ATOM     24  C   UNL     1      -2.408   3.011 -22.777  0.00  0.00    -0.003 A 
ATOM     25  C   UNL     1      -2.622   2.591 -21.565  0.00  0.00    +0.009 A 
ATOM     26  C   UNL     1      -3.820   2.641 -21.063  0.00  0.00    +0.000 A 
ATOM     27  C   UNL     1      -4.804   3.111 -21.770  0.00  0.00    +0.000 A 
ATOM     28  C   UNL     1      -4.589   3.531 -22.981  0.00  0.00    +0.000 A 
ATOM     29  C   UNL     1      -3.392   3.481 -23.485  0.00  0.00    +0.009 A 
ENDBRANCH  23  24
ENDBRANCH  20  23
ENDBRANCH  16  20
ENDBRANCH   1  16
TORSDOF 9
ENDMDL
