MODEL 1
REMARK VINA RESULT:    -9.607      0.000      0.000
REMARK INTER + INTRA:         -12.088
REMARK INTER:                 -11.304
REMARK INTRA:                  -0.784
REMARK UNBOUND:                -0.796
REMARK  Name = ZINC000014807307
REMARK  5 active torsions:
REMARK  status: ('A' for Active; 'I' for Inactive)
REMARK    1  A    between atoms: C_1  and  O_2
REMARK    2  A    between atoms: O_2  and  C_3
REMARK    3  A    between atoms: C_5  and  O_6
REMARK    4  A    between atoms: C_11  and  C_12
REMARK    5  A    between atoms: C_17  and  O_18
REMARK                            x       y       z     vdW  Elec       q    Type
REMARK                         _______ _______ _______ _____ _____    ______ ____
ROOT
ATOM      1  C   UNL     1       2.192   1.252 -22.139  0.00  0.00    +0.127 A 
ATOM      2  C   UNL     1       2.865   2.252 -22.626  0.00  0.00    +0.092 A 
ATOM      3  C   UNL     1       2.239   3.300 -23.072  0.00  0.00    +0.135 A 
ATOM      4  C   UNL     1       0.941   3.348 -23.032  0.00  0.00    +0.105 A 
ATOM      5  C   UNL     1       0.315   4.397 -23.479  0.00  0.00    +0.197 A 
ATOM      6  C   UNL     1      -0.983   4.445 -23.438  0.00  0.00    +0.098 A 
ATOM      7  C   UNL     1      -1.656   3.445 -22.951  0.00  0.00    +0.143 A 
ATOM      8  O   UNL     1      -1.030   2.397 -22.504  0.00  0.00    -0.454 OA
ATOM      9  O   UNL     1       0.988   5.397 -23.966  0.00  0.00    -0.287 OA
ATOM     10  C   UNL     1       0.268   2.348 -22.545  0.00  0.00    +0.146 A 
ATOM     11  C   UNL     1       0.894   1.300 -22.098  0.00  0.00    +0.092 A 
ENDROOT
BRANCH   7  12
ATOM     12  C   UNL     1      -2.954   3.493 -22.910  0.00  0.00    +0.059 A 
ATOM     13  C   UNL     1      -3.631   3.708 -23.999  0.00  0.00    +0.015 A 
ATOM     14  C   UNL     1      -4.930   3.756 -23.958  0.00  0.00    +0.001 A 
ATOM     15  C   UNL     1      -5.551   3.589 -22.828  0.00  0.00    +0.004 A 
ATOM     16  C   UNL     1      -4.874   3.375 -21.740  0.00  0.00    +0.046 A 
ATOM     17  C   UNL     1      -3.576   3.327 -21.780  0.00  0.00    +0.127 A 
BRANCH  17  18
ATOM     18  O   UNL     1      -2.899   3.112 -20.691  0.00  0.00    -0.506 OA
ATOM     19  H   UNL     1      -3.221   3.428 -19.869  0.00  0.00    +0.292 HD
ENDBRANCH  17  18
ENDBRANCH   7  12
BRANCH   1  21
ATOM     20  C   UNL     1       3.908   0.344 -20.998  0.00  0.00    +0.277 C 
ATOM     21  O   UNL     1       2.818   0.203 -21.692  0.00  0.00    -0.495 OA
ENDBRANCH   1  21
BRANCH   3  22
ATOM     22  O   UNL     1       2.912   4.300 -23.559  0.00  0.00    -0.506 OA
ATOM     23  H   UNL     1       3.172   4.295 -24.459  0.00  0.00    +0.292 HD
ENDBRANCH   3  22
TORSDOF 4
ENDMDL
