MODEL 1
REMARK VINA RESULT:    -8.939      0.000      0.000
REMARK INTER + INTRA:          -6.887
REMARK INTER:                 -11.684
REMARK INTRA:                   4.797
REMARK UNBOUND:                 4.665
REMARK  Name = CCCC[C@]12Oc3c(OC)ccc4c3[C@@]13CCN(C)[C@@H](C4)C3=CC=C2OC            ZINC000253505413
REMARK  9 active torsions:
REMARK  status: ('A' for Active; 'I' for Inactive)
REMARK    1  A    between atoms: C_1  and  C_2
REMARK    2  A    between atoms: C_2  and  C_3
REMARK    3  A    between atoms: C_3  and  C_4
REMARK    4  A    between atoms: C_4  and  C_5
REMARK    5  A    between atoms: C_8  and  O_9
REMARK    6  A    between atoms: O_9  and  C_10
REMARK    7  A    between atoms: N_18  and  C_19
REMARK    8  A    between atoms: C_25  and  O_26
REMARK    9  A    between atoms: O_26  and  C_27
REMARK                            x       y       z     vdW  Elec       q    Type
REMARK                         _______ _______ _______ _____ _____    ______ ____
ROOT
ATOM      1  C   UNL     1      -1.521   3.203 -23.819  0.00  0.00    +0.181 C 
ATOM      2  O   UNL     1      -1.850   3.071 -22.346  0.00  0.00    -0.473 OA
ATOM      3  C   UNL     1      -3.325   3.147 -22.051  0.00  0.00    +0.168 A 
ATOM      4  C   UNL     1      -4.232   3.118 -21.160  0.00  0.00    +0.162 A 
ATOM      5  C   UNL     1      -5.448   3.242 -21.500  0.00  0.00    +0.050 A 
ATOM      6  C   UNL     1      -5.760   3.393 -22.707  0.00  0.00    +0.008 A 
ATOM      7  C   UNL     1      -4.861   3.421 -23.588  0.00  0.00    -0.034 A 
ATOM      8  C   UNL     1      -5.174   3.573 -24.817  0.00  0.00    +0.094 C 
ATOM      9  C   UNL     1      -4.277   3.601 -25.694  0.00  0.00    +0.096 C 
ATOM     10  C   UNL     1      -3.059   3.477 -25.356  0.00  0.00    -0.007 C 
ATOM     11  C   UNL     1      -2.154   3.506 -26.245  0.00  0.00    +0.009 C 
ATOM     12  C   UNL     1      -0.946   3.384 -25.918  0.00  0.00    +0.045 C 
ATOM     13  N   UNL     1      -3.335   3.647 -26.770  0.00  0.00    +0.239 N 
ATOM     14  H   UNL     1      -3.620   3.770 -27.742  0.00  0.00    +0.204 HD
ATOM     15  C   UNL     1      -3.705   3.800 -27.960  0.00  0.00    +0.191 C 
ATOM     16  C   UNL     1      -1.969   3.512 -26.429  0.00  0.00    +0.133 C 
ATOM     17  C   UNL     1      -1.647   3.344 -25.059  0.00  0.00    +0.071 C 
ATOM     18  C   UNL     1      -3.643   3.299 -23.269  0.00  0.00    +0.016 A 
ATOM     19  C   UNL     1      -0.626   3.232 -24.700  0.00  0.00    +0.142 C 
ATOM     20  C   UNL     1      -2.750   3.327 -24.149  0.00  0.00    +0.077 C 
ENDROOT
BRANCH   4  21
ATOM     21  O   UNL     1      -3.924   2.968 -19.951  0.00  0.00    -0.491 OA
ATOM     22  C   UNL     1      -3.077   3.725 -19.419  0.00  0.00    +0.277 C 
ENDBRANCH   4  21
BRANCH  19  23
ATOM     23  O   UNL     1       0.582   3.110 -24.377  0.00  0.00    -0.495 OA
ATOM     24  C   UNL     1       1.459   2.979 -25.265  0.00  0.00    +0.276 C 
ENDBRANCH  19  23
BRANCH   1  25
ATOM     25  C   UNL     1      -0.394   3.059 -23.222  0.00  0.00    +0.057 C 
BRANCH  25  26
ATOM     26  C   UNL     1      -0.304   2.598 -22.037  0.00  0.00    +0.004 C 
BRANCH  26  28
ATOM     27  C   UNL     1       1.491   1.466 -21.535  0.00  0.00    +0.004 C 
ATOM     28  C   UNL     1       0.257   1.498 -21.803  0.00  0.00    -0.003 C 
ENDBRANCH  26  28
ENDBRANCH  25  26
ENDBRANCH   1  25
TORSDOF 5
ENDMDL
