MODEL 1
REMARK VINA RESULT:    -9.464      0.000      0.000
REMARK INTER + INTRA:          -4.967
REMARK INTER:                 -12.309
REMARK INTRA:                   7.341
REMARK UNBOUND:                 8.093
REMARK  Name = CCCC[C@@H](O)[C@@]12Oc3c(OC)ccc4c3[C@@]13CCN(C)[C@@H](C4)C3=CC=C2OC  ZINC000253505571
REMARK  11 active torsions:
REMARK  status: ('A' for Active; 'I' for Inactive)
REMARK    1  A    between atoms: C_1  and  C_2
REMARK    2  A    between atoms: C_2  and  C_3
REMARK    3  A    between atoms: C_3  and  C_4
REMARK    4  A    between atoms: C_4  and  C_5
REMARK    5  A    between atoms: C_5  and  O_6
REMARK    6  A    between atoms: C_5  and  C_7
REMARK    7  A    between atoms: C_10  and  O_11
REMARK    8  A    between atoms: O_11  and  C_12
REMARK    9  A    between atoms: N_20  and  C_21
REMARK   10  A    between atoms: C_27  and  O_28
REMARK   11  A    between atoms: O_28  and  C_29
REMARK                            x       y       z     vdW  Elec       q    Type
REMARK                         _______ _______ _______ _____ _____    ______ ____
ROOT
ATOM      1  C   UNL     1      -1.539   3.215 -23.793  0.00  0.00    +0.206 C 
ATOM      2  O   UNL     1      -1.897   3.085 -22.330  0.00  0.00    -0.470 OA
ATOM      3  C   UNL     1      -3.370   3.142 -22.062  0.00  0.00    +0.168 A 
ATOM      4  C   UNL     1      -4.290   3.106 -21.191  0.00  0.00    +0.162 A 
ATOM      5  C   UNL     1      -5.500   3.212 -21.549  0.00  0.00    +0.050 A 
ATOM      6  C   UNL     1      -5.786   3.352 -22.761  0.00  0.00    +0.008 A 
ATOM      7  C   UNL     1      -4.879   3.388 -23.620  0.00  0.00    -0.034 A 
ATOM      8  C   UNL     1      -5.167   3.531 -24.851  0.00  0.00    +0.094 C 
ATOM      9  C   UNL     1      -4.262   3.567 -25.712  0.00  0.00    +0.096 C 
ATOM     10  C   UNL     1      -3.055   3.461 -25.350  0.00  0.00    -0.007 C 
ATOM     11  C   UNL     1      -2.137   3.497 -26.219  0.00  0.00    +0.009 C 
ATOM     12  C   UNL     1      -0.937   3.393 -25.877  0.00  0.00    +0.045 C 
ATOM     13  N   UNL     1      -3.305   3.619 -26.764  0.00  0.00    +0.239 N 
ATOM     14  H   UNL     1      -3.599   3.735 -27.733  0.00  0.00    +0.204 HD
ATOM     15  C   UNL     1      -3.654   3.761 -27.958  0.00  0.00    +0.191 C 
ATOM     16  C   UNL     1      -1.946   3.505 -26.403  0.00  0.00    +0.133 C 
ATOM     17  C   UNL     1      -1.652   3.348 -25.032  0.00  0.00    +0.071 C 
ATOM     18  C   UNL     1      -3.671   3.285 -23.283  0.00  0.00    +0.016 A 
ATOM     19  C   UNL     1      -0.633   3.251 -24.660  0.00  0.00    +0.144 C 
ATOM     20  C   UNL     1      -2.762   3.320 -24.141  0.00  0.00    +0.080 C 
ENDROOT
BRANCH   4  21
ATOM     21  O   UNL     1      -4.004   2.966 -19.980  0.00  0.00    -0.491 OA
ATOM     22  C   UNL     1      -3.155   3.713 -19.446  0.00  0.00    +0.277 C 
ENDBRANCH   4  21
BRANCH  19  23
ATOM     23  O   UNL     1       0.709   3.159 -24.508  0.00  0.00    -0.495 OA
ATOM     24  C   UNL     1       1.464   3.009 -25.542  0.00  0.00    +0.276 C 
ENDBRANCH  19  23
BRANCH   1  25
ATOM     25  C   UNL     1      -0.394   3.076 -23.080  0.00  0.00    +0.167 C 
BRANCH  25  26
ATOM     26  O   UNL     1       0.256   4.089 -22.752  0.00  0.00    -0.387 OA
ATOM     27  H   UNL     1       0.357   4.110 -21.788  0.00  0.00    +0.210 HD
ENDBRANCH  25  26
BRANCH  25  28
ATOM     28  C   UNL     1       0.040   1.941 -22.736  0.00  0.00    +0.036 C 
BRANCH  28  29
ATOM     29  C   UNL     1       0.741   1.769 -21.700  0.00  0.00    +0.002 C 
BRANCH  29  31
ATOM     30  C   UNL     1       2.943   1.931 -21.719  0.00  0.00    +0.004 C 
ATOM     31  C   UNL     1       1.899   1.242 -21.831  0.00  0.00    -0.003 C 
ENDBRANCH  29  31
ENDBRANCH  28  29
ENDBRANCH  25  28
ENDBRANCH   1  25
TORSDOF 7
ENDMDL
