MODEL 1
REMARK VINA RESULT:    -9.641      0.000      0.000
REMARK INTER + INTRA:          -9.915
REMARK INTER:                 -10.657
REMARK INTRA:                   0.742
REMARK UNBOUND:                 0.853
REMARK  Name = ZINC000005762051
REMARK  6 active torsions:
REMARK  status: ('A' for Active; 'I' for Inactive)
REMARK    1  A    between atoms: C_1  and  O_2
REMARK    2  A    between atoms: O_2  and  C_3
REMARK    3  A    between atoms: C_6  and  O_7
REMARK    4  A    between atoms: O_7  and  C_8
REMARK    5  A    between atoms: C_17  and  C_18
REMARK    6  A    between atoms: C_17  and  C_19
REMARK                            x       y       z     vdW  Elec       q    Type
REMARK                         _______ _______ _______ _____ _____    ______ ____
ROOT
ATOM      1  C   UNL     1      -0.368   2.859 -24.128  0.00  0.00    +0.142 A 
ATOM      2  C   UNL     1      -1.630   3.164 -24.182  0.00  0.00    +0.063 A 
ATOM      3  C   UNL     1      -2.371   3.056 -23.119  0.00  0.00    +0.177 A 
ATOM      4  O   UNL     1      -3.634   3.361 -23.173  0.00  0.00    -0.478 OA
ATOM      5  C   UNL     1      -4.155   3.774 -24.290  0.00  0.00    +0.124 C 
ATOM      6  C   UNL     1      -3.414   3.883 -25.352  0.00  0.00    +0.020 C 
ATOM      7  C   UNL     1      -5.204   3.815 -23.522  0.00  0.00    +0.060 C 
ATOM      8  C   UNL     1      -5.041   4.202 -25.140  0.00  0.00    +0.060 C 
ATOM      9  C   UNL     1      -1.849   2.642 -22.002  0.00  0.00    +0.206 A 
ATOM     10  C   UNL     1      -0.587   2.337 -21.949  0.00  0.00    +0.188 A 
ATOM     11  O   UNL     1      -0.065   1.924 -20.831  0.00  0.00    -0.418 OA
ATOM     12  C   UNL     1       1.197   1.619 -20.778  0.00  0.00    +0.337 A 
ATOM     13  C   UNL     1       1.938   1.727 -21.840  0.00  0.00    +0.093 A 
ATOM     14  C   UNL     1       1.417   2.140 -22.957  0.00  0.00    +0.022 A 
ATOM     15  O   UNL     1       1.719   1.206 -19.662  0.00  0.00    -0.245 OA
ATOM     16  C   UNL     1      -2.152   3.578 -25.299  0.00  0.00    +0.015 C 
ATOM     17  C   UNL     1       0.154   2.446 -23.011  0.00  0.00    +0.064 A 
ENDROOT
BRANCH   1  19
ATOM     18  C   UNL     1       1.072   4.045 -25.389  0.00  0.00    +0.277 C 
ATOM     19  O   UNL     1       0.373   2.967 -25.191  0.00  0.00    -0.494 OA
ENDBRANCH   1  19
BRANCH   9  20
ATOM     20  O   UNL     1      -2.590   2.534 -20.939  0.00  0.00    -0.488 OA
ATOM     21  C   UNL     1      -2.948   3.599 -20.286  0.00  0.00    +0.277 C 
ENDBRANCH   9  20
TORSDOF 2
ENDMDL
