MODEL 1
REMARK VINA RESULT:    -9.987      0.000      0.000
REMARK INTER + INTRA:         -10.517
REMARK INTER:                 -10.433
REMARK INTRA:                  -0.084
REMARK UNBOUND:                 2.389
REMARK  Name = ZINC000004104688
REMARK  11 active torsions:
REMARK  status: ('A' for Active; 'I' for Inactive)
REMARK    1  A    between atoms: C_1  and  O_2
REMARK    2  A    between atoms: O_2  and  C_3
REMARK    3  A    between atoms: C_6  and  C_7
REMARK    4  A    between atoms: C_10  and  O_11
REMARK    5  A    between atoms: O_11  and  C_12
REMARK    6  A    between atoms: C_13  and  O_14
REMARK    7  A    between atoms: O_14  and  C_15
REMARK    8  A    between atoms: C_19  and  C_20
REMARK    9  A    between atoms: C_21  and  C_22
REMARK   10  A    between atoms: C_24  and  O_25
REMARK   11  A    between atoms: O_25  and  C_26
REMARK                            x       y       z     vdW  Elec       q    Type
REMARK                         _______ _______ _______ _____ _____    ______ ____
ROOT
ATOM      1  C   UNL     1      -1.985   3.590 -24.575  0.00  0.00    +0.053 C 
ATOM      2  C   UNL     1      -3.022   3.531 -23.792  0.00  0.00    -0.033 A 
ATOM      3  C   UNL     1      -2.863   3.536 -22.502  0.00  0.00    +0.054 A 
ATOM      4  C   UNL     1      -3.899   3.478 -21.720  0.00  0.00    +0.162 A 
ATOM      5  C   UNL     1      -5.095   3.415 -22.227  0.00  0.00    +0.162 A 
ATOM      6  C   UNL     1      -5.253   3.410 -23.518  0.00  0.00    +0.053 A 
ATOM      7  C   UNL     1      -4.216   3.468 -24.300  0.00  0.00    -0.040 A 
ATOM      8  C   UNL     1      -4.375   3.464 -25.590  0.00  0.00    +0.039 C 
ATOM      9  C   UNL     1      -3.338   3.522 -26.373  0.00  0.00    -0.006 C 
ATOM     10  C   UNL     1      -3.497   3.517 -27.663  0.00  0.00    +0.008 C 
ATOM     11  C   UNL     1      -2.143   3.585 -25.865  0.00  0.00    +0.001 C 
ATOM     12  C   UNL     1      -1.106   3.643 -26.647  0.00  0.00    +0.009 C 
ENDROOT
BRANCH   1  16
ATOM     13  C   UNL     1       1.599   3.782 -23.048  0.00  0.00    +0.162 A 
ATOM     14  C   UNL     1       0.919   4.871 -23.251  0.00  0.00    +0.050 A 
ATOM     15  C   UNL     1      -0.275   4.807 -23.760  0.00  0.00    +0.008 A 
ATOM     16  C   UNL     1      -0.790   3.653 -24.066  0.00  0.00    -0.036 A 
ATOM     17  C   UNL     1      -0.111   2.563 -23.863  0.00  0.00    +0.053 A 
ATOM     18  C   UNL     1       1.084   2.628 -23.354  0.00  0.00    +0.162 A 
BRANCH  13  20
ATOM     19  C   UNL     1       3.766   4.369 -23.225  0.00  0.00    +0.277 C 
ATOM     20  O   UNL     1       2.793   3.846 -22.539  0.00  0.00    -0.491 OA
ENDBRANCH  13  20
BRANCH  18  21
ATOM     21  O   UNL     1       1.763   1.538 -23.152  0.00  0.00    -0.491 OA
ATOM     22  C   UNL     1       1.686   0.927 -22.007  0.00  0.00    +0.277 C 
ENDBRANCH  18  21
ENDBRANCH   1  16
BRANCH   5  23
ATOM     23  O   UNL     1      -6.131   3.356 -21.445  0.00  0.00    -0.491 OA
ATOM     24  C   UNL     1      -7.061   2.474 -21.663  0.00  0.00    +0.277 C 
ENDBRANCH   5  23
BRANCH   4  25
ATOM     25  O   UNL     1      -3.741   3.482 -20.429  0.00  0.00    -0.491 OA
ATOM     26  C   UNL     1      -2.598   3.827 -19.916  0.00  0.00    +0.277 C 
ENDBRANCH   4  25
TORSDOF 5
ENDMDL
