MODEL 1
REMARK VINA RESULT:    -8.794      0.000      0.000
REMARK INTER + INTRA:         -11.062
REMARK INTER:                 -10.756
REMARK INTRA:                  -0.306
REMARK UNBOUND:                -0.469
REMARK  Name = ZINC000036020270
REMARK  5 active torsions:
REMARK  status: ('A' for Active; 'I' for Inactive)
REMARK    1  A    between atoms: N_6  and  C1*_7
REMARK    2  A    between atoms: C4*_9  and  C5*_10
REMARK    3  A    between atoms: C5*_10  and  O5*_11
REMARK    4  A    between atoms: C3*_12  and  O3*_13
REMARK    5  A    between atoms: C2*_14  and  O2*_15
REMARK                            x       y       z     vdW  Elec       q    Type
REMARK                         _______ _______ _______ _____ _____    ______ ____
ROOT
ATOM      1  O   UNL     1      -5.531   2.577 -21.284  0.00  0.00    -0.265 OA
ATOM      2  C   UNL     1      -4.362   2.781 -21.814  0.00  0.00    +0.282 A 
ATOM      3  N   UNL     1      -3.290   2.374 -21.202  0.00  0.00    -0.273 N 
ATOM      4  H   UNL     1      -3.364   1.912 -20.336  0.00  0.00    +0.173 HD
ATOM      5  C   UNL     1      -2.121   2.578 -21.733  0.00  0.00    +0.333 A 
ATOM      6  N   UNL     1      -2.024   3.189 -22.876  0.00  0.00    -0.247 N 
ATOM      7  C   UNL     1      -3.096   3.596 -23.489  0.00  0.00    +0.170 A 
ATOM      8  N   UNL     1      -2.999   4.207 -24.632  0.00  0.00    -0.234 NA
ATOM      9  C   UNL     1      -4.070   4.614 -25.245  0.00  0.00    +0.133 A 
ATOM     10  C   UNL     1      -5.239   4.409 -24.714  0.00  0.00    +0.131 A 
ATOM     11  N   UNL     1      -5.337   3.799 -23.571  0.00  0.00    -0.245 NA
ATOM     12  O   UNL     1      -1.048   2.172 -21.121  0.00  0.00    -0.246 OA
ATOM     13  C   UNL     1      -4.265   3.392 -22.958  0.00  0.00    +0.171 A 
ENDROOT
BRANCH   6  14
ATOM     14  C1* UNL     1      -0.855   3.393 -23.407  0.00  0.00    +0.257 C 
ATOM     15  O4* UNL     1      -0.156   2.525 -24.076  0.00  0.00    -0.346 OA
ATOM     16  C4* UNL     1       0.951   3.097 -24.444  0.00  0.00    +0.177 C 
ATOM     17  C3* UNL     1       0.939   4.320 -24.003  0.00  0.00    +0.178 C 
ATOM     18  C2* UNL     1      -0.178   4.502 -23.362  0.00  0.00    +0.195 C 
BRANCH  17  19
ATOM     19  O3* UNL     1       1.876   5.203 -24.173  0.00  0.00    -0.386 OA
ATOM     20  H3* UNL     1       1.760   5.636 -25.033  0.00  0.00    +0.210 HD
ENDBRANCH  17  19
BRANCH  18  21
ATOM     21  O2* UNL     1      -0.551   5.603 -22.778  0.00  0.00    -0.385 OA
ATOM     22  H2* UNL     1      -0.227   6.364 -23.284  0.00  0.00    +0.210 HD
ENDBRANCH  18  21
BRANCH  16  23
ATOM     23  C5* UNL     1       1.904   2.543 -25.133  0.00  0.00    +0.190 C 
BRANCH  23  24
ATOM     24  O5* UNL     1       1.687   2.163 -26.357  0.00  0.00    -0.392 OA
ATOM     25  H5* UNL     1       1.364   1.248 -26.359  0.00  0.00    +0.210 HD
ENDBRANCH  23  24
ENDBRANCH  16  23
ENDBRANCH   6  14
TORSDOF 5
ENDMDL
