MODEL 1
REMARK VINA RESULT:    -9.778      0.000      0.000
REMARK INTER + INTRA:         -10.063
REMARK INTER:                 -10.063
REMARK INTRA:                   0.000
REMARK UNBOUND:                 0.000
REMARK  Name = ZINC000004104717
REMARK  5 active torsions:
REMARK  status: ('A' for Active; 'I' for Inactive)
REMARK    1  A    between atoms: C_1  and  C_2
REMARK    2  A    between atoms: C_2  and  C_3
REMARK    3  A    between atoms: C_9  and  C_10
REMARK    4  A    between atoms: C_13  and  C_14
REMARK    5  A    between atoms: C_13  and  O_15
REMARK                            x       y       z     vdW  Elec       q    Type
REMARK                         _______ _______ _______ _____ _____    ______ ____
ROOT
ATOM      1  C   UNL     1      -0.092   1.873 -21.386  0.00  0.00    +0.011 C 
ATOM      2  C   UNL     1      -0.884   2.279 -22.335  0.00  0.00    -0.028 C 
ATOM      3  C   UNL     1      -1.983   2.441 -21.659  0.00  0.00    -0.001 C 
ATOM      4  C   UNL     1      -2.978   2.543 -20.829  0.00  0.00    +0.012 C 
ATOM      5  C   UNL     1      -4.197   2.923 -21.069  0.00  0.00    +0.075 C 
ATOM      6  C   UNL     1      -4.723   3.294 -22.199  0.00  0.00    +0.140 C 
ATOM      7  C   UNL     1      -4.160   3.377 -23.367  0.00  0.00    +0.032 C 
ATOM      8  C   UNL     1      -4.785   3.763 -24.439  0.00  0.00    +0.017 C 
ATOM      9  C   UNL     1      -3.942   3.734 -25.428  0.00  0.00    +0.036 C 
ATOM     10  C   UNL     1      -2.795   3.330 -24.968  0.00  0.00    +0.067 C 
ATOM     11  C   UNL     1      -2.406   3.473 -26.200  0.00  0.00    +0.041 C 
ATOM     12  C   UNL     1      -5.414   3.697 -23.265  0.00  0.00    +0.019 C 
ATOM     13  C   UNL     1      -2.929   3.109 -23.694  0.00  0.00    +0.037 C 
ATOM     14  O   UNL     1      -5.980   3.626 -22.154  0.00  0.00    -0.297 OA
ATOM     15  C   UNL     1      -0.060   2.259 -23.340  0.00  0.00    +0.011 C 
ATOM     16  C   UNL     1      -1.961   2.693 -22.934  0.00  0.00    +0.005 C 
ENDROOT
BRANCH  10  17
ATOM     17  O   UNL     1      -1.567   2.956 -24.766  0.00  0.00    -0.389 OA
ATOM     18  H   UNL     1      -1.024   3.206 -25.529  0.00  0.00    +0.210 HD
ENDBRANCH  10  17
TORSDOF 1
ENDMDL
