MODEL 1
REMARK VINA RESULT:   -11.365      0.000      0.000
REMARK INTER + INTRA:         -12.029
REMARK INTER:                 -12.029
REMARK INTRA:                   0.000
REMARK UNBOUND:                 0.000
REMARK  Name = C[C@]12CC[C@@H]3c4ccc(O)c(Br)c4CC[C@@H]3[C@H]1CC[C@@H]2O             ZINC000105154821
REMARK  3 active torsions:
REMARK  status: ('A' for Active; 'I' for Inactive)
REMARK    1  A    between atoms: C_1  and  C_2
REMARK    2  A    between atoms: C_9  and  O_10
REMARK    3  A    between atoms: C_20  and  O_21
REMARK                            x       y       z     vdW  Elec       q    Type
REMARK                         _______ _______ _______ _____ _____    ______ ____
ROOT
ATOM      1  C   UNL     1      -4.522   3.835 -23.863  0.00  0.00    +0.014 C 
ATOM      2  C   UNL     1      -3.676   3.267 -23.055  0.00  0.00    -0.003 C 
ATOM      3  C   UNL     1      -3.165   3.610 -24.201  0.00  0.00    +0.010 C 
ATOM      4  C   UNL     1      -1.911   3.376 -24.449  0.00  0.00    +0.009 C 
ATOM      5  C   UNL     1      -1.167   2.799 -23.553  0.00  0.00    +0.023 C 
ATOM      6  C   UNL     1       0.088   2.565 -23.801  0.00  0.00    -0.040 A 
ATOM      7  C   UNL     1       0.598   2.908 -24.946  0.00  0.00    +0.008 A 
ATOM      8  C   UNL     1       1.853   2.674 -25.195  0.00  0.00    +0.047 A 
ATOM      9  C   UNL     1       2.596   2.097 -24.298  0.00  0.00    +0.131 A 
ATOM     10  C   UNL     1       2.085   1.755 -23.153  0.00  0.00    +0.063 A 
ATOM     11 BR   UNL     1       2.829   1.178 -22.256  0.00  0.00    -0.046 Br
ATOM     12  C   UNL     1       0.831   1.989 -22.904  0.00  0.00    -0.026 A 
ATOM     13  C   UNL     1       0.320   1.646 -21.758  0.00  0.00    +0.037 C 
ATOM     14  C   UNL     1      -0.934   1.880 -21.510  0.00  0.00    +0.009 C 
ATOM     15  C   UNL     1      -1.678   2.457 -22.407  0.00  0.00    +0.000 C 
ATOM     16  C   UNL     1      -4.874   3.386 -22.567  0.00  0.00    +0.121 C 
ATOM     17  C   UNL     1      -4.872   2.883 -21.368  0.00  0.00    +0.032 C 
ATOM     18  C   UNL     1      -3.671   2.453 -21.116  0.00  0.00    +0.007 C 
ATOM     19  C   UNL     1      -2.932   2.691 -22.158  0.00  0.00    +0.001 C 
ENDROOT
BRANCH   9  20
ATOM     20  O   UNL     1       3.851   1.863 -24.546  0.00  0.00    -0.506 OA
ATOM     21  H   UNL     1       4.469   2.567 -24.536  0.00  0.00    +0.292 HD
ENDBRANCH   9  20
BRANCH  16  22
ATOM     22  O   UNL     1      -5.897   3.915 -23.171  0.00  0.00    -0.391 OA
ATOM     23  H   UNL     1      -5.902   4.874 -23.021  0.00  0.00    +0.210 HD
ENDBRANCH  16  22
TORSDOF 2
ENDMDL
