MODEL 1
REMARK VINA RESULT:    -9.230      0.000      0.000
REMARK INTER + INTRA:         -11.457
REMARK INTER:                 -11.194
REMARK INTRA:                  -0.263
REMARK UNBOUND:                -0.069
REMARK  Name = ZINC000000519824
REMARK  8 active torsions:
REMARK  status: ('A' for Active; 'I' for Inactive)
REMARK    1  A    between atoms: C_1  and  O_2
REMARK    2  A    between atoms: O_2  and  C_3
REMARK    3  A    between atoms: C_8  and  O_9
REMARK    4  A    between atoms: C_11  and  O_12
REMARK    5  A    between atoms: C_13  and  O_14
REMARK    6  A    between atoms: O_14  and  C_15
REMARK    7  A    between atoms: N_21  and  C_22
REMARK    8  A    between atoms: N_21  and  C_23
REMARK                            x       y       z     vdW  Elec       q    Type
REMARK                         _______ _______ _______ _____ _____    ______ ____
ROOT
ATOM      1  C   UNL     1       1.414   2.255 -23.685  0.00  0.00    +0.162 A 
ATOM      2  C   UNL     1       1.406   1.966 -22.418  0.00  0.00    +0.050 A 
ATOM      3  C   UNL     1       0.300   2.057 -21.738  0.00  0.00    +0.008 A 
ATOM      4  C   UNL     1      -0.795   2.435 -22.326  0.00  0.00    -0.030 A 
ATOM      5  C   UNL     1      -0.786   2.723 -23.594  0.00  0.00    +0.035 A 
ATOM      6  C   UNL     1      -1.882   3.102 -24.182  0.00  0.00    +0.040 A 
ATOM      7  C   UNL     1      -1.873   3.390 -25.449  0.00  0.00    +0.167 A 
ATOM      8  C   UNL     1      -2.968   3.769 -26.039  0.00  0.00    +0.162 A 
ATOM      9  C   UNL     1      -4.073   3.859 -25.359  0.00  0.00    +0.053 A 
ATOM     10  C   UNL     1      -4.082   3.570 -24.091  0.00  0.00    -0.030 A 
ATOM     11  C   UNL     1      -5.187   3.661 -23.412  0.00  0.00    +0.086 C 
ATOM     12  C   UNL     1      -5.197   3.372 -22.144  0.00  0.00    +0.138 C 
ATOM     13  N   UNL     1      -4.100   2.994 -21.556  0.00  0.00    +0.245 N 
ATOM     14  C   UNL     1      -3.291   2.599 -20.618  0.00  0.00    +0.193 C 
ATOM     15  C   UNL     1      -4.924   2.947 -20.552  0.00  0.00    +0.193 C 
ATOM     16  C   UNL     1      -2.996   2.904 -22.236  0.00  0.00    +0.102 C 
ATOM     17  C   UNL     1      -2.986   3.192 -23.503  0.00  0.00    +0.015 A 
ATOM     18  C   UNL     1      -1.899   2.525 -21.647  0.00  0.00    +0.095 C 
ATOM     19  C   UNL     1       0.319   2.633 -24.273  0.00  0.00    +0.167 A 
ENDROOT
BRANCH   1  21
ATOM     20  C   UNL     1       3.299   1.137 -24.203  0.00  0.00    +0.277 C 
ATOM     21  O   UNL     1       2.519   2.164 -24.364  0.00  0.00    -0.491 OA
ENDBRANCH   1  21
BRANCH   8  22
ATOM     22  O   UNL     1      -2.959   4.056 -27.305  0.00  0.00    -0.491 OA
ATOM     23  C   UNL     1      -3.706   3.384 -28.131  0.00  0.00    +0.277 C 
ENDBRANCH   8  22
BRANCH   7  24
ATOM     24  O   UNL     1      -0.768   3.300 -26.129  0.00  0.00    -0.503 OA
ATOM     25  H   UNL     1      -0.486   2.469 -26.457  0.00  0.00    +0.292 HD
ENDBRANCH   7  24
BRANCH  19  26
ATOM     26  O   UNL     1       0.328   2.921 -25.541  0.00  0.00    -0.503 OA
ATOM     27  H   UNL     1       0.866   3.620 -25.859  0.00  0.00    +0.292 HD
ENDBRANCH  19  26
TORSDOF 4
ENDMDL
