MODEL 1
REMARK VINA RESULT:   -10.481      0.000      0.000
REMARK INTER + INTRA:         -10.696
REMARK INTER:                 -11.628
REMARK INTRA:                   0.932
REMARK UNBOUND:                 1.011
REMARK  Name = COC1=C[C@]2(C)Oc3c(OC)ccc4c3[C@]23CCN(C)[C@H](C4)C3=C1               ZINC000100393714
REMARK  6 active torsions:
REMARK  status: ('A' for Active; 'I' for Inactive)
REMARK    1  A    between atoms: C_1  and  O_2
REMARK    2  A    between atoms: O_2  and  C_3
REMARK    3  A    between atoms: C_5  and  C_6
REMARK    4  A    between atoms: C_9  and  O_10
REMARK    5  A    between atoms: O_10  and  C_11
REMARK    6  A    between atoms: N_19  and  C_20
REMARK                            x       y       z     vdW  Elec       q    Type
REMARK                         _______ _______ _______ _____ _____    ______ ____
ROOT
ATOM      1  C   UNL     1      -3.160   3.859 -24.626  0.00  0.00    +0.120 C 
ATOM      2  C   UNL     1      -2.009   3.823 -25.154  0.00  0.00    +0.066 C 
ATOM      3  C   UNL     1      -1.045   3.345 -24.513  0.00  0.00    +0.143 C 
ATOM      4  O   UNL     1       0.431   3.014 -24.501  0.00  0.00    -0.477 OA
ATOM      5  C   UNL     1       0.893   2.381 -23.219  0.00  0.00    +0.168 A 
ATOM      6  C   UNL     1       1.869   1.896 -22.569  0.00  0.00    +0.162 A 
ATOM      7  C   UNL     1       1.681   1.452 -21.397  0.00  0.00    +0.050 A 
ATOM      8  C   UNL     1       0.541   1.489 -20.879  0.00  0.00    +0.008 A 
ATOM      9  C   UNL     1      -0.425   1.970 -21.523  0.00  0.00    -0.034 A 
ATOM     10  C   UNL     1      -1.586   2.010 -21.000  0.00  0.00    +0.094 C 
ATOM     11  C   UNL     1      -2.547   2.489 -21.644  0.00  0.00    +0.097 C 
ATOM     12  C   UNL     1      -2.362   2.933 -22.816  0.00  0.00    -0.003 C 
ATOM     13  N   UNL     1      -3.707   3.012 -22.289  0.00  0.00    +0.239 N 
ATOM     14  H   UNL     1      -4.622   3.027 -21.838  0.00  0.00    +0.204 HD
ATOM     15  C   UNL     1      -4.824   3.024 -21.722  0.00  0.00    +0.191 C 
ATOM     16  C   UNL     1      -3.536   3.516 -23.597  0.00  0.00    +0.133 C 
ATOM     17  C   UNL     1      -2.239   3.461 -24.156  0.00  0.00    +0.071 C 
ATOM     18  C   UNL     1      -0.257   2.417 -22.692  0.00  0.00    +0.016 A 
ATOM     19  C   UNL     1      -0.590   3.705 -25.625  0.00  0.00    +0.062 C 
ATOM     20  C   UNL     1      -1.221   2.895 -23.333  0.00  0.00    +0.074 C 
ATOM     21  C   UNL     1      -3.336   3.417 -23.466  0.00  0.00    +0.051 C 
ENDROOT
BRANCH   1  23
ATOM     22  C   UNL     1      -4.934   3.575 -25.843  0.00  0.00    +0.277 C 
ATOM     23  O   UNL     1      -4.125   4.337 -25.265  0.00  0.00    -0.495 OA
ENDBRANCH   1  23
BRANCH   6  24
ATOM     24  O   UNL     1       3.011   1.857 -23.083  0.00  0.00    -0.491 OA
ATOM     25  C   UNL     1       3.287   0.978 -23.933  0.00  0.00    +0.277 C 
ENDBRANCH   6  24
TORSDOF 2
ENDMDL
