MODEL 1
REMARK VINA RESULT:    -9.412      0.000      0.000
REMARK INTER + INTRA:         -11.355
REMARK INTER:                 -10.802
REMARK INTRA:                  -0.553
REMARK UNBOUND:                -0.567
REMARK  Name = ZINC000000338038
REMARK  4 active torsions:
REMARK  status: ('A' for Active; 'I' for Inactive)
REMARK    1  A    between atoms: C_1  and  O_2
REMARK    2  A    between atoms: O_2  and  C_3
REMARK    3  A    between atoms: C_5  and  O_6
REMARK    4  A    between atoms: C_13  and  C_14
REMARK                            x       y       z     vdW  Elec       q    Type
REMARK                         _______ _______ _______ _____ _____    ______ ____
ROOT
ATOM      1  C   UNL     1       2.213   3.296 -22.952  0.00  0.00    +0.138 A 
ATOM      2  C   UNL     1       2.879   2.308 -22.431  0.00  0.00    +0.092 A 
ATOM      3  C   UNL     1       2.246   1.338 -21.841  0.00  0.00    +0.124 A 
ATOM      4  C   UNL     1       0.948   1.356 -21.771  0.00  0.00    +0.092 A 
ATOM      5  C   UNL     1       0.283   2.344 -22.291  0.00  0.00    +0.139 A 
ATOM      6  O   UNL     1      -1.015   2.362 -22.221  0.00  0.00    -0.483 OA
ATOM      7  C   UNL     1      -1.681   3.350 -22.741  0.00  0.00    +0.211 C 
ATOM      8  C   UNL     1      -1.048   4.321 -23.331  0.00  0.00    +0.129 C 
ATOM      9  C   UNL     1       0.250   4.302 -23.401  0.00  0.00    +0.174 C 
ATOM     10  O   UNL     1       0.882   5.273 -23.992  0.00  0.00    -0.292 OA
ATOM     11  C   UNL     1       0.915   3.314 -22.881  0.00  0.00    +0.101 A 
ENDROOT
BRANCH   7  12
ATOM     12  C   UNL     1      -2.978   3.368 -22.671  0.00  0.00    -0.007 A 
ATOM     13  C   UNL     1      -3.679   3.747 -23.697  0.00  0.00    +0.007 A 
ATOM     14  C   UNL     1      -4.978   3.765 -23.628  0.00  0.00    +0.000 A 
ATOM     15  C   UNL     1      -5.575   3.404 -22.531  0.00  0.00    +0.000 A 
ATOM     16  C   UNL     1      -4.873   3.024 -21.503  0.00  0.00    +0.000 A 
ATOM     17  C   UNL     1      -3.575   3.007 -21.574  0.00  0.00    +0.007 A 
ENDBRANCH   7  12
BRANCH   1  19
ATOM     18  C   UNL     1       4.085   4.514 -23.240  0.00  0.00    +0.277 C 
ATOM     19  O   UNL     1       2.845   4.267 -23.542  0.00  0.00    -0.494 OA
ENDBRANCH   1  19
BRANCH   3  20
ATOM     20  O   UNL     1       2.912   0.350 -21.321  0.00  0.00    -0.507 OA
ATOM     21  H   UNL     1       3.661   0.520 -20.783  0.00  0.00    +0.292 HD
ENDBRANCH   3  20
TORSDOF 3
ENDMDL
