MODEL 1
REMARK VINA RESULT:   -10.078      0.000      0.000
REMARK INTER + INTRA:         -14.140
REMARK INTER:                 -13.321
REMARK INTRA:                  -0.819
REMARK UNBOUND:                -0.821
REMARK  Name = O=c1ccc2cc(O[C@@H]3O[C@H](CO)[C@H](O)[C@@H](O)[C@@H]3O)c(O)cc2o1     ZINC000242718245
REMARK  8 active torsions:
REMARK  status: ('A' for Active; 'I' for Inactive)
REMARK    1  A    between atoms: C_7  and  O_8
REMARK    2  A    between atoms: O_8  and  C_9
REMARK    3  A    between atoms: C_11  and  C_12
REMARK    4  A    between atoms: C_12  and  O_13
REMARK    5  A    between atoms: C_14  and  O_15
REMARK    6  A    between atoms: C_16  and  O_17
REMARK    7  A    between atoms: C_18  and  O_19
REMARK    8  A    between atoms: C_20  and  O_21
REMARK                            x       y       z     vdW  Elec       q    Type
REMARK                         _______ _______ _______ _____ _____    ______ ____
ROOT
ATOM      1  C   UNL     1       1.471   2.941 -23.971  0.00  0.00    +0.339 C 
ATOM      2  O   UNL     1       1.757   2.829 -22.708  0.00  0.00    -0.331 OA
ATOM      3  C   UNL     1       2.592   1.916 -22.309  0.00  0.00    +0.179 C 
ATOM      4  C   UNL     1       3.142   1.116 -23.172  0.00  0.00    +0.177 C 
ATOM      5  C   UNL     1       2.858   1.228 -24.436  0.00  0.00    +0.180 C 
ATOM      6  C   UNL     1       2.022   2.140 -24.835  0.00  0.00    +0.214 C 
ENDROOT
BRANCH   5   7
ATOM      7  O   UNL     1       3.408   0.428 -25.300  0.00  0.00    -0.386 OA
ATOM      8  H   UNL     1       4.030  -0.161 -24.844  0.00  0.00    +0.210 HD
ENDBRANCH   5   7
BRANCH   4   9
ATOM      9  O   UNL     1       3.978   0.204 -22.773  0.00  0.00    -0.386 OA
ATOM     10  H   UNL     1       3.711  -0.118 -21.897  0.00  0.00    +0.210 HD
ENDBRANCH   4   9
BRANCH   6  11
ATOM     11  O   UNL     1       1.737   2.253 -26.099  0.00  0.00    -0.383 OA
ATOM     12  H   UNL     1       0.866   2.669 -26.197  0.00  0.00    +0.210 HD
ENDBRANCH   6  11
BRANCH   1  13
ATOM     13  O   UNL     1       0.636   3.853 -24.370  0.00  0.00    -0.457 OA
BRANCH  13  20
ATOM     14  O   UNL     1      -6.129   3.325 -21.850  0.00  0.00    -0.245 OA
ATOM     15  C   UNL     1      -4.860   3.448 -22.108  0.00  0.00    +0.337 A 
ATOM     16  C   UNL     1      -4.016   3.652 -21.140  0.00  0.00    +0.092 A 
ATOM     17  C   UNL     1      -2.748   3.774 -21.399  0.00  0.00    +0.018 A 
ATOM     18  C   UNL     1      -2.324   3.692 -22.626  0.00  0.00    +0.021 A 
ATOM     19  C   UNL     1      -1.056   3.814 -22.885  0.00  0.00    +0.061 A 
ATOM     20  C   UNL     1      -0.633   3.731 -24.111  0.00  0.00    +0.166 A 
ATOM     21  C   UNL     1      -1.477   3.526 -25.078  0.00  0.00    +0.162 A 
ATOM     22  C   UNL     1      -2.744   3.404 -24.819  0.00  0.00    +0.096 A 
ATOM     23  C   UNL     1      -3.168   3.487 -23.593  0.00  0.00    +0.143 A 
ATOM     24  O   UNL     1      -4.437   3.365 -23.334  0.00  0.00    -0.422 OA
BRANCH  21  25
ATOM     25  O   UNL     1      -1.053   3.444 -26.304  0.00  0.00    -0.503 OA
ATOM     26  H   UNL     1      -0.669   4.192 -26.718  0.00  0.00    +0.292 HD
ENDBRANCH  21  25
ENDBRANCH  13  20
ENDBRANCH   1  13
BRANCH   3  27
ATOM     27  C   UNL     1       2.878   1.803 -21.045  0.00  0.00    +0.190 C 
BRANCH  27  28
ATOM     28  O   UNL     1       4.023   2.222 -20.597  0.00  0.00    -0.392 OA
ATOM     29  H   UNL     1       4.128   1.950 -19.672  0.00  0.00    +0.210 HD
ENDBRANCH  27  28
ENDBRANCH   3  27
TORSDOF 8
ENDMDL
