MODEL 1
REMARK VINA RESULT:    -8.528      0.000      0.000
REMARK INTER + INTRA:         -11.799
REMARK INTER:                 -10.942
REMARK INTRA:                  -0.858
REMARK UNBOUND:                -0.529
REMARK  Name = ZINC000000000056
REMARK  7 active torsions:
REMARK  status: ('A' for Active; 'I' for Inactive)
REMARK    1  A    between atoms: C_1  and  N_2
REMARK    2  A    between atoms: C_8  and  O_9
REMARK    3  A    between atoms: O_9  and  C_10
REMARK    4  A    between atoms: C_10  and  C_12
REMARK    5  A    between atoms: C_12  and  C_13
REMARK    6  A    between atoms: C_12  and  C_15
REMARK    7  A    between atoms: C_13  and  O_14
REMARK                            x       y       z     vdW  Elec       q    Type
REMARK                         _______ _______ _______ _____ _____    ______ ____
ROOT
ATOM      1  C   UNL     1      -0.896   4.310 -23.314  0.00  0.00    +0.317 C 
ATOM      2  O   UNL     1      -0.990   5.511 -23.580  0.00  0.00    -0.250 OA
ENDROOT
BRANCH   1   3
ATOM      3  O   UNL     1      -0.009   3.772 -22.456  0.00  0.00    -0.460 OA
BRANCH   3  11
ATOM      4  C   UNL     1       4.812   2.313 -21.134  0.00  0.00    +0.191 C 
ATOM      5  N   UNL     1       3.592   2.471 -21.925  0.00  0.00    +0.238 N 
ATOM      6  H   UNL     1       3.037   3.000 -21.253  0.00  0.00    +0.204 HD
ATOM      7  C   UNL     1       2.885   1.235 -22.263  0.00  0.00    +0.068 C 
ATOM      8  C   UNL     1       3.793   0.807 -23.454  0.00  0.00    +0.060 C 
ATOM      9  C   UNL     1       4.343   2.123 -24.037  0.00  0.00    +0.060 C 
ATOM     10  C   UNL     1       1.437   1.803 -22.049  0.00  0.00    +0.099 C 
ATOM     11  C   UNL     1       1.117   3.050 -22.941  0.00  0.00    +0.187 C 
ATOM     12  C   UNL     1       2.350   4.004 -23.031  0.00  0.00    +0.099 C 
ATOM     13  C   UNL     1       3.722   3.250 -23.157  0.00  0.00    +0.068 C 
ENDBRANCH   3  11
ENDBRANCH   1   3
BRANCH   1  14
ATOM     14  C   UNL     1      -1.820   3.255 -23.945  0.00  0.00    +0.153 C 
BRANCH  14  15
ATOM     15  C   UNL     1      -3.177   3.221 -23.242  0.00  0.00    -0.032 A 
ATOM     16  C   UNL     1      -3.310   2.692 -21.938  0.00  0.00    +0.004 A 
ATOM     17  C   UNL     1      -4.569   2.667 -21.305  0.00  0.00    +0.000 A 
ATOM     18  C   UNL     1      -5.701   3.170 -21.970  0.00  0.00    +0.000 A 
ATOM     19  C   UNL     1      -5.576   3.701 -23.269  0.00  0.00    +0.000 A 
ATOM     20  C   UNL     1      -4.318   3.727 -23.902  0.00  0.00    +0.004 A 
ENDBRANCH  14  15
BRANCH  14  21
ATOM     21  C   UNL     1      -1.950   3.422 -25.477  0.00  0.00    +0.175 C 
BRANCH  21  22
ATOM     22  O   UNL     1      -0.670   3.510 -26.085  0.00  0.00    -0.394 OA
ATOM     23  H   UNL     1      -0.772   3.544 -27.049  0.00  0.00    +0.209 HD
ENDBRANCH  21  22
ENDBRANCH  14  21
ENDBRANCH   1  14
TORSDOF 6
ENDMDL
