MODEL 1
REMARK VINA RESULT:    -5.975      0.000      0.000
REMARK INTER + INTRA:          -7.146
REMARK INTER:                  -6.828
REMARK INTRA:                  -0.318
REMARK UNBOUND:                -0.297
REMARK  Name = ZINC000000001906
REMARK  5 active torsions:
REMARK  status: ('A' for Active; 'I' for Inactive)
REMARK    1  A    between atoms: C_1  and  O_2
REMARK    2  A    between atoms: O_2  and  C_3
REMARK    3  A    between atoms: C_6  and  C_7
REMARK    4  A    between atoms: C_7  and  C_8
REMARK    5  A    between atoms: C_10  and  O_11
REMARK                            x       y       z     vdW  Elec       q    Type
REMARK                         _______ _______ _______ _____ _____    ______ ____
ROOT
ATOM      1  C   UNL     1      -3.092   3.639 -22.999  0.00  0.00    +0.124 A 
ATOM      2  C   UNL     1      -2.032   4.066 -22.168  0.00  0.00    +0.046 A 
ATOM      3  C   UNL     1      -0.744   4.265 -22.698  0.00  0.00    +0.018 A 
ATOM      4  C   UNL     1      -0.481   4.068 -24.077  0.00  0.00    +0.059 A 
ATOM      5  C   UNL     1      -1.545   3.621 -24.909  0.00  0.00    +0.131 A 
ATOM      6  C   UNL     1      -2.825   3.404 -24.362  0.00  0.00    +0.091 A 
ENDROOT
BRANCH   4   7
ATOM      7  C   UNL     1       0.889   4.331 -24.626  0.00  0.00    +0.164 C 
ATOM      8  O   UNL     1       1.191   4.156 -25.810  0.00  0.00    -0.292 OA
ATOM      9  C   UNL     1       1.948   4.891 -23.679  0.00  0.00    +0.092 C 
ENDBRANCH   4   7
BRANCH   1  11
ATOM     10  C   UNL     1      -5.448   3.755 -23.447  0.00  0.00    +0.277 C 
ATOM     11  O   UNL     1      -4.383   3.432 -22.566  0.00  0.00    -0.495 OA
ENDBRANCH   1  11
BRANCH   5  12
ATOM     12  O   UNL     1      -1.384   3.393 -26.251  0.00  0.00    -0.506 OA
ATOM     13  H   UNL     1      -0.600   2.990 -26.567  0.00  0.00    +0.292 HD
ENDBRANCH   5  12
TORSDOF 3
ENDMDL
