MODEL 1
REMARK VINA RESULT:    -9.854      0.000      0.000
REMARK INTER + INTRA:         -12.989
REMARK INTER:                 -12.267
REMARK INTRA:                  -0.722
REMARK UNBOUND:                -0.254
REMARK  Name = ZINC000000518629
REMARK  6 active torsions:
REMARK  status: ('A' for Active; 'I' for Inactive)
REMARK    1  A    between atoms: C_1  and  O_2
REMARK    2  A    between atoms: O_2  and  C_3
REMARK    3  A    between atoms: C_6  and  C_7
REMARK    4  A    between atoms: C_7  and  O_9
REMARK    5  A    between atoms: O_9  and  C_10
REMARK    6  A    between atoms: C_10  and  C_11
REMARK                            x       y       z     vdW  Elec       q    Type
REMARK                         _______ _______ _______ _____ _____    ______ ____
ROOT
ATOM      1  C   UNL     1      -1.368   4.329 -24.242  0.00  0.00    +0.241 C 
ENDROOT
BRANCH   1   2
ATOM      2  C   UNL     1      -2.648   4.152 -24.103  0.00  0.00    +0.075 C 
ATOM      3  C   UNL     1      -3.453   4.436 -25.083  0.00  0.00    +0.017 C 
ATOM      4  C   UNL     1      -4.734   4.259 -24.944  0.00  0.00    +0.051 C 
ATOM      5  C   UNL     1      -5.209   3.798 -23.826  0.00  0.00    +0.131 C 
ATOM      6  N   UNL     1      -4.404   3.513 -22.845  0.00  0.00    +0.238 N 
ATOM      7  H   UNL     1      -5.405   3.369 -22.721  0.00  0.00    +0.204 HD
ATOM      8  C   UNL     1      -4.879   3.052 -21.727  0.00  0.00    +0.131 C 
ATOM      9  C   UNL     1      -4.073   2.768 -20.747  0.00  0.00    +0.051 C 
ATOM     10  C   UNL     1      -2.793   2.945 -20.886  0.00  0.00    +0.011 C 
ATOM     11  C   UNL     1      -2.317   3.406 -22.004  0.00  0.00    +0.055 C 
ATOM     12  C   UNL     1      -3.123   3.691 -22.985  0.00  0.00    +0.071 C 
ENDBRANCH   1   2
BRANCH   1  13
ATOM     13  O   UNL     1      -0.643   3.414 -24.813  0.00  0.00    -0.461 OA
BRANCH  13  14
ATOM     14  C   UNL     1       0.651   3.538 -24.850  0.00  0.00    +0.339 C 
ATOM     15  O   UNL     1       1.219   4.119 -25.864  0.00  0.00    -0.245 OA
BRANCH  14  19
ATOM     16  C   UNL     1       2.826   2.165 -21.917  0.00  0.00    +0.120 A 
ATOM     17  C   UNL     1       1.643   1.672 -22.135  0.00  0.00    +0.046 A 
ATOM     18  C   UNL     1       0.918   2.129 -23.113  0.00  0.00    +0.018 A 
ATOM     19  C   UNL     1       1.376   3.080 -23.872  0.00  0.00    +0.059 A 
ATOM     20  C   UNL     1       2.559   3.574 -23.654  0.00  0.00    +0.018 A 
ATOM     21  C   UNL     1       3.283   3.117 -22.677  0.00  0.00    +0.046 A 
BRANCH  16  23
ATOM     22  C   UNL     1       3.839   0.443 -20.882  0.00  0.00    +0.277 C 
ATOM     23  O   UNL     1       3.551   1.709 -20.940  0.00  0.00    -0.495 OA
ENDBRANCH  16  23
ENDBRANCH  14  19
ENDBRANCH  13  14
ENDBRANCH   1  13
TORSDOF 5
ENDMDL
