MODEL 1
REMARK VINA RESULT:   -10.672      0.000      0.000
REMARK INTER + INTRA:         -14.060
REMARK INTER:                 -13.231
REMARK INTRA:                  -0.829
REMARK UNBOUND:                 0.042
REMARK  Name = ZINC000043465398
REMARK  8 active torsions:
REMARK  status: ('A' for Active; 'I' for Inactive)
REMARK    1  A    between atoms: C_7  and  O_8
REMARK    2  A    between atoms: O_8  and  C_9
REMARK    3  A    between atoms: C_11  and  C_12
REMARK    4  A    between atoms: C_12  and  O_13
REMARK    5  A    between atoms: C_14  and  O_15
REMARK    6  A    between atoms: C_16  and  O_17
REMARK    7  A    between atoms: C_18  and  O_19
REMARK    8  A    between atoms: C_20  and  O_21
REMARK                            x       y       z     vdW  Elec       q    Type
REMARK                         _______ _______ _______ _____ _____    ______ ____
ROOT
ATOM      1  C   UNL     1       1.489   2.922 -23.933  0.00  0.00    +0.339 C 
ATOM      2  O   UNL     1       1.811   2.848 -22.676  0.00  0.00    -0.331 OA
ATOM      3  C   UNL     1       2.660   1.950 -22.274  0.00  0.00    +0.179 C 
ATOM      4  C   UNL     1       3.188   1.125 -23.130  0.00  0.00    +0.177 C 
ATOM      5  C   UNL     1       2.866   1.199 -24.388  0.00  0.00    +0.180 C 
ATOM      6  C   UNL     1       2.017   2.098 -24.789  0.00  0.00    +0.214 C 
ENDROOT
BRANCH   5   7
ATOM      7  O   UNL     1       3.394   0.375 -25.243  0.00  0.00    -0.386 OA
ATOM      8  H   UNL     1       4.149  -0.076 -24.834  0.00  0.00    +0.210 HD
ENDBRANCH   5   7
BRANCH   4   9
ATOM      9  O   UNL     1       4.037   0.227 -22.728  0.00  0.00    -0.386 OA
ATOM     10  H   UNL     1       3.748  -0.649 -23.029  0.00  0.00    +0.210 HD
ENDBRANCH   4   9
BRANCH   6  11
ATOM     11  O   UNL     1       1.695   2.172 -26.046  0.00  0.00    -0.383 OA
ATOM     12  H   UNL     1       2.501   2.168 -26.587  0.00  0.00    +0.210 HD
ENDBRANCH   6  11
BRANCH   1  13
ATOM     13  O   UNL     1       0.640   3.821 -24.335  0.00  0.00    -0.457 OA
BRANCH  13  20
ATOM     14  O   UNL     1      -6.096   3.241 -21.750  0.00  0.00    -0.245 OA
ATOM     15  C   UNL     1      -4.831   3.375 -22.020  0.00  0.00    +0.337 A 
ATOM     16  C   UNL     1      -3.981   3.598 -21.063  0.00  0.00    +0.092 A 
ATOM     17  C   UNL     1      -2.717   3.732 -21.334  0.00  0.00    +0.018 A 
ATOM     18  C   UNL     1      -2.303   3.642 -22.563  0.00  0.00    +0.021 A 
ATOM     19  C   UNL     1      -1.039   3.776 -22.834  0.00  0.00    +0.061 A 
ATOM     20  C   UNL     1      -0.625   3.687 -24.063  0.00  0.00    +0.166 A 
ATOM     21  C   UNL     1      -1.475   3.464 -25.021  0.00  0.00    +0.162 A 
ATOM     22  C   UNL     1      -2.739   3.330 -24.750  0.00  0.00    +0.096 A 
ATOM     23  C   UNL     1      -3.153   3.420 -23.521  0.00  0.00    +0.143 A 
ATOM     24  O   UNL     1      -4.418   3.286 -23.249  0.00  0.00    -0.422 OA
BRANCH  21  25
ATOM     25  O   UNL     1      -1.061   3.375 -26.250  0.00  0.00    -0.503 OA
ATOM     26  H   UNL     1      -1.375   3.978 -26.895  0.00  0.00    +0.292 HD
ENDBRANCH  21  25
ENDBRANCH  13  20
ENDBRANCH   1  13
BRANCH   3  27
ATOM     27  C   UNL     1       2.983   1.875 -21.017  0.00  0.00    +0.190 C 
BRANCH  27  28
ATOM     28  O   UNL     1       4.163   2.250 -20.625  0.00  0.00    -0.392 OA
ATOM     29  H   UNL     1       4.784   2.195 -21.368  0.00  0.00    +0.210 HD
ENDBRANCH  27  28
ENDBRANCH   3  27
TORSDOF 8
ENDMDL
