MODEL 1
REMARK VINA RESULT:   -10.793      0.000      0.000
REMARK INTER + INTRA:         -10.904
REMARK INTER:                 -11.748
REMARK INTRA:                   0.844
REMARK UNBOUND:                 0.836
REMARK  Name = ZINC000001280591
REMARK  6 active torsions:
REMARK  status: ('A' for Active; 'I' for Inactive)
REMARK    1  A    between atoms: C_1  and  O_2
REMARK    2  A    between atoms: O_2  and  C_3
REMARK    3  A    between atoms: C_11  and  O_12
REMARK    4  A    between atoms: O_12  and  C_13
REMARK    5  A    between atoms: C_14  and  O_15
REMARK    6  A    between atoms: N_20  and  C_21
REMARK                            x       y       z     vdW  Elec       q    Type
REMARK                         _______ _______ _______ _____ _____    ______ ____
ROOT
ATOM      1  C   UNL     1      -2.360   3.478 -25.053  0.00  0.00    +0.159 C 
ATOM      2  C   UNL     1      -3.066   3.408 -24.402  0.00  0.00    +0.032 C 
ATOM      3  C   UNL     1      -2.887   3.087 -22.936  0.00  0.00    +0.075 C 
ATOM      4  C   UNL     1      -3.778   3.188 -23.022  0.00  0.00    +0.076 C 
ATOM      5  C   UNL     1      -3.664   3.373 -23.962  0.00  0.00    +0.090 C 
ATOM      6  C   UNL     1      -2.031   3.252 -24.114  0.00  0.00    -0.035 A 
ATOM      7  C   UNL     1      -0.863   3.380 -25.252  0.00  0.00    +0.008 A 
ATOM      8  C   UNL     1       0.306   3.207 -24.941  0.00  0.00    +0.049 A 
ATOM      9  C   UNL     1       0.596   2.931 -23.745  0.00  0.00    +0.162 A 
ATOM     10  C   UNL     1      -0.332   2.828 -22.833  0.00  0.00    +0.163 A 
ATOM     11  C   UNL     1      -1.602   3.005 -23.117  0.00  0.00    +0.009 A 
ATOM     12  N   UNL     1      -4.393   3.018 -21.930  0.00  0.00    +0.236 N 
ATOM     13  H   UNL     1      -5.408   3.106 -21.897  0.00  0.00    +0.203 HD
ATOM     14  C   UNL     1      -5.648   3.116 -21.837  0.00  0.00    +0.190 C 
ATOM     15  C   UNL     1      -3.629   2.731 -20.890  0.00  0.00    +0.132 C 
ATOM     16  C   UNL     1      -2.343   2.662 -21.133  0.00  0.00    +0.064 C 
ATOM     17  C   UNL     1      -2.031   2.879 -22.314  0.00  0.00    +0.023 C 
ATOM     18  C   UNL     1      -0.935   2.995 -23.367  0.00  0.00    +0.095 C 
ATOM     19  C   UNL     1      -1.368   3.329 -24.778  0.00  0.00    +0.198 C 
ATOM     20  O   UNL     1      -2.424   3.760 -26.383  0.00  0.00    -0.289 OA
ENDROOT
BRANCH   1  22
ATOM     21  C   UNL     1      -3.302   3.463 -27.517  0.00  0.00    +0.277 C 
ATOM     22  O   UNL     1      -3.524   3.807 -26.118  0.00  0.00    -0.492 OA
ENDBRANCH   1  22
BRANCH  10  23
ATOM     23  O   UNL     1       0.586   2.588 -22.084  0.00  0.00    -0.503 OA
ATOM     24  H   UNL     1       1.442   2.426 -22.430  0.00  0.00    +0.292 HD
ENDBRANCH  10  23
BRANCH   9  25
ATOM     25  O   UNL     1       1.804   2.727 -23.301  0.00  0.00    -0.491 OA
ATOM     26  C   UNL     1       2.837   2.813 -23.977  0.00  0.00    +0.277 C 
ENDBRANCH   9  25
TORSDOF 3
ENDMDL
