MODEL 1
REMARK VINA RESULT:   -10.177      0.000      0.000
REMARK INTER + INTRA:         -11.846
REMARK INTER:                 -11.606
REMARK INTRA:                  -0.240
REMARK UNBOUND:                -0.181
REMARK  Name = COC1=C[C@@]23CCN(C)[C@@H](Cc4ccc(OC)c(O)c42)C3=CC1                   ZINC000096316411
REMARK  6 active torsions:
REMARK  status: ('A' for Active; 'I' for Inactive)
REMARK    1  A    between atoms: C_1  and  O_2
REMARK    2  A    between atoms: O_2  and  C_3
REMARK    3  A    between atoms: N_8  and  C_9
REMARK    4  A    between atoms: C_15  and  O_16
REMARK    5  A    between atoms: O_16  and  C_17
REMARK    6  A    between atoms: C_18  and  O_19
REMARK                            x       y       z     vdW  Elec       q    Type
REMARK                         _______ _______ _______ _____ _____    ______ ____
ROOT
ATOM      1  C   UNL     1      -4.065   3.897 -25.416  0.00  0.00    +0.098 C 
ATOM      2  C   UNL     1      -2.941   3.453 -24.940  0.00  0.00    +0.030 C 
ATOM      3  C   UNL     1      -2.840   3.171 -23.712  0.00  0.00    +0.052 C 
ATOM      4  C   UNL     1      -2.046   2.842 -23.299  0.00  0.00    +0.071 C 
ATOM      5  C   UNL     1      -2.047   2.598 -22.102  0.00  0.00    +0.133 C 
ATOM      6  N   UNL     1      -2.951   2.721 -21.341  0.00  0.00    +0.239 N 
ATOM      7  H   UNL     1      -2.012   2.387 -21.122  0.00  0.00    +0.204 HD
ATOM      8  C   UNL     1      -3.746   3.011 -21.561  0.00  0.00    +0.096 C 
ATOM      9  C   UNL     1      -2.375   2.450 -20.884  0.00  0.00    +0.094 C 
ATOM     10  C   UNL     1      -1.400   2.293 -21.584  0.00  0.00    -0.034 A 
ATOM     11  C   UNL     1      -0.291   1.856 -21.117  0.00  0.00    +0.008 A 
ATOM     12  C   UNL     1       0.727   1.703 -21.906  0.00  0.00    +0.050 A 
ATOM     13  C   UNL     1       0.632   1.989 -23.163  0.00  0.00    +0.162 A 
ATOM     14  C   UNL     1      -0.477   2.427 -23.634  0.00  0.00    +0.163 A 
ATOM     15  C   UNL     1      -4.064   2.846 -20.272  0.00  0.00    +0.191 C 
ATOM     16  C   UNL     1      -3.977   3.346 -22.853  0.00  0.00    -0.011 C 
ATOM     17  C   UNL     1      -5.056   3.781 -23.352  0.00  0.00    -0.013 C 
ATOM     18  C   UNL     1      -1.495   2.582 -22.855  0.00  0.00    +0.015 A 
ATOM     19  C   UNL     1      -5.113   4.059 -24.629  0.00  0.00    +0.100 C 
ENDROOT
BRANCH   1  21
ATOM     20  C   UNL     1      -3.300   3.483 -27.569  0.00  0.00    +0.276 C 
ATOM     21  O   UNL     1      -3.947   4.129 -26.732  0.00  0.00    -0.499 OA
ENDBRANCH   1  21
BRANCH  14  22
ATOM     22  O   UNL     1      -0.591   2.720 -24.895  0.00  0.00    -0.503 OA
ATOM     23  H   UNL     1      -1.331   3.208 -25.198  0.00  0.00    +0.292 HD
ENDBRANCH  14  22
BRANCH  13  24
ATOM     24  O   UNL     1       1.559   1.903 -24.145  0.00  0.00    -0.491 OA
ATOM     25  C   UNL     1       2.762   1.605 -24.046  0.00  0.00    +0.277 C 
ENDBRANCH  13  24
TORSDOF 3
ENDMDL
