MODEL 1
REMARK VINA RESULT:    -9.319      0.000      0.000
REMARK INTER + INTRA:         -13.416
REMARK INTER:                 -12.786
REMARK INTRA:                  -0.630
REMARK UNBOUND:                -0.829
REMARK  Name = C=C[C@@H]1CN2CC[C@H]1C[C@@H]2[C@@H](OC(=O)c1ccccc1)c1ccnc2ccccc12    ZINC000138747593
REMARK  6 active torsions:
REMARK  status: ('A' for Active; 'I' for Inactive)
REMARK    1  A    between atoms: C_2  and  C_3
REMARK    2  A    between atoms: C_10  and  C_11
REMARK    3  A    between atoms: C_11  and  O_12
REMARK    4  A    between atoms: C_11  and  C_21
REMARK    5  A    between atoms: O_12  and  C_13
REMARK    6  A    between atoms: C_13  and  C_15
REMARK                            x       y       z     vdW  Elec       q    Type
REMARK                         _______ _______ _______ _____ _____    ______ ____
ROOT
ATOM      1  C   UNL     1      -1.006   2.677 -23.832  0.00  0.00    +0.255 C 
ENDROOT
BRANCH   1   2
ATOM      2  C   UNL     1      -2.105   3.074 -24.454  0.00  0.00    +0.009 A 
ATOM      3  C   UNL     1      -2.081   3.311 -25.750  0.00  0.00    +0.028 A 
ATOM      4  C   UNL     1      -3.177   3.707 -26.372  0.00  0.00    +0.112 A 
ATOM      5  N   UNL     1      -4.297   3.865 -25.690  0.00  0.00    -0.255 NA
ATOM      6  C   UNL     1      -4.322   3.628 -24.394  0.00  0.00    +0.071 A 
ATOM      7  C   UNL     1      -5.442   3.785 -23.712  0.00  0.00    +0.028 A 
ATOM      8  C   UNL     1      -5.466   3.548 -22.416  0.00  0.00    +0.002 A 
ATOM      9  C   UNL     1      -4.370   3.152 -21.794  0.00  0.00    +0.001 A 
ATOM     10  C   UNL     1      -3.250   2.995 -22.476  0.00  0.00    +0.010 A 
ATOM     11  C   UNL     1      -3.226   3.232 -23.773  0.00  0.00    +0.007 A 
ENDBRANCH   1   2
BRANCH   1  18
ATOM     12  C   UNL     1       2.019   5.220 -23.323  0.00  0.00    +0.060 C 
ATOM     13  C   UNL     1       0.875   5.394 -22.645  0.00  0.00    +0.139 C 
ATOM     14  N   UNL     1      -0.126   4.532 -22.829  0.00  0.00    +0.241 N 
ATOM     15  H   UNL     1      -1.063   4.469 -22.431  0.00  0.00    +0.204 HD
ATOM     16  C   UNL     1       0.882   4.792 -23.110  0.00  0.00    +0.132 C 
ATOM     17  C   UNL     1       1.200   4.006 -23.864  0.00  0.00    +0.055 C 
ATOM     18  C   UNL     1      -0.004   3.519 -23.663  0.00  0.00    +0.111 C 
ATOM     19  C   UNL     1       1.136   3.350 -24.337  0.00  0.00    +0.063 C 
ATOM     20  C   UNL     1       2.136   4.191 -24.168  0.00  0.00    +0.011 C 
BRANCH  12  22
ATOM     21  C   UNL     1       4.216   5.609 -22.812  0.00  0.00    +0.004 C 
ATOM     22  C   UNL     1       3.026   6.062 -23.157  0.00  0.00    -0.026 C 
ENDBRANCH  12  22
ENDBRANCH   1  18
BRANCH   1  23
ATOM     23  O   UNL     1      -0.913   1.441 -23.381  0.00  0.00    -0.447 OA
BRANCH  23  24
ATOM     24  C   UNL     1      -0.471   1.217 -22.159  0.00  0.00    +0.340 C 
ATOM     25  O   UNL     1      -1.325   1.075 -21.164  0.00  0.00    -0.245 OA
BRANCH  24  26
ATOM     26  C   UNL     1       0.826   1.134 -21.933  0.00  0.00    +0.059 A 
ATOM     27  C   UNL     1       1.348   1.714 -20.864  0.00  0.00    +0.015 A 
ATOM     28  C   UNL     1       2.645   1.631 -20.639  0.00  0.00    +0.001 A 
ATOM     29  C   UNL     1       3.423   0.972 -21.476  0.00  0.00    +0.000 A 
ATOM     30  C   UNL     1       2.901   0.392 -22.544  0.00  0.00    +0.001 A 
ATOM     31  C   UNL     1       1.604   0.475 -22.769  0.00  0.00    +0.015 A 
ENDBRANCH  24  26
ENDBRANCH  23  24
ENDBRANCH   1  23
TORSDOF 6
ENDMDL
