MODEL 1
REMARK VINA RESULT:    -7.171      0.000      0.000
REMARK INTER + INTRA:          -9.182
REMARK INTER:                  -8.817
REMARK INTRA:                  -0.365
REMARK UNBOUND:                -0.334
REMARK  Name = ZINC000000338383
REMARK  4 active torsions:
REMARK  status: ('A' for Active; 'I' for Inactive)
REMARK    1  A    between atoms: C_2  and  C_3
REMARK    2  A    between atoms: C_3  and  C_4
REMARK    3  A    between atoms: C_11  and  C_12
REMARK    4  A    between atoms: C_12  and  C_13
REMARK                            x       y       z     vdW  Elec       q    Type
REMARK                         _______ _______ _______ _____ _____    ______ ____
ROOT
ATOM      1  C   UNL     1      -2.726   2.970 -22.427  0.00  0.00    -0.024 A 
ATOM      2  C   UNL     1      -2.890   2.526 -21.216  0.00  0.00    +0.005 A 
ATOM      3  C   UNL     1      -4.075   2.514 -20.683  0.00  0.00    +0.002 A 
ATOM      4  C   UNL     1      -5.097   2.946 -21.360  0.00  0.00    +0.026 A 
ATOM      5  C   UNL     1      -4.934   3.390 -22.571  0.00  0.00    +0.047 A 
ATOM      6  N   UNL     1      -5.771   3.867 -23.443  0.00  0.00    -0.360 N 
ATOM      7  H   UNL     1      -6.741   3.977 -23.314  0.00  0.00    +0.165 HD
ATOM      8  C   UNL     1      -5.104   4.175 -24.516  0.00  0.00    +0.088 A 
ATOM      9  C   UNL     1      -3.854   3.887 -24.307  0.00  0.00    -0.008 A 
ATOM     10  C   UNL     1      -3.749   3.402 -23.105  0.00  0.00    +0.008 A 
ENDROOT
BRANCH   1  11
ATOM     11  C   UNL     1      -1.541   2.983 -22.961  0.00  0.00    +0.154 C 
BRANCH  11  13
ATOM     12  N   UNL     1       0.128   1.051 -22.464  0.00  0.00    -0.196 NA
ATOM     13  C   UNL     1      -0.707   2.017 -22.713  0.00  0.00    +0.067 C 
ENDBRANCH  11  13
ENDBRANCH   1  11
BRANCH   9  14
ATOM     14  C   UNL     1      -2.879   4.055 -25.150  0.00  0.00    +0.155 C 
BRANCH  14  15
ATOM     15  C   UNL     1      -3.037   3.726 -26.398  0.00  0.00    +0.067 C 
ATOM     16  N   UNL     1      -3.196   3.397 -27.646  0.00  0.00    -0.196 NA
ENDBRANCH  14  15
ENDBRANCH   9  14
TORSDOF 4
ENDMDL
