MODEL 1
REMARK VINA RESULT:    -8.468      0.000      0.000
REMARK INTER + INTRA:          -9.026
REMARK INTER:                  -8.960
REMARK INTRA:                  -0.066
REMARK UNBOUND:                -0.063
REMARK  Name = ZINC000018847046
REMARK  3 active torsions:
REMARK  status: ('A' for Active; 'I' for Inactive)
REMARK    1  A    between atoms: C_1  and  O_2
REMARK    2  A    between atoms: O_2  and  C_3
REMARK    3  A    between atoms: C_11  and  C_12
REMARK                            x       y       z     vdW  Elec       q    Type
REMARK                         _______ _______ _______ _____ _____    ______ ____
ROOT
ATOM      1  C   UNL     1       0.731   2.024 -22.692  0.00  0.00    +0.122 A 
ATOM      2  C   UNL     1       0.173   1.708 -21.562  0.00  0.00    +0.046 A 
ATOM      3  C   UNL     1      -1.091   1.941 -21.373  0.00  0.00    +0.014 A 
ATOM      4  C   UNL     1      -1.798   2.492 -22.316  0.00  0.00    +0.008 A 
ATOM      5  C   UNL     1      -1.240   2.807 -23.446  0.00  0.00    +0.051 A 
ATOM      6  N   UNL     1      -2.150   3.336 -24.210  0.00  0.00    -0.353 N 
ATOM      7  H   UNL     1      -2.014   3.670 -25.127  0.00  0.00    +0.166 HD
ATOM      8  C   UNL     1      -3.271   3.346 -23.551  0.00  0.00    +0.069 A 
ATOM      9  C   UNL     1      -4.461   3.763 -23.866  0.00  0.00    +0.062 A 
ATOM     10  N   UNL     1      -5.434   3.658 -23.010  0.00  0.00    -0.258 NA
ATOM     11  C   UNL     1      -5.217   3.137 -21.839  0.00  0.00    +0.112 A 
ATOM     12  C   UNL     1      -4.026   2.719 -21.525  0.00  0.00    +0.030 A 
ATOM     13  C   UNL     1      -4.679   4.285 -25.037  0.00  0.00    +0.068 C 
ATOM     14  C   UNL     1      -3.053   2.824 -22.381  0.00  0.00    +0.011 A 
ATOM     15  C   UNL     1       0.025   2.574 -23.635  0.00  0.00    +0.071 A 
ENDROOT
BRANCH   1  17
ATOM     16  C   UNL     1       2.537   0.711 -22.397  0.00  0.00    +0.277 C 
ATOM     17  O   UNL     1       1.996   1.790 -22.880  0.00  0.00    -0.495 OA
ENDBRANCH   1  17
TORSDOF 1
ENDMDL
