MODEL 1
REMARK VINA RESULT:   -11.101      0.000      0.000
REMARK INTER + INTRA:         -11.750
REMARK INTER:                 -11.750
REMARK INTRA:                   0.000
REMARK UNBOUND:                 0.000
REMARK  Name = ZINC000003902444
REMARK  3 active torsions:
REMARK  status: ('A' for Active; 'I' for Inactive)
REMARK    1  A    between atoms: C_1  and  C_2
REMARK    2  A    between atoms: C_10  and  O_11
REMARK    3  A    between atoms: C_20  and  O_21
REMARK                            x       y       z     vdW  Elec       q    Type
REMARK                         _______ _______ _______ _____ _____    ______ ____
ROOT
ATOM      1  C   UNL     1      -4.579   3.075 -21.824  0.00  0.00    +0.014 C 
ATOM      2  C   UNL     1      -3.847   3.313 -22.871  0.00  0.00    -0.003 C 
ATOM      3  C   UNL     1      -3.191   2.799 -21.875  0.00  0.00    +0.010 C 
ATOM      4  C   UNL     1      -1.916   2.568 -21.985  0.00  0.00    +0.009 C 
ATOM      5  C   UNL     1      -1.298   2.853 -23.092  0.00  0.00    +0.023 C 
ATOM      6  C   UNL     1      -0.023   2.623 -23.203  0.00  0.00    -0.040 A 
ATOM      7  C   UNL     1       0.633   2.108 -22.206  0.00  0.00    +0.023 A 
ATOM      8  C   UNL     1       1.908   1.878 -22.316  0.00  0.00    +0.060 A 
ATOM      9  C   UNL     1       2.526   2.163 -23.425  0.00  0.00    +0.131 A 
ATOM     10  C   UNL     1       1.870   2.678 -24.421  0.00  0.00    +0.050 A 
ATOM     11 BR   UNL     1       2.564   1.363 -21.319  0.00  0.00    -0.047 Br
ATOM     12  C   UNL     1       0.595   2.908 -24.310  0.00  0.00    -0.040 A 
ATOM     13  C   UNL     1      -0.062   3.423 -25.307  0.00  0.00    +0.036 C 
ATOM     14  C   UNL     1      -1.336   3.653 -25.197  0.00  0.00    +0.009 C 
ATOM     15  C   UNL     1      -1.954   3.368 -24.090  0.00  0.00    +0.000 C 
ATOM     16  C   UNL     1      -5.099   3.634 -23.016  0.00  0.00    +0.121 C 
ATOM     17  C   UNL     1      -5.254   4.118 -24.213  0.00  0.00    +0.032 C 
ATOM     18  C   UNL     1      -4.098   4.095 -24.808  0.00  0.00    +0.007 C 
ATOM     19  C   UNL     1      -3.229   3.598 -23.979  0.00  0.00    +0.001 C 
ENDROOT
BRANCH   9  20
ATOM     20  O   UNL     1       3.801   1.932 -23.534  0.00  0.00    -0.506 OA
ATOM     21  H   UNL     1       4.418   2.611 -23.345  0.00  0.00    +0.292 HD
ENDBRANCH   9  20
BRANCH  16  22
ATOM     22  O   UNL     1      -6.031   3.497 -22.121  0.00  0.00    -0.391 OA
ATOM     23  H   UNL     1      -6.900   3.581 -22.544  0.00  0.00    +0.210 HD
ENDBRANCH  16  22
TORSDOF 2
ENDMDL
