MODEL 1
REMARK VINA RESULT:   -11.256      0.000      0.000
REMARK INTER + INTRA:         -12.047
REMARK INTER:                 -11.941
REMARK INTRA:                  -0.106
REMARK UNBOUND:                -0.134
REMARK  Name = COc1ccc2c3c1OC1=C[C@H](C)C=C4[C@@H](C2)N(C)CC[C@]143                 ZINC000096316436
REMARK  4 active torsions:
REMARK  status: ('A' for Active; 'I' for Inactive)
REMARK    1  A    between atoms: C_1  and  O_2
REMARK    2  A    between atoms: O_2  and  C_3
REMARK    3  A    between atoms: C_12  and  C_13
REMARK    4  A    between atoms: N_18  and  C_19
REMARK                            x       y       z     vdW  Elec       q    Type
REMARK                         _______ _______ _______ _____ _____    ______ ____
ROOT
ATOM      1  C   UNL     1      -4.811   3.634 -22.916  0.00  0.00    +0.162 A 
ATOM      2  C   UNL     1      -4.935   4.085 -24.090  0.00  0.00    +0.050 A 
ATOM      3  C   UNL     1      -3.961   4.097 -24.871  0.00  0.00    +0.008 A 
ATOM      4  C   UNL     1      -2.853   3.659 -24.489  0.00  0.00    -0.034 A 
ATOM      5  C   UNL     1      -2.705   3.205 -23.325  0.00  0.00    +0.020 A 
ATOM      6  C   UNL     1      -1.598   2.769 -22.950  0.00  0.00    +0.088 C 
ATOM      7  C   UNL     1      -0.389   2.247 -22.408  0.00  0.00    +0.075 C 
ATOM      8  C   UNL     1       0.729   2.247 -23.266  0.00  0.00    +0.133 C 
ATOM      9  N   UNL     1       0.552   2.758 -24.568  0.00  0.00    +0.239 N 
ATOM     10  H   UNL     1       1.330   2.780 -25.227  0.00  0.00    +0.204 HD
ATOM     11  C   UNL     1       1.492   2.794 -25.390  0.00  0.00    +0.191 C 
ATOM     12  C   UNL     1      -0.748   3.232 -24.901  0.00  0.00    +0.096 C 
ATOM     13  C   UNL     1      -0.620   2.779 -23.728  0.00  0.00    -0.007 C 
ATOM     14  C   UNL     1       0.498   2.338 -23.344  0.00  0.00    -0.014 C 
ATOM     15  C   UNL     1       0.631   1.889 -22.184  0.00  0.00    +0.035 C 
ATOM     16  C   UNL     1       1.739   1.453 -21.809  0.00  0.00    +0.016 C 
ATOM     17  C   UNL     1      -0.353   1.875 -21.391  0.00  0.00    +0.023 C 
ATOM     18  C   UNL     1      -1.461   2.312 -21.768  0.00  0.00    +0.117 C 
ATOM     19  O   UNL     1      -2.900   2.580 -21.417  0.00  0.00    -0.455 OA
ATOM     20  C   UNL     1      -1.855   3.669 -25.282  0.00  0.00    +0.094 C 
ATOM     21  C   UNL     1      -3.688   3.192 -22.534  0.00  0.00    +0.174 A 
ENDROOT
BRANCH   1  23
ATOM     22  C   UNL     1      -6.287   2.538 -21.773  0.00  0.00    +0.277 C 
ATOM     23  O   UNL     1      -5.788   3.624 -22.139  0.00  0.00    -0.491 OA
ENDBRANCH   1  23
TORSDOF 1
ENDMDL
