MODEL 1
REMARK VINA RESULT:   -11.326      0.000      0.000
REMARK INTER + INTRA:          -7.222
REMARK INTER:                 -14.195
REMARK INTRA:                   6.973
REMARK UNBOUND:                 6.753
REMARK  Name = ZINC000002555121
REMARK  7 active torsions:
REMARK  status: ('A' for Active; 'I' for Inactive)
REMARK    1  A    between atoms: C_1  and  C_2
REMARK    2  A    between atoms: C_2  and  C_3
REMARK    3  A    between atoms: C_16  and  O_17
REMARK    4  A    between atoms: O_17  and  C_18
REMARK    5  A    between atoms: C_21  and  C_22
REMARK    6  A    between atoms: C_22  and  O_24
REMARK    7  A    between atoms: O_24  and  C_25
REMARK                            x       y       z     vdW  Elec       q    Type
REMARK                         _______ _______ _______ _____ _____    ______ ____
ROOT
ATOM      1  C   UNL     1      -4.106   3.213 -21.930  0.00  0.00    +0.039 C 
ATOM      2  C   UNL     1      -5.432   3.394 -22.138  0.00  0.00    +0.017 C 
ATOM      3  C   UNL     1      -5.838   3.761 -23.587  0.00  0.00    +0.037 C 
ATOM      4  C   UNL     1      -4.828   3.713 -23.825  0.00  0.00    +0.135 C 
ATOM      5  N   UNL     1      -4.269   3.456 -22.936  0.00  0.00    +0.239 N 
ATOM      6  H   UNL     1      -5.260   3.502 -22.696  0.00  0.00    +0.204 HD
ATOM      7  C   UNL     1      -4.261   3.347 -22.452  0.00  0.00    +0.136 C 
ATOM      8  C   UNL     1      -2.761   3.129 -22.155  0.00  0.00    +0.088 C 
ATOM      9  C   UNL     1      -1.745   3.306 -23.397  0.00  0.00    -0.013 A 
ATOM     10  C   UNL     1      -2.359   3.641 -24.612  0.00  0.00    +0.043 A 
ATOM     11  C   UNL     1      -3.401   3.680 -24.317  0.00  0.00    +0.150 C 
ATOM     12  N   UNL     1      -1.369   3.750 -25.540  0.00  0.00    -0.357 N 
ATOM     13  H   UNL     1      -1.485   3.976 -26.491  0.00  0.00    +0.166 HD
ATOM     14  C   UNL     1      -0.160   3.484 -24.897  0.00  0.00    +0.047 A 
ATOM     15  C   UNL     1       1.135   3.453 -25.339  0.00  0.00    +0.030 A 
ATOM     16  C   UNL     1       2.149   3.154 -24.466  0.00  0.00    +0.047 A 
ATOM     17  C   UNL     1       1.873   2.886 -23.153  0.00  0.00    +0.121 A 
ATOM     18  C   UNL     1       0.585   2.918 -22.716  0.00  0.00    +0.056 A 
ATOM     19  C   UNL     1      -0.426   3.215 -23.585  0.00  0.00    +0.007 A 
ATOM     20  C   UNL     1      -4.811   3.903 -24.675  0.00  0.00    +0.038 C 
ATOM     21  C   UNL     1      -3.237   3.416 -23.219  0.00  0.00    +0.091 C 
ENDROOT
BRANCH   1  23
ATOM     22  C   UNL     1      -3.115   3.518 -19.861  0.00  0.00    +0.004 C 
ATOM     23  C   UNL     1      -3.848   2.920 -20.743  0.00  0.00    +0.006 C 
ENDBRANCH   1  23
BRANCH  11  24
ATOM     24  C   UNL     1      -3.475   3.925 -25.372  0.00  0.00    +0.324 C 
ATOM     25  O   UNL     1      -3.521   4.979 -25.597  0.00  0.00    -0.250 OA
BRANCH  24  26
ATOM     26  O   UNL     1      -3.508   3.001 -26.317  0.00  0.00    -0.467 OA
ATOM     27  C   UNL     1      -3.615   3.408 -27.599  0.00  0.00    +0.280 C 
ENDBRANCH  24  26
ENDBRANCH  11  24
BRANCH  17  28
ATOM     28  O   UNL     1       2.850   2.583 -22.244  0.00  0.00    -0.495 OA
ATOM     29  C   UNL     1       2.670   1.582 -21.366  0.00  0.00    +0.277 C 
ENDBRANCH  17  28
TORSDOF 4
ENDMDL
