MODEL 1
REMARK VINA RESULT:    -8.677      0.000      0.000
REMARK INTER + INTRA:          -5.927
REMARK INTER:                 -10.167
REMARK INTRA:                   4.240
REMARK UNBOUND:                 4.272
REMARK  Name = ZINC000000753040
REMARK  4 active torsions:
REMARK  status: ('A' for Active; 'I' for Inactive)
REMARK    1  A    between atoms: C_1  and  C_2
REMARK    2  A    between atoms: C_2  and  O_3
REMARK    3  A    between atoms: O_3  and  C_4
REMARK    4  A    between atoms: C_21  and  C_22
REMARK                            x       y       z     vdW  Elec       q    Type
REMARK                         _______ _______ _______ _____ _____    ______ ____
ROOT
ATOM      1  C   UNL     1       4.244   4.839 -22.499  0.00  0.00    +0.026 C 
ATOM      2  C   UNL     1       3.017   4.578 -22.840  0.00  0.00    +0.043 C 
ATOM      3  C   UNL     1       2.255   5.525 -23.300  0.00  0.00    +0.190 C 
ATOM      4  O   UNL     1       1.028   5.264 -23.641  0.00  0.00    -0.441 OA
ATOM      5  C   UNL     1       0.563   4.055 -23.522  0.00  0.00    +0.152 A 
ATOM      6  C   UNL     1       1.327   3.109 -23.061  0.00  0.00    +0.092 A 
ATOM      7  C   UNL     1       0.862   1.900 -22.942  0.00  0.00    +0.345 A 
ATOM      8  O   UNL     1      -0.365   1.639 -23.283  0.00  0.00    -0.422 OA
ATOM      9  C   UNL     1      -1.128   2.586 -23.743  0.00  0.00    +0.143 A 
ATOM     10  C   UNL     1      -2.354   2.324 -24.084  0.00  0.00    +0.047 A 
ATOM     11  C   UNL     1      -3.118   3.271 -24.545  0.00  0.00    +0.004 A 
ATOM     12  C   UNL     1      -2.653   4.480 -24.664  0.00  0.00    +0.001 A 
ATOM     13  C   UNL     1      -1.426   4.740 -24.323  0.00  0.00    +0.015 A 
ATOM     14  O   UNL     1       1.624   0.953 -22.482  0.00  0.00    -0.245 OA
ATOM     15  C   UNL     1      -0.664   3.794 -23.863  0.00  0.00    +0.060 A 
ATOM     16  N   UNL     1       2.719   6.734 -23.420  0.00  0.00    -0.329 N 
ATOM     17  H   UNL     1       2.142   7.451 -23.768  0.00  0.00    +0.145 HD
ATOM     18  H   UNL     1       3.648   6.932 -23.162  0.00  0.00    +0.145 HD
ATOM     19  C   UNL     1       2.552   3.370 -22.721  0.00  0.00    +0.096 C 
ATOM     20  O   UNL     1       5.006   3.893 -22.039  0.00  0.00    -0.800 OA
ENDROOT
BRANCH  19  21
ATOM     21  C   UNL     1       3.316   2.423 -22.260  0.00  0.00    -0.035 A 
ATOM     22  C   UNL     1       3.286   2.122 -20.996  0.00  0.00    +0.005 A 
ATOM     23  C   UNL     1       4.049   1.175 -20.534  0.00  0.00    +0.015 A 
ATOM     24  C   UNL     1       4.841   0.530 -21.338  0.00  0.00    +0.018 A 
ATOM     25  C   UNL     1       4.871   0.831 -22.603  0.00  0.00    +0.015 A 
ATOM     26 BR   UNL     1       5.603  -0.416 -20.878  0.00  0.00    -0.050 Br
ATOM     27  C   UNL     1       4.108   1.778 -23.064  0.00  0.00    +0.005 A 
ENDBRANCH  19  21
BRANCH   1  28
ATOM     28  O   UNL     1       4.709   6.049 -22.618  0.00  0.00    -0.512 OA
BRANCH  28  30
ATOM     29  C   UNL     1       5.994   7.414 -21.372  0.00  0.00    +0.048 C 
ATOM     30  C   UNL     1       5.867   6.352 -22.112  0.00  0.00    +0.223 C 
ENDBRANCH  28  30
ENDBRANCH   1  28
TORSDOF 3
ENDMDL
