MODEL 1
REMARK VINA RESULT:    -8.396      0.000      0.000
REMARK INTER + INTRA:         -13.163
REMARK INTER:                 -11.964
REMARK INTRA:                  -1.200
REMARK UNBOUND:                -0.841
REMARK  Name = ZINC000040935954
REMARK  12 active torsions:
REMARK  status: ('A' for Active; 'I' for Inactive)
REMARK    1  A    between atoms: C_1  and  O_2
REMARK    2  A    between atoms: O_2  and  C_3
REMARK    3  A    between atoms: C_6  and  C_7
REMARK    4  A    between atoms: C_8  and  C_9
REMARK    5  A    between atoms: C_11  and  C_12
REMARK    6  A    between atoms: C_13  and  C_14
REMARK    7  A    between atoms: C_17  and  O_18
REMARK    8  A    between atoms: O_18  and  C_19
REMARK    9  A    between atoms: C_20  and  O_21
REMARK   10  A    between atoms: O_21  and  C_22
REMARK   11  A    between atoms: C_27  and  O_28
REMARK   12  A    between atoms: O_28  and  C_29
REMARK                            x       y       z     vdW  Elec       q    Type
REMARK                         _______ _______ _______ _____ _____    ______ ____
ROOT
ATOM      1  C   UNL     1       1.160   1.489 -22.280  0.00  0.00    +0.086 A 
ATOM      2  C   UNL     1       2.045   2.407 -22.528  0.00  0.00    +0.056 A 
ATOM      3  C   UNL     1       3.218   1.845 -22.525  0.00  0.00    +0.059 A 
ATOM      4  N   UNL     1       3.056   0.579 -22.275  0.00  0.00    -0.277 N 
ATOM      5  H   UNL     1       3.771  -0.094 -22.212  0.00  0.00    +0.189 HD
ATOM      6  N   UNL     1       1.783   0.360 -22.124  0.00  0.00    -0.174 NA
ENDROOT
BRANCH   1   8
ATOM      7  C   UNL     1      -0.630   2.852 -22.401  0.00  0.00    +0.010 C 
ATOM      8  C   UNL     1      -0.127   1.669 -22.202  0.00  0.00    +0.030 C 
BRANCH   7  12
ATOM      9  C   UNL     1      -4.485   3.392 -22.166  0.00  0.00    +0.162 A 
ATOM     10  C   UNL     1      -3.784   3.234 -21.082  0.00  0.00    +0.050 A 
ATOM     11  C   UNL     1      -2.499   3.054 -21.161  0.00  0.00    +0.012 A 
ATOM     12  C   UNL     1      -1.915   3.032 -22.323  0.00  0.00    -0.021 A 
ATOM     13  C   UNL     1      -2.616   3.189 -23.406  0.00  0.00    +0.057 A 
ATOM     14  C   UNL     1      -3.901   3.369 -23.327  0.00  0.00    +0.162 A 
BRANCH   9  16
ATOM     15  C   UNL     1      -6.532   2.631 -21.614  0.00  0.00    +0.277 C 
ATOM     16  O   UNL     1      -5.771   3.572 -22.088  0.00  0.00    -0.491 OA
ENDBRANCH   9  16
BRANCH  14  17
ATOM     17  O   UNL     1      -4.603   3.527 -24.410  0.00  0.00    -0.491 OA
ATOM     18  C   UNL     1      -4.219   4.377 -25.317  0.00  0.00    +0.277 C 
ENDBRANCH  14  17
ENDBRANCH   7  12
ENDBRANCH   1   8
BRANCH   3  19
ATOM     19  C   UNL     1       4.353   2.443 -22.736  0.00  0.00    +0.028 C 
ATOM     20  C   UNL     1       4.393   3.737 -22.851  0.00  0.00    +0.010 C 
BRANCH  20  21
ATOM     21  C   UNL     1       5.527   4.335 -23.061  0.00  0.00    -0.021 A 
ATOM     22  C   UNL     1       6.307   3.931 -24.019  0.00  0.00    +0.012 A 
ATOM     23  C   UNL     1       7.443   4.530 -24.231  0.00  0.00    +0.050 A 
ATOM     24  C   UNL     1       7.797   5.533 -23.483  0.00  0.00    +0.162 A 
ATOM     25  C   UNL     1       7.016   5.937 -22.524  0.00  0.00    +0.162 A 
ATOM     26  C   UNL     1       5.882   5.339 -22.314  0.00  0.00    +0.057 A 
BRANCH  25  27
ATOM     27  O   UNL     1       7.371   6.939 -21.777  0.00  0.00    -0.491 OA
ATOM     28  C   UNL     1       6.758   7.160 -20.651  0.00  0.00    +0.277 C 
ENDBRANCH  25  27
BRANCH  24  29
ATOM     29  O   UNL     1       8.931   6.131 -23.693  0.00  0.00    -0.491 OA
ATOM     30  C   UNL     1       9.062   6.938 -24.705  0.00  0.00    +0.277 C 
ENDBRANCH  24  29
ENDBRANCH  20  21
ENDBRANCH   3  19
TORSDOF 8
ENDMDL
