MODEL 1
REMARK VINA RESULT:   -10.339      0.000      0.000
REMARK INTER + INTRA:         -10.641
REMARK INTER:                 -10.641
REMARK INTRA:                   0.000
REMARK UNBOUND:                 0.000
REMARK  Name = CC1=C2CC[C@](C)(O)[C@@H]2[C@H]2OC(=O)[C@@H](C)[C@@H]2CC1             ZINC000106803354
REMARK  4 active torsions:
REMARK  status: ('A' for Active; 'I' for Inactive)
REMARK    1  A    between atoms: C_1  and  C_2
REMARK    2  A    between atoms: C_6  and  C_7
REMARK    3  A    between atoms: C_6  and  O_8
REMARK    4  A    between atoms: C_14  and  C_15
REMARK                            x       y       z     vdW  Elec       q    Type
REMARK                         _______ _______ _______ _____ _____    ______ ____
ROOT
ATOM      1  C   UNL     1      -5.768   3.391 -22.116  0.00  0.00    +0.039 C 
ATOM      2  C   UNL     1      -4.526   3.130 -22.397  0.00  0.00    -0.073 C 
ATOM      3  C   UNL     1      -4.179   3.301 -23.637  0.00  0.00    -0.061 C 
ATOM      4  C   UNL     1      -5.000   3.705 -24.561  0.00  0.00    +0.034 C 
ATOM      5  C   UNL     1      -4.343   3.771 -25.682  0.00  0.00    +0.039 C 
ATOM      6  C   UNL     1      -3.117   3.408 -25.450  0.00  0.00    +0.073 C 
ATOM      7  C   UNL     1      -2.955   3.632 -26.721  0.00  0.00    +0.042 C 
ATOM      8  C   UNL     1      -3.015   3.117 -24.187  0.00  0.00    +0.087 C 
ATOM      9  C   UNL     1      -1.910   2.717 -23.631  0.00  0.00    +0.190 C 
ATOM     10  O   UNL     1      -0.795   2.566 -24.281  0.00  0.00    -0.460 OA
ATOM     11  C   UNL     1       0.108   2.158 -23.440  0.00  0.00    +0.311 C 
ATOM     12  C   UNL     1      -0.450   2.056 -22.269  0.00  0.00    +0.101 C 
ATOM     13  C   UNL     1       0.138   1.676 -21.174  0.00  0.00    +0.019 C 
ATOM     14  O   UNL     1       1.351   1.897 -23.719  0.00  0.00    -0.251 OA
ATOM     15  C   UNL     1      -1.697   2.402 -22.387  0.00  0.00    +0.044 C 
ATOM     16  C   UNL     1      -2.535   2.409 -21.394  0.00  0.00    +0.012 C 
ATOM     17  C   UNL     1      -3.794   2.733 -21.398  0.00  0.00    +0.031 C 
ENDROOT
BRANCH   6  18
ATOM     18  O   UNL     1      -1.857   3.091 -25.485  0.00  0.00    -0.388 OA
ATOM     19  H   UNL     1      -1.641   2.538 -24.718  0.00  0.00    +0.210 HD
ENDBRANCH   6  18
TORSDOF 1
ENDMDL
