MODEL 1
REMARK VINA RESULT:   -11.015      0.000      0.000
REMARK INTER + INTRA:         -11.781
REMARK INTER:                 -11.660
REMARK INTRA:                  -0.121
REMARK UNBOUND:                -0.122
REMARK  Name = COc1cc(Br)c2c3c1O[C@H]1C4(CC[C@H]5[C@H](C2)N(C)CC[C@@]351)OCCO4      ZINC000100392463
REMARK  3 active torsions:
REMARK  status: ('A' for Active; 'I' for Inactive)
REMARK    1  A    between atoms: C_1  and  O_2
REMARK    2  A    between atoms: O_2  and  C_3
REMARK    3  A    between atoms: N_18  and  C_19
REMARK                            x       y       z     vdW  Elec       q    Type
REMARK                         _______ _______ _______ _____ _____    ______ ____
ROOT
ATOM      1  C   UNL     1       1.132   1.845 -21.945  0.00  0.00    +0.163 A 
ATOM      2  C   UNL     1       1.911   2.036 -22.932  0.00  0.00    +0.065 A 
ATOM      3  C   UNL     1       1.466   2.475 -24.021  0.00  0.00    +0.025 A 
ATOM      4  C   UNL     1       0.240   2.729 -24.138  0.00  0.00    -0.021 A 
ATOM      5  C   UNL     1      -0.556   2.547 -23.171  0.00  0.00    +0.013 A 
ATOM      6  C   UNL     1      -1.781   2.800 -23.289  0.00  0.00    +0.054 C 
ATOM      7  C   UNL     1      -3.191   3.053 -23.310  0.00  0.00    +0.067 C 
ATOM      8  C   UNL     1      -3.723   3.550 -24.528  0.00  0.00    +0.132 C 
ATOM      9  N   UNL     1      -2.822   3.750 -25.604  0.00  0.00    +0.236 N 
ATOM     10  H   UNL     1      -3.142   4.105 -26.505  0.00  0.00    +0.203 HD
ATOM     11  C   UNL     1      -3.212   4.188 -26.716  0.00  0.00    +0.190 C 
ATOM     12  C   UNL     1      -1.447   3.430 -25.365  0.00  0.00    +0.073 C 
ATOM     13  C   UNL     1      -2.228   3.241 -24.382  0.00  0.00    +0.053 C 
ATOM     14  C   UNL     1      -3.468   3.497 -24.500  0.00  0.00    +0.015 C 
ATOM     15  C   UNL     1      -4.248   3.311 -23.531  0.00  0.00    +0.069 C 
ATOM     16  C   UNL     1      -3.802   2.867 -22.427  0.00  0.00    +0.208 C 
ATOM     17  O   UNL     1      -3.470   2.433 -21.295  0.00  0.00    -0.343 OA
ATOM     18  C   UNL     1      -4.504   2.376 -20.581  0.00  0.00    +0.191 C 
ATOM     19  C   UNL     1      -5.474   2.776 -21.273  0.00  0.00    +0.191 C 
ATOM     20  O   UNL     1      -5.042   3.079 -22.413  0.00  0.00    -0.343 OA
ATOM     21  C   UNL     1      -2.578   2.613 -22.308  0.00  0.00    +0.244 C 
ATOM     22  O   UNL     1      -1.461   2.117 -21.401  0.00  0.00    -0.479 OA
ATOM     23  C   UNL     1      -0.221   3.177 -25.247  0.00  0.00    +0.091 C 
ATOM     24 BR   UNL     1       2.243   2.661 -24.990  0.00  0.00    -0.050 Br
ATOM     25  C   UNL     1      -0.109   2.102 -22.068  0.00  0.00    +0.167 A 
ENDROOT
BRANCH   1  27
ATOM     26  C   UNL     1       2.825   1.379 -20.656  0.00  0.00    +0.277 C 
ATOM     27  O   UNL     1       1.584   1.405 -20.858  0.00  0.00    -0.491 OA
ENDBRANCH   1  27
TORSDOF 1
ENDMDL
