MODEL 1
REMARK VINA RESULT:    -9.601      0.000      0.000
REMARK INTER + INTRA:         -10.589
REMARK INTER:                 -10.734
REMARK INTRA:                   0.144
REMARK UNBOUND:                 0.134
REMARK  Name = ZINC000071325812
REMARK  5 active torsions:
REMARK  status: ('A' for Active; 'I' for Inactive)
REMARK    1  A    between atoms: C_1  and  C_2
REMARK    2  A    between atoms: C_2  and  O_4
REMARK    3  A    between atoms: O_4  and  C_5
REMARK    4  A    between atoms: C_15  and  C_16
REMARK    5  A    between atoms: C_21  and  C_22
REMARK                            x       y       z     vdW  Elec       q    Type
REMARK                         _______ _______ _______ _____ _____    ______ ____
ROOT
ATOM      1  C   UNL     1      -2.662   3.660 -23.606  0.00  0.00    +0.203 C 
ATOM      2  C   UNL     1      -1.694   3.594 -23.844  0.00  0.00    +0.054 C 
ATOM      3  C   UNL     1      -1.231   4.055 -24.882  0.00  0.00    +0.046 C 
ATOM      4  C   UNL     1      -0.346   3.774 -24.686  0.00  0.00    +0.037 C 
ATOM      5  C   UNL     1      -0.381   3.190 -23.579  0.00  0.00    +0.032 C 
ATOM      6  C   UNL     1       0.780   2.814 -23.307  0.00  0.00    +0.234 C 
ATOM      7  C   UNL     1       0.999   2.218 -22.272  0.00  0.00    +0.045 A 
ATOM      8  C   UNL     1       2.141   1.821 -21.953  0.00  0.00    -0.005 A 
ATOM      9  C   UNL     1       2.053   1.244 -20.838  0.00  0.00    +0.199 A 
ATOM     10  O   UNL     1       0.853   1.290 -20.474  0.00  0.00    -0.463 OA
ATOM     11  C   UNL     1       3.192   1.973 -22.632  0.00  0.00    +0.047 C 
ATOM     12  C   UNL     1       0.197   1.892 -21.360  0.00  0.00    +0.135 A 
ATOM     13  C   UNL     1      -2.064   2.325 -21.325  0.00  0.00    +0.049 C 
ATOM     14  O   UNL     1       1.535   3.163 -24.245  0.00  0.00    -0.449 OA
ATOM     15  C   UNL     1       0.835   3.758 -25.100  0.00  0.00    +0.336 C 
ATOM     16  O   UNL     1       1.250   4.249 -26.177  0.00  0.00    -0.245 OA
ATOM     17  C   UNL     1      -3.072   3.093 -22.388  0.00  0.00    -0.029 C 
ATOM     18  C   UNL     1      -4.328   3.193 -22.105  0.00  0.00    +0.043 C 
ENDROOT
BRANCH   1  19
ATOM     19  O   UNL     1      -3.341   4.313 -24.578  0.00  0.00    -0.457 OA
BRANCH  19  21
ATOM     20  C   UNL     1      -4.690   3.155 -25.836  0.00  0.00    +0.136 C 
ATOM     21  C   UNL     1      -4.478   4.164 -25.060  0.00  0.00    +0.305 C 
ATOM     22  O   UNL     1      -5.379   4.943 -24.814  0.00  0.00    -0.251 OA
ENDBRANCH  19  21
ENDBRANCH   1  19
TORSDOF 2
ENDMDL
