MODEL 1
REMARK VINA RESULT:    -8.658      0.000      0.000
REMARK INTER + INTRA:          -5.985
REMARK INTER:                 -10.225
REMARK INTRA:                   4.240
REMARK UNBOUND:                 4.192
REMARK  Name = ZINC000000753041
REMARK  4 active torsions:
REMARK  status: ('A' for Active; 'I' for Inactive)
REMARK    1  A    between atoms: C_1  and  C_2
REMARK    2  A    between atoms: C_2  and  O_3
REMARK    3  A    between atoms: O_3  and  C_4
REMARK    4  A    between atoms: C_21  and  C_22
REMARK                            x       y       z     vdW  Elec       q    Type
REMARK                         _______ _______ _______ _____ _____    ______ ____
ROOT
ATOM      1  C   UNL     1       4.236   4.823 -22.494  0.00  0.00    +0.026 C 
ATOM      2  C   UNL     1       3.010   4.560 -22.835  0.00  0.00    +0.043 C 
ATOM      3  C   UNL     1       2.247   5.504 -23.299  0.00  0.00    +0.190 C 
ATOM      4  O   UNL     1       1.020   5.240 -23.640  0.00  0.00    -0.441 OA
ATOM      5  C   UNL     1       0.557   4.031 -23.517  0.00  0.00    +0.152 A 
ATOM      6  C   UNL     1       1.321   3.087 -23.053  0.00  0.00    +0.092 A 
ATOM      7  C   UNL     1       0.858   1.879 -22.929  0.00  0.00    +0.345 A 
ATOM      8  O   UNL     1      -0.368   1.614 -23.270  0.00  0.00    -0.422 OA
ATOM      9  C   UNL     1      -1.133   2.559 -23.735  0.00  0.00    +0.143 A 
ATOM     10  C   UNL     1      -2.358   2.294 -24.075  0.00  0.00    +0.047 A 
ATOM     11  C   UNL     1      -3.122   3.239 -24.539  0.00  0.00    +0.004 A 
ATOM     12  C   UNL     1      -2.659   4.447 -24.663  0.00  0.00    +0.001 A 
ATOM     13  C   UNL     1      -1.433   4.711 -24.322  0.00  0.00    +0.015 A 
ATOM     14  O   UNL     1       1.621   0.934 -22.465  0.00  0.00    -0.245 OA
ATOM     15  C   UNL     1      -0.669   3.767 -23.858  0.00  0.00    +0.060 A 
ATOM     16  N   UNL     1       2.710   6.713 -23.423  0.00  0.00    -0.329 N 
ATOM     17  H   UNL     1       2.132   7.428 -23.774  0.00  0.00    +0.145 HD
ATOM     18  H   UNL     1       3.638   6.913 -23.165  0.00  0.00    +0.145 HD
ATOM     19  C   UNL     1       2.547   3.351 -22.712  0.00  0.00    +0.096 C 
ATOM     20  O   UNL     1       4.999   3.879 -22.031  0.00  0.00    -0.800 OA
ENDROOT
BRANCH  19  21
ATOM     21  C   UNL     1       3.311   2.407 -22.248  0.00  0.00    -0.035 A 
ATOM     22  C   UNL     1       3.273   2.103 -20.984  0.00  0.00    +0.005 A 
ATOM     23  C   UNL     1       4.037   1.159 -20.519  0.00  0.00    +0.015 A 
ATOM     24  C   UNL     1       4.838   0.519 -21.319  0.00  0.00    +0.018 A 
ATOM     25  C   UNL     1       4.875   0.822 -22.582  0.00  0.00    +0.015 A 
ATOM     26 BR   UNL     1       5.601  -0.425 -20.854  0.00  0.00    -0.050 Br
ATOM     27  C   UNL     1       4.112   1.767 -23.047  0.00  0.00    +0.005 A 
ENDBRANCH  19  21
BRANCH   1  28
ATOM     28  O   UNL     1       4.699   6.033 -22.618  0.00  0.00    -0.512 OA
BRANCH  28  30
ATOM     29  C   UNL     1       5.982   7.405 -21.376  0.00  0.00    +0.048 C 
ATOM     30  C   UNL     1       5.856   6.340 -22.111  0.00  0.00    +0.223 C 
ENDBRANCH  28  30
ENDBRANCH   1  28
TORSDOF 3
ENDMDL
