MODEL 1
REMARK VINA RESULT:    -7.282      0.000      0.000
REMARK INTER + INTRA:          -7.980
REMARK INTER:                  -8.071
REMARK INTRA:                   0.091
REMARK UNBOUND:                 0.153
REMARK  Name = ZINC000000058039
REMARK  4 active torsions:
REMARK  status: ('A' for Active; 'I' for Inactive)
REMARK    1  A    between atoms: C_1  and  O_2
REMARK    2  A    between atoms: O_2  and  C_3
REMARK    3  A    between atoms: C_13  and  O_14
REMARK    4  A    between atoms: O_14  and  C_15
REMARK                            x       y       z     vdW  Elec       q    Type
REMARK                         _______ _______ _______ _____ _____    ______ ____
ROOT
ATOM      1  C   UNL     1      -0.832   2.050 -22.648  0.00  0.00    +0.165 A 
ATOM      2  C   UNL     1      -1.443   1.857 -21.517  0.00  0.00    +0.050 A 
ATOM      3  C   UNL     1      -2.675   2.243 -21.370  0.00  0.00    +0.015 A 
ATOM      4  C   UNL     1      -3.297   2.822 -22.353  0.00  0.00    +0.022 A 
ATOM      5  C   UNL     1      -4.530   3.209 -22.206  0.00  0.00    +0.018 A 
ATOM      6  C   UNL     1      -5.151   3.789 -23.190  0.00  0.00    +0.092 A 
ATOM      7  C   UNL     1      -4.539   3.982 -24.321  0.00  0.00    +0.337 A 
ATOM      8  O   UNL     1      -3.306   3.595 -24.467  0.00  0.00    -0.418 OA
ATOM      9  O   UNL     1      -5.160   4.561 -25.305  0.00  0.00    -0.245 OA
ATOM     10  C   UNL     1      -2.685   3.016 -23.484  0.00  0.00    +0.184 A 
ATOM     11  C   UNL     1      -1.453   2.630 -23.631  0.00  0.00    +0.205 A 
ENDROOT
BRANCH   1  13
ATOM     12  C   UNL     1       1.179   1.565 -21.758  0.00  0.00    +0.277 C 
ATOM     13  O   UNL     1       0.401   1.663 -22.794  0.00  0.00    -0.491 OA
ENDBRANCH   1  13
BRANCH  11  14
ATOM     14  O   UNL     1      -0.842   2.823 -24.762  0.00  0.00    -0.488 OA
ATOM     15  C   UNL     1      -0.091   3.871 -24.924  0.00  0.00    +0.277 C 
ENDBRANCH  11  14
TORSDOF 2
ENDMDL
