MODEL 1
REMARK VINA RESULT:   -12.747      0.000      0.000
REMARK INTER + INTRA:         -13.120
REMARK INTER:                 -13.120
REMARK INTRA:                   0.000
REMARK UNBOUND:                 0.000
REMARK  Name = ZINC000004104647
REMARK  4 active torsions:
REMARK  status: ('A' for Active; 'I' for Inactive)
REMARK    1  A    between atoms: C_1  and  C_2
REMARK    2  A    between atoms: C_2  and  O_3
REMARK    3  A    between atoms: C_17  and  C_18
REMARK    4  A    between atoms: C_22  and  C_23
REMARK                            x       y       z     vdW  Elec       q    Type
REMARK                         _______ _______ _______ _____ _____    ______ ____
ROOT
ATOM      1  C   UNL     1      -5.175   4.081 -24.096  0.00  0.00    +0.042 C 
ATOM      2  C   UNL     1      -4.943   3.530 -22.945  0.00  0.00    +0.069 C 
ATOM      3  C   UNL     1      -5.034   3.033 -21.745  0.00  0.00    +0.035 C 
ATOM      4  C   UNL     1      -3.854   2.610 -21.391  0.00  0.00    +0.007 C 
ATOM      5  C   UNL     1      -3.032   2.846 -22.374  0.00  0.00    +0.002 C 
ATOM      6  C   UNL     1      -1.762   2.617 -22.519  0.00  0.00    +0.004 C 
ATOM      7  C   UNL     1      -1.088   2.048 -21.559  0.00  0.00    +0.083 C 
ATOM      8  C   UNL     1       0.184   1.821 -21.708  0.00  0.00    +0.160 C 
ATOM      9  C   UNL     1       0.785   2.161 -22.812  0.00  0.00    +0.004 C 
ATOM     10  C   UNL     1       2.056   1.933 -22.959  0.00  0.00    +0.053 C 
ATOM     11  C   UNL     1       2.658   2.272 -24.064  0.00  0.00    +0.157 C 
ATOM     12  C   UNL     1       1.981   2.841 -25.021  0.00  0.00    +0.080 C 
ATOM     13  C   UNL     1       0.709   3.069 -24.874  0.00  0.00    +0.019 C 
ATOM     14  O   UNL     1       3.929   2.045 -24.211  0.00  0.00    -0.293 OA
ATOM     15  C   UNL     1       0.109   2.729 -23.769  0.00  0.00    -0.000 C 
ATOM     16  C   UNL     1      -0.565   3.297 -24.726  0.00  0.00    +0.016 C 
ATOM     17  O   UNL     1       0.860   1.253 -20.750  0.00  0.00    -0.292 OA
ATOM     18  C   UNL     1      -1.164   2.957 -23.621  0.00  0.00    +0.003 C 
ATOM     19  C   UNL     1      -1.838   3.524 -24.578  0.00  0.00    +0.005 C 
ATOM     20  C   UNL     1      -3.106   3.754 -24.437  0.00  0.00    +0.010 C 
ATOM     21  C   UNL     1      -3.701   3.414 -23.335  0.00  0.00    -0.000 C 
ATOM     22  C   UNL     1      -4.416   3.964 -24.229  0.00  0.00    +0.014 C 
ENDROOT
BRANCH   2  23
ATOM     23  O   UNL     1      -6.214   3.746 -22.771  0.00  0.00    -0.388 OA
ATOM     24  H   UNL     1      -6.476   3.446 -21.887  0.00  0.00    +0.210 HD
ENDBRANCH   2  23
TORSDOF 1
ENDMDL
