MODEL 1
REMARK VINA RESULT:    -8.326      0.000      0.000
REMARK INTER + INTRA:          -9.031
REMARK INTER:                  -9.255
REMARK INTRA:                   0.223
REMARK UNBOUND:                 0.268
REMARK  Name = ZINC000000199415
REMARK  4 active torsions:
REMARK  status: ('A' for Active; 'I' for Inactive)
REMARK    1  A    between atoms: C_1  and  O_2
REMARK    2  A    between atoms: O_2  and  C_3
REMARK    3  A    between atoms: C_11  and  O_12
REMARK    4  A    between atoms: O_12  and  C_13
REMARK                            x       y       z     vdW  Elec       q    Type
REMARK                         _______ _______ _______ _____ _____    ______ ____
ROOT
ATOM      1  C   UNL     1      -2.614   2.645 -21.965  0.00  0.00    +0.142 A 
ATOM      2  C   UNL     1      -1.392   2.213 -22.068  0.00  0.00    +0.082 A 
ATOM      3  C   UNL     1      -0.557   1.747 -21.188  0.00  0.00    +0.055 A 
ATOM      4  C   UNL     1       0.549   1.449 -21.803  0.00  0.00    +0.198 A 
ATOM      5  O   UNL     1       0.398   1.730 -23.063  0.00  0.00    -0.445 OA
ATOM      6  C   UNL     1      -0.802   2.203 -23.227  0.00  0.00    +0.231 A 
ATOM      7  N   UNL     1      -1.434   2.625 -24.282  0.00  0.00    -0.208 NA
ATOM      8  C   UNL     1      -2.656   3.057 -24.178  0.00  0.00    +0.120 A 
ATOM      9  C   UNL     1      -3.287   3.479 -25.233  0.00  0.00    +0.146 A 
ATOM     10  C   UNL     1      -4.509   3.912 -25.130  0.00  0.00    +0.048 A 
ATOM     11  C   UNL     1      -5.099   3.922 -23.971  0.00  0.00    +0.004 A 
ATOM     12  C   UNL     1      -4.467   3.500 -22.916  0.00  0.00    +0.014 A 
ATOM     13  C   UNL     1      -3.245   3.067 -23.020  0.00  0.00    +0.046 A 
ENDROOT
BRANCH   1  15
ATOM     14  C   UNL     1      -3.075   3.683 -20.020  0.00  0.00    +0.277 C 
ATOM     15  O   UNL     1      -3.203   2.656 -20.806  0.00  0.00    -0.494 OA
ENDBRANCH   1  15
BRANCH   9  16
ATOM     16  O   UNL     1      -2.698   3.469 -26.392  0.00  0.00    -0.493 OA
ATOM     17  C   UNL     1      -3.405   3.501 -27.482  0.00  0.00    +0.277 C 
ENDBRANCH   9  16
TORSDOF 2
ENDMDL
