MODEL 1
REMARK VINA RESULT:    -8.812      0.000      0.000
REMARK INTER + INTRA:         -11.258
REMARK INTER:                 -11.153
REMARK INTRA:                  -0.105
REMARK UNBOUND:                -0.128
REMARK  Name = ZINC000036383807
REMARK  8 active torsions:
REMARK  status: ('A' for Active; 'I' for Inactive)
REMARK    1  A    between atoms: C_1  and  O_2
REMARK    2  A    between atoms: O_2  and  C_3
REMARK    3  A    between atoms: C_4  and  O_5
REMARK    4  A    between atoms: C_9  and  O_10
REMARK    5  A    between atoms: C_13  and  C_14
REMARK    6  A    between atoms: C_14  and  O_15
REMARK    7  A    between atoms: C_16  and  O_17
REMARK    8  A    between atoms: C_18  and  O_19
REMARK                            x       y       z     vdW  Elec       q    Type
REMARK                         _______ _______ _______ _____ _____    ______ ____
ROOT
ATOM      1  C   UNL     1      -2.724   3.761 -25.189  0.00  0.00    +0.203 A 
ATOM      2  C   UNL     1      -3.685   3.926 -24.329  0.00  0.00    +0.163 A 
ATOM      3  C   UNL     1      -3.509   3.587 -23.086  0.00  0.00    +0.064 A 
ATOM      4  C   UNL     1      -2.374   3.082 -22.704  0.00  0.00    +0.072 A 
ATOM      5  C   UNL     1      -1.414   2.917 -23.564  0.00  0.00    +0.044 A 
ATOM      6  C   UNL     1      -0.278   2.412 -23.182  0.00  0.00    +0.196 C 
ATOM      7  O   UNL     1       0.682   2.246 -24.043  0.00  0.00    -0.360 OA
ATOM      8  C   UNL     1       1.817   1.742 -23.661  0.00  0.00    +0.175 C 
ATOM      9  C   UNL     1       1.993   1.402 -22.418  0.00  0.00    +0.178 C 
ATOM     10  C   UNL     1       1.032   1.568 -21.558  0.00  0.00    +0.189 C 
ATOM     11  C   UNL     1      -0.103   2.073 -21.940  0.00  0.00    +0.241 C 
ATOM     12  O   UNL     1      -1.064   2.238 -21.079  0.00  0.00    -0.452 OA
ATOM     13  C   UNL     1      -2.199   2.743 -21.461  0.00  0.00    +0.340 C 
ATOM     14  O   UNL     1      -3.159   2.909 -20.601  0.00  0.00    -0.245 OA
ATOM     15  C   UNL     1      -1.589   3.256 -24.807  0.00  0.00    +0.169 A 
ENDROOT
BRANCH   1  17
ATOM     16  C   UNL     1      -3.507   3.290 -27.247  0.00  0.00    +0.277 C 
ATOM     17  O   UNL     1      -2.899   4.100 -26.432  0.00  0.00    -0.489 OA
ENDBRANCH   1  17
BRANCH  10  18
ATOM     18  O   UNL     1       1.207   1.229 -20.315  0.00  0.00    -0.385 OA
ATOM     19  H   UNL     1       1.366   2.024 -19.783  0.00  0.00    +0.210 HD
ENDBRANCH  10  18
BRANCH   9  20
ATOM     20  O   UNL     1       3.128   0.897 -22.036  0.00  0.00    -0.386 OA
ATOM     21  H   UNL     1       3.807   1.088 -22.702  0.00  0.00    +0.210 HD
ENDBRANCH   9  20
BRANCH  15  22
ATOM     22  O   UNL     1      -0.628   3.090 -25.668  0.00  0.00    -0.503 OA
ATOM     23  H   UNL     1       0.168   3.578 -25.582  0.00  0.00    +0.292 HD
ENDBRANCH  15  22
BRANCH   2  24
ATOM     24  O   UNL     1      -4.820   4.431 -24.711  0.00  0.00    -0.503 OA
ATOM     25  H   UNL     1      -4.834   5.173 -25.283  0.00  0.00    +0.292 HD
ENDBRANCH   2  24
BRANCH   8  26
ATOM     26  C   UNL     1       2.777   1.576 -24.521  0.00  0.00    +0.190 C 
BRANCH  26  27
ATOM     27  O   UNL     1       3.054   0.386 -24.966  0.00  0.00    -0.392 OA
ATOM     28  H   UNL     1       2.517   0.201 -25.752  0.00  0.00    +0.210 HD
ENDBRANCH  26  27
ENDBRANCH   8  26
TORSDOF 7
ENDMDL
