MODEL 1
REMARK VINA RESULT:    -7.384      0.000      0.000
REMARK INTER + INTRA:          -8.566
REMARK INTER:                  -7.447
REMARK INTRA:                  -1.119
REMARK UNBOUND:                -0.534
REMARK  Name = ZINC000003861465
REMARK  3 active torsions:
REMARK  status: ('A' for Active; 'I' for Inactive)
REMARK    1  A    between atoms: C_2  and  C_4
REMARK    2  A    between atoms: C_9  and  C_10
REMARK    3  A    between atoms: C_22  and  O_23
REMARK                            x       y       z     vdW  Elec       q    Type
REMARK                         _______ _______ _______ _____ _____    ______ ____
ROOT
ATOM      1  C   UNL     1       5.047   5.327 -22.916  0.00  0.00    +0.004 A 
ATOM      2  C   UNL     1       3.843   4.955 -23.203  0.00  0.00    +0.027 A 
ATOM      3  C   UNL     1       3.643   3.882 -23.855  0.00  0.00    +0.036 A 
ATOM      4  C   UNL     1       2.453   3.521 -24.136  0.00  0.00    +0.088 A 
ATOM      5  C   UNL     1       1.463   4.231 -23.765  0.00  0.00    +0.201 A 
ATOM      6  C   UNL     1       1.667   5.305 -23.112  0.00  0.00    +0.099 A 
ATOM      7  O   UNL     1       0.273   3.868 -24.046  0.00  0.00    -0.286 OA
ATOM      8 CL   UNL     1       2.251   2.442 -24.791  0.00  0.00    -0.080 Cl
ATOM      9  C   UNL     1       2.855   5.670 -22.830  0.00  0.00    +0.140 A 
ATOM     10  O   UNL     1       3.048   6.748 -22.175  0.00  0.00    -0.455 OA
ATOM     11  C   UNL     1       4.237   7.120 -21.889  0.00  0.00    +0.140 A 
ATOM     12  C   UNL     1       4.421   8.201 -21.233  0.00  0.00    +0.093 A 
ATOM     13  C   UNL     1       5.609   8.575 -20.944  0.00  0.00    +0.139 A 
ATOM     14  C   UNL     1       6.611   7.871 -21.311  0.00  0.00    +0.083 A 
ATOM     15  C   UNL     1       6.422   6.791 -21.966  0.00  0.00    +0.035 A 
ATOM     16 CL   UNL     1       7.795   8.247 -21.022  0.00  0.00    -0.080 Cl
ATOM     17  C   UNL     1       5.236   6.412 -22.257  0.00  0.00    +0.027 A 
ENDROOT
BRANCH   1  23
ATOM     18  C   UNL     1       6.988   3.170 -22.831  0.00  0.00    +0.005 A 
ATOM     19  C   UNL     1       7.994   2.467 -23.194  0.00  0.00    +0.010 A 
ATOM     20  C   UNL     1       8.665   2.806 -24.227  0.00  0.00    +0.001 A 
ATOM     21  C   UNL     1       8.334   3.842 -24.897  0.00  0.00    +0.001 A 
ATOM     22  C   UNL     1       7.327   4.542 -24.529  0.00  0.00    +0.009 A 
ATOM     23  C   UNL     1       6.652   4.208 -23.497  0.00  0.00    -0.008 A 
BRANCH  18  25
ATOM     24  O   UNL     1       5.549   1.908 -21.922  0.00  0.00    -0.545 OA
ATOM     25  C   UNL     1       6.346   2.841 -21.837  0.00  0.00    +0.072 C 
ATOM     26  O   UNL     1       6.502   3.458 -20.731  0.00  0.00    -0.545 OA
ENDBRANCH  18  25
ENDBRANCH   1  23
BRANCH  13  27
ATOM     27  O   UNL     1       5.795   9.657 -20.288  0.00  0.00    -0.505 OA
ATOM     28  H   UNL     1       6.328  10.338 -20.648  0.00  0.00    +0.292 HD
ENDBRANCH  13  27
TORSDOF 3
ENDMDL
