MODEL 1
REMARK VINA RESULT:    -7.602      0.000      0.000
REMARK INTER + INTRA:         -10.539
REMARK INTER:                 -10.073
REMARK INTRA:                  -0.465
REMARK UNBOUND:                -0.715
REMARK  Name = O=C1c2cc3c(cc2[C@@H]2C[C@H](OCc4ccccc4)CC[C@@H]2N1Cc1ccccc1)OCO3     ZINC000247798830
REMARK  5 active torsions:
REMARK  status: ('A' for Active; 'I' for Inactive)
REMARK    1  A    between atoms: C_11  and  O_12
REMARK    2  A    between atoms: O_12  and  C_13
REMARK    3  A    between atoms: C_13  and  C_14
REMARK    4  A    between atoms: N_23  and  C_24
REMARK    5  A    between atoms: C_24  and  C_25
REMARK                            x       y       z     vdW  Elec       q    Type
REMARK                         _______ _______ _______ _____ _____    ______ ____
ROOT
ATOM      1  O   UNL     1       5.047   2.362 -23.812  0.00  0.00    -0.270 OA
ATOM      2  C   UNL     1       4.723   3.554 -23.406  0.00  0.00    +0.248 C 
ATOM      3  C   UNL     1       3.486   3.949 -23.472  0.00  0.00    +0.044 A 
ATOM      4  C   UNL     1       2.574   3.152 -23.944  0.00  0.00    +0.063 A 
ATOM      5  C   UNL     1       1.338   3.547 -24.011  0.00  0.00    +0.167 A 
ATOM      6  C   UNL     1       1.013   4.740 -23.605  0.00  0.00    +0.167 A 
ATOM      7  O   UNL     1      -0.267   4.887 -23.775  0.00  0.00    -0.453 OA
ATOM      8  C   UNL     1      -0.735   3.787 -24.286  0.00  0.00    +0.466 C 
ATOM      9  C   UNL     1       1.925   5.535 -23.133  0.00  0.00    +0.054 A 
ATOM     10  O   UNL     1       0.257   2.958 -24.432  0.00  0.00    -0.453 OA
ATOM     11  C   UNL     1       3.162   5.141 -23.066  0.00  0.00    -0.027 A 
ATOM     12  C   UNL     1       4.075   5.937 -22.594  0.00  0.00    +0.043 C 
ATOM     13  C   UNL     1       3.749   7.129 -22.188  0.00  0.00    +0.041 C 
ATOM     14  C   UNL     1       4.662   7.925 -21.716  0.00  0.00    +0.119 C 
ATOM     15  C   UNL     1       5.899   7.531 -21.649  0.00  0.00    +0.033 C 
ATOM     16  C   UNL     1       6.224   6.338 -22.055  0.00  0.00    +0.025 C 
ATOM     17  C   UNL     1       5.311   5.542 -22.528  0.00  0.00    +0.084 C 
ATOM     18  N   UNL     1       5.635   4.351 -22.934  0.00  0.00    -0.290 N 
ENDROOT
BRANCH  14  19
ATOM     19  O   UNL     1       4.338   9.117 -21.310  0.00  0.00    -0.372 OA
BRANCH  19  20
ATOM     20  C   UNL     1       4.254  10.094 -22.163  0.00  0.00    +0.195 C 
BRANCH  20  21
ATOM     21  C   UNL     1       3.680  11.209 -21.820  0.00  0.00    -0.022 A 
ATOM     22  C   UNL     1       3.696  11.593 -20.578  0.00  0.00    +0.006 A 
ATOM     23  C   UNL     1       3.122  12.709 -20.236  0.00  0.00    +0.000 A 
ATOM     24  C   UNL     1       2.532  13.439 -21.136  0.00  0.00    +0.000 A 
ATOM     25  C   UNL     1       2.517  13.055 -22.378  0.00  0.00    +0.000 A 
ATOM     26  C   UNL     1       3.091  11.939 -22.720  0.00  0.00    +0.006 A 
ENDBRANCH  20  21
ENDBRANCH  19  20
ENDBRANCH  14  19
BRANCH  18  27
ATOM     27  C   UNL     1       6.872   3.955 -22.868  0.00  0.00    +0.143 C 
BRANCH  27  28
ATOM     28  C   UNL     1       7.602   3.920 -23.942  0.00  0.00    -0.030 A 
ATOM     29  C   UNL     1       7.633   4.946 -24.740  0.00  0.00    +0.005 A 
ATOM     30  C   UNL     1       8.364   4.910 -25.815  0.00  0.00    +0.000 A 
ATOM     31  C   UNL     1       9.062   3.850 -26.092  0.00  0.00    +0.000 A 
ATOM     32  C   UNL     1       9.031   2.824 -25.294  0.00  0.00    +0.000 A 
ATOM     33  C   UNL     1       8.300   2.859 -24.219  0.00  0.00    +0.005 A 
ENDBRANCH  27  28
ENDBRANCH  18  27
TORSDOF 5
ENDMDL
