MODEL 1
REMARK VINA RESULT:    -8.023      0.000      0.000
REMARK INTER + INTRA:         -11.117
REMARK INTER:                 -10.889
REMARK INTRA:                  -0.228
REMARK UNBOUND:                -0.046
REMARK  Name = ZINC000000338232
REMARK  11 active torsions:
REMARK  status: ('A' for Active; 'I' for Inactive)
REMARK    1  A    between atoms: C_1  and  O_2
REMARK    2  A    between atoms: O_2  and  C_3
REMARK    3  A    between atoms: C_5  and  O_6
REMARK    4  A    between atoms: O_6  and  C_7
REMARK    5  A    between atoms: C_15  and  C_16
REMARK    6  A    between atoms: C_16  and  C_17
REMARK    7  A    between atoms: C_17  and  O_18
REMARK    8  A    between atoms: C_17  and  C_19
REMARK    9  A    between atoms: C_19  and  C_20
REMARK   10  A    between atoms: C_19  and  C_21
REMARK   11  A    between atoms: C_19  and  O_22
REMARK                            x       y       z     vdW  Elec       q    Type
REMARK                         _______ _______ _______ _____ _____    ______ ____
ROOT
ATOM      1  C   UNL     1      -0.989   2.801 -22.503  0.00  0.00    +0.130 A 
ATOM      2  C   UNL     1      -2.106   3.014 -21.871  0.00  0.00    +0.092 A 
ATOM      3  C   UNL     1      -3.186   3.293 -22.537  0.00  0.00    +0.134 A 
ATOM      4  C   UNL     1      -3.153   3.360 -23.834  0.00  0.00    +0.060 A 
ATOM      5  C   UNL     1      -4.234   3.639 -24.499  0.00  0.00    +0.022 A 
ATOM      6  C   UNL     1      -4.200   3.706 -25.797  0.00  0.00    +0.093 A 
ATOM      7  C   UNL     1      -3.084   3.493 -26.430  0.00  0.00    +0.337 A 
ATOM      8  O   UNL     1      -2.003   3.214 -25.764  0.00  0.00    -0.422 OA
ATOM      9  O   UNL     1      -3.050   3.560 -27.727  0.00  0.00    -0.245 OA
ATOM     10  C   UNL     1      -2.036   3.147 -24.467  0.00  0.00    +0.149 A 
ATOM     11  C   UNL     1      -0.955   2.868 -23.802  0.00  0.00    +0.040 A 
ENDROOT
BRANCH   3  12
ATOM     12  O   UNL     1      -4.302   3.506 -21.904  0.00  0.00    -0.494 OA
ATOM     13  C   UNL     1      -4.769   2.608 -21.087  0.00  0.00    +0.277 C 
ENDBRANCH   3  12
BRANCH   1  15
ATOM     14  C   UNL     1       0.110   1.509 -21.023  0.00  0.00    +0.277 C 
ATOM     15  O   UNL     1       0.092   2.521 -21.838  0.00  0.00    -0.495 OA
ENDBRANCH   1  15
BRANCH  11  16
ATOM     16  C   UNL     1       0.160   2.655 -24.435  0.00  0.00    +0.076 C 
BRANCH  16  17
ATOM     17  C   UNL     1       0.865   3.659 -24.864  0.00  0.00    +0.150 C 
BRANCH  17  18
ATOM     18  C   UNL     1       1.735   4.224 -24.080  0.00  0.00    +0.087 C 
ATOM     19  C   UNL     1       2.784   3.564 -23.689  0.00  0.00    +0.043 C 
ATOM     20  C   UNL     1       2.134   5.259 -23.401  0.00  0.00    +0.043 C 
BRANCH  18  21
ATOM     21  O   UNL     1       1.025   5.314 -24.079  0.00  0.00    -0.387 OA
ATOM     22  H   UNL     1       0.561   5.399 -24.926  0.00  0.00    +0.210 HD
ENDBRANCH  18  21
ENDBRANCH  17  18
BRANCH  17  23
ATOM     23  O   UNL     1       0.700   4.098 -26.076  0.00  0.00    -0.389 OA
ATOM     24  H   UNL     1       0.555   3.348 -26.674  0.00  0.00    +0.210 HD
ENDBRANCH  17  23
ENDBRANCH  16  17
ENDBRANCH  11  16
TORSDOF 7
ENDMDL
