MODEL 1
REMARK VINA RESULT:   -10.819      0.000      0.000
REMARK INTER + INTRA:         -11.549
REMARK INTER:                 -11.449
REMARK INTRA:                  -0.099
REMARK UNBOUND:                -0.098
REMARK  Name = COc1ccc2c(c1)[C@@]13CCN(C)[C@@H](C2)[C@@H]1[C@H](C)CC(=O)C3          ZINC000253504364
REMARK  4 active torsions:
REMARK  status: ('A' for Active; 'I' for Inactive)
REMARK    1  A    between atoms: C_1  and  O_2
REMARK    2  A    between atoms: O_2  and  C_3
REMARK    3  A    between atoms: N_12  and  C_13
REMARK    4  A    between atoms: C_17  and  C_18
REMARK                            x       y       z     vdW  Elec       q    Type
REMARK                         _______ _______ _______ _____ _____    ______ ____
ROOT
ATOM      1  C   UNL     1       0.166   3.839 -23.929  0.00  0.00    +0.120 A 
ATOM      2  C   UNL     1      -0.060   3.778 -25.176  0.00  0.00    +0.046 A 
ATOM      3  C   UNL     1      -1.256   3.656 -25.572  0.00  0.00    +0.008 A 
ATOM      4  C   UNL     1      -2.339   3.589 -24.579  0.00  0.00    -0.038 A 
ATOM      5  C   UNL     1      -2.075   3.647 -23.554  0.00  0.00    -0.033 A 
ATOM      6  C   UNL     1      -2.607   3.624 -22.766  0.00  0.00    +0.016 C 
ATOM      7  C   UNL     1      -1.502   3.683 -24.036  0.00  0.00    +0.063 C 
ATOM      8  C   UNL     1      -1.993   3.594 -25.422  0.00  0.00    +0.132 C 
ATOM      9  N   UNL     1      -3.147   3.482 -25.618  0.00  0.00    +0.236 N 
ATOM     10  H   UNL     1      -4.149   3.396 -25.448  0.00  0.00    +0.203 HD
ATOM     11  C   UNL     1      -4.203   3.424 -24.437  0.00  0.00    +0.073 C 
ATOM     12  C   UNL     1      -2.953   3.455 -27.005  0.00  0.00    +0.190 C 
ATOM     13  C   UNL     1      -2.303   3.691 -21.547  0.00  0.00    +0.086 C 
ATOM     14  C   UNL     1      -3.233   3.635 -20.644  0.00  0.00    +0.134 C 
ATOM     15  O   UNL     1      -2.917   3.704 -19.401  0.00  0.00    -0.297 OA
ATOM     16  C   UNL     1      -4.499   3.509 -20.985  0.00  0.00    +0.078 C 
ATOM     17  C   UNL     1      -4.858   3.436 -22.228  0.00  0.00    +0.002 C 
ATOM     18  C   UNL     1      -6.099   3.313 -22.542  0.00  0.00    +0.008 C 
ATOM     19  C   UNL     1      -3.982   3.487 -23.133  0.00  0.00    +0.052 C 
ATOM     20  C   UNL     1      -3.536   3.467 -24.985  0.00  0.00    +0.090 C 
ATOM     21  C   UNL     1      -0.829   3.775 -23.108  0.00  0.00    +0.050 A 
ENDROOT
BRANCH   1  23
ATOM     22  C   UNL     1       2.307   4.780 -23.284  0.00  0.00    +0.277 C 
ATOM     23  O   UNL     1       1.345   3.970 -23.194  0.00  0.00    -0.495 OA
ENDBRANCH   1  23
TORSDOF 1
ENDMDL
