MODEL 1
REMARK VINA RESULT:   -11.209      0.000      0.000
REMARK INTER + INTRA:         -12.012
REMARK INTER:                 -11.862
REMARK INTRA:                  -0.150
REMARK UNBOUND:                -0.148
REMARK  Name = COc1ccc2c3c1O[C@@]1(C)C(=O)C=C[C@H]4[C@@H](C2)N(C)CC[C@@]341         ZINC000253504788
REMARK  4 active torsions:
REMARK  status: ('A' for Active; 'I' for Inactive)
REMARK    1  A    between atoms: C_1  and  O_2
REMARK    2  A    between atoms: O_2  and  C_3
REMARK    3  A    between atoms: C_10  and  C_11
REMARK    4  A    between atoms: N_19  and  C_20
REMARK                            x       y       z     vdW  Elec       q    Type
REMARK                         _______ _______ _______ _____ _____    ______ ____
ROOT
ATOM      1  C   UNL     1       0.805   2.220 -23.216  0.00  0.00    +0.162 A 
ATOM      2  C   UNL     1       0.775   1.879 -21.999  0.00  0.00    +0.050 A 
ATOM      3  C   UNL     1      -0.297   1.921 -21.353  0.00  0.00    +0.008 A 
ATOM      4  C   UNL     1      -1.351   2.305 -21.916  0.00  0.00    -0.034 A 
ATOM      5  C   UNL     1      -1.340   2.649 -23.128  0.00  0.00    +0.013 A 
ATOM      6  C   UNL     1      -2.391   3.032 -23.688  0.00  0.00    +0.062 C 
ATOM      7  C   UNL     1      -3.522   3.483 -24.428  0.00  0.00    +0.067 C 
ATOM      8  C   UNL     1      -4.746   3.541 -23.726  0.00  0.00    +0.132 C 
ATOM      9  N   UNL     1      -4.740   3.153 -22.371  0.00  0.00    +0.236 N 
ATOM     10  H   UNL     1      -5.596   3.175 -21.814  0.00  0.00    +0.203 HD
ATOM     11  C   UNL     1      -5.782   3.176 -21.677  0.00  0.00    +0.190 C 
ATOM     12  C   UNL     1      -3.491   2.733 -21.826  0.00  0.00    +0.076 C 
ATOM     13  C   UNL     1      -3.465   3.075 -23.045  0.00  0.00    +0.076 C 
ATOM     14  C   UNL     1      -4.526   3.462 -23.611  0.00  0.00    -0.013 C 
ATOM     15  C   UNL     1      -4.507   3.802 -24.816  0.00  0.00    +0.046 C 
ATOM     16  C   UNL     1      -3.427   3.761 -25.472  0.00  0.00    +0.200 C 
ATOM     17  O   UNL     1      -3.410   4.102 -26.677  0.00  0.00    -0.288 OA
ATOM     18  C   UNL     1      -2.375   3.378 -24.913  0.00  0.00    +0.180 C 
ATOM     19  C   UNL     1      -2.070   3.652 -26.096  0.00  0.00    +0.065 C 
ATOM     20  O   UNL     1      -0.897   3.104 -25.049  0.00  0.00    -0.473 OA
ATOM     21  C   UNL     1      -2.443   2.350 -21.263  0.00  0.00    +0.090 C 
ATOM     22  C   UNL     1      -0.261   2.608 -23.783  0.00  0.00    +0.167 A 
ENDROOT
BRANCH   1  24
ATOM     23  C   UNL     1       2.552   3.216 -24.027  0.00  0.00    +0.277 C 
ATOM     24  O   UNL     1       1.879   2.176 -23.857  0.00  0.00    -0.491 OA
ENDBRANCH   1  24
TORSDOF 1
ENDMDL
