MODEL 1
REMARK VINA RESULT:    -9.005      0.000      0.000
REMARK INTER + INTRA:         -15.092
REMARK INTER:                 -13.515
REMARK INTRA:                  -1.576
REMARK UNBOUND:                -1.348
REMARK  Name = ZINC000002048921
REMARK  10 active torsions:
REMARK  status: ('A' for Active; 'I' for Inactive)
REMARK    1  A    between atoms: C_1  and  C_2
REMARK    2  A    between atoms: C_2  and  C_3
REMARK    3  A    between atoms: C_3  and  C_4
REMARK    4  A    between atoms: C_4  and  C_5
REMARK    5  A    between atoms: C_5  and  C_6
REMARK    6  A    between atoms: C_6  and  C_7
REMARK    7  A    between atoms: C_7  and  C_8
REMARK    8  A    between atoms: C_8  and  C_9
REMARK    9  A    between atoms: C_9  and  N_10
REMARK   10  A    between atoms: CA_20  and  C_21
REMARK                            x       y       z     vdW  Elec       q    Type
REMARK                         _______ _______ _______ _____ _____    ______ ____
ROOT
ATOM      1  N   UNL     1      -0.368   2.295 -22.227  0.00  0.00    -0.339 N 
ATOM      2  C   UNL     1       0.789   2.008 -21.709  0.00  0.00    +0.068 A 
ATOM      3  C   UNL     1       1.709   2.350 -22.559  0.00  0.00    -0.008 A 
ATOM      4  C   UNL     1       2.961   2.164 -22.275  0.00  0.00    +0.098 C 
ATOM      5  CA  UNL     1       3.300   1.634 -21.135  0.00  0.00    +0.114 C 
ATOM      6  N   UNL     1       2.380   1.291 -20.284  0.00  0.00    +0.238 N 
ATOM      7  H1  UNL     1       2.461   0.275 -20.250  0.00  0.00    +0.202 HD
ATOM      8  H2  UNL     1       2.565   1.809 -19.426  0.00  0.00    +0.202 HD
ATOM      9  C   UNL     1       1.119   2.851 -23.606  0.00  0.00    +0.004 A 
ATOM     10  C   UNL     1       1.587   3.333 -24.720  0.00  0.00    +0.010 A 
ATOM     11  C   UNL     1       0.769   3.780 -25.626  0.00  0.00    +0.001 A 
ATOM     12  C   UNL     1      -0.514   3.746 -25.420  0.00  0.00    +0.002 A 
ATOM     13  C   UNL     1      -0.980   3.264 -24.306  0.00  0.00    +0.026 A 
ATOM     14  C   UNL     1       1.124   1.477 -20.567  0.00  0.00    +0.185 C 
ATOM     15  C   UNL     1      -0.164   2.816 -23.398  0.00  0.00    +0.050 A 
ENDROOT
BRANCH   5  16
ATOM     16  C   UNL     1       4.554   1.447 -20.850  0.00  0.00    +0.090 C 
ATOM     17  OXT UNL     1       5.353   2.465 -20.735  0.00  0.00    -0.544 OA
ATOM     18  O   UNL     1       5.009   0.241 -20.681  0.00  0.00    -0.544 OA
ENDBRANCH   5  16
BRANCH   1  19
ATOM     19  C   UNL     1      -1.525   2.097 -21.669  0.00  0.00    +0.122 C 
BRANCH  19  20
ATOM     20  C   UNL     1      -2.036   3.003 -20.889  0.00  0.00    +0.022 C 
BRANCH  20  21
ATOM     21  C   UNL     1      -3.300   3.291 -20.968  0.00  0.00    +0.002 C 
BRANCH  21  22
ATOM     22  C   UNL     1      -4.000   2.879 -21.982  0.00  0.00    +0.000 C 
BRANCH  22  23
ATOM     23  C   UNL     1      -5.186   3.367 -22.198  0.00  0.00    +0.000 C 
BRANCH  23  24
ATOM     24  C   UNL     1      -5.531   3.729 -23.398  0.00  0.00    -0.000 C 
BRANCH  24  25
ATOM     25  C   UNL     1      -4.621   4.083 -24.257  0.00  0.00    -0.000 C 
BRANCH  25  27
ATOM     26  C   UNL     1      -4.116   2.930 -26.124  0.00  0.00    +0.004 C 
ATOM     27  C   UNL     1      -4.802   3.859 -25.524  0.00  0.00    -0.003 C 
ENDBRANCH  25  27
ENDBRANCH  24  25
ENDBRANCH  23  24
ENDBRANCH  22  23
ENDBRANCH  21  22
ENDBRANCH  20  21
ENDBRANCH  19  20
ENDBRANCH   1  19
TORSDOF 9
ENDMDL
