MODEL 1
REMARK VINA RESULT:   -10.732      0.000      0.000
REMARK INTER + INTRA:         -11.438
REMARK INTER:                 -11.361
REMARK INTRA:                  -0.077
REMARK UNBOUND:                -0.078
REMARK  Name = ZINC000001715690
REMARK  5 active torsions:
REMARK  status: ('A' for Active; 'I' for Inactive)
REMARK    1  A    between atoms: C_1  and  O_2
REMARK    2  A    between atoms: O_2  and  C_3
REMARK    3  A    between atoms: C_11  and  C_12
REMARK    4  A    between atoms: C_18  and  C_19
REMARK    5  A    between atoms: C_18  and  C_20
REMARK                            x       y       z     vdW  Elec       q    Type
REMARK                         _______ _______ _______ _____ _____    ______ ____
ROOT
ATOM      1  C   UNL     1       3.434   1.692 -22.627  0.00  0.00    +0.121 A 
ATOM      2  C   UNL     1       3.678   1.765 -23.902  0.00  0.00    +0.047 A 
ATOM      3  C   UNL     1       2.724   2.073 -24.730  0.00  0.00    +0.030 A 
ATOM      4  C   UNL     1       1.526   2.309 -24.283  0.00  0.00    +0.048 A 
ATOM      5  N   UNL     1       0.420   2.629 -24.885  0.00  0.00    -0.354 N 
ATOM      6  H   UNL     1       0.304   2.756 -25.855  0.00  0.00    +0.166 HD
ATOM      7  C   UNL     1      -0.508   2.755 -23.983  0.00  0.00    +0.058 A 
ATOM      8  C   UNL     1      -1.768   3.059 -24.069  0.00  0.00    +0.041 A 
ATOM      9  C   UNL     1      -2.496   3.120 -22.993  0.00  0.00    +0.134 A 
ATOM     10  O   UNL     1      -3.757   3.424 -23.078  0.00  0.00    -0.481 OA
ATOM     11  C   UNL     1      -4.291   3.668 -24.238  0.00  0.00    +0.124 C 
ATOM     12  C   UNL     1      -3.563   3.607 -25.313  0.00  0.00    +0.020 C 
ATOM     13  C   UNL     1      -5.329   3.833 -23.473  0.00  0.00    +0.060 C 
ATOM     14  C   UNL     1      -5.184   3.969 -25.133  0.00  0.00    +0.060 C 
ATOM     15  C   UNL     1      -1.963   2.876 -21.832  0.00  0.00    -0.007 A 
ATOM     16  C   UNL     1      -0.702   2.572 -21.747  0.00  0.00    +0.017 A 
ATOM     17  C   UNL     1      -2.691   2.937 -20.757  0.00  0.00    +0.047 C 
ATOM     18  C   UNL     1      -2.302   3.303 -25.229  0.00  0.00    +0.013 C 
ATOM     19  C   UNL     1       0.026   2.511 -22.823  0.00  0.00    +0.009 A 
ATOM     20  C   UNL     1       1.282   2.235 -23.008  0.00  0.00    +0.011 A 
ATOM     21  C   UNL     1       2.237   1.927 -22.180  0.00  0.00    +0.056 A 
ENDROOT
BRANCH   1  23
ATOM     22  C   UNL     1       4.235   0.399 -20.967  0.00  0.00    +0.277 C 
ATOM     23  O   UNL     1       4.389   1.383 -21.800  0.00  0.00    -0.495 OA
ENDBRANCH   1  23
TORSDOF 1
ENDMDL
