MODEL 1
REMARK VINA RESULT:    -9.811      0.000      0.000
REMARK INTER + INTRA:         -14.758
REMARK INTER:                 -13.816
REMARK INTRA:                  -0.942
REMARK UNBOUND:                -0.932
REMARK  Name = CCCOc1ccc(C(=O)OC[C@@H]2CCC[N@@+]3(C)CCCC[C@@H]23)cc1                ZINC000253377312
REMARK  9 active torsions:
REMARK  status: ('A' for Active; 'I' for Inactive)
REMARK    1  A    between atoms: C_1  and  C_2
REMARK    2  A    between atoms: C_2  and  C_3
REMARK    3  A    between atoms: C_3  and  O_4
REMARK    4  A    between atoms: O_4  and  C_5
REMARK    5  A    between atoms: C_8  and  C_9
REMARK    6  A    between atoms: C_9  and  O_11
REMARK    7  A    between atoms: O_11  and  C_12
REMARK    8  A    between atoms: C_12  and  C_13
REMARK    9  A    between atoms: N_17  and  C_18
REMARK                            x       y       z     vdW  Elec       q    Type
REMARK                         _______ _______ _______ _____ _____    ______ ____
ROOT
ATOM      1  O   UNL     1      -0.702   3.368 -25.107  0.00  0.00    -0.461 OA
ENDROOT
BRANCH   1   2
ATOM      2  C   UNL     1       0.598   3.389 -25.112  0.00  0.00    +0.339 C 
ATOM      3  O   UNL     1       1.233   4.243 -25.859  0.00  0.00    -0.245 OA
BRANCH   2   7
ATOM      4  C   UNL     1       2.594   0.886 -22.882  0.00  0.00    +0.121 A 
ATOM      5  C   UNL     1       2.998   1.145 -24.091  0.00  0.00    +0.046 A 
ATOM      6  C   UNL     1       2.333   1.980 -24.834  0.00  0.00    +0.018 A 
ATOM      7  C   UNL     1       1.264   2.555 -24.369  0.00  0.00    +0.059 A 
ATOM      8  C   UNL     1       0.859   2.295 -23.161  0.00  0.00    +0.018 A 
ATOM      9  C   UNL     1       1.524   1.461 -22.418  0.00  0.00    +0.046 A 
BRANCH   4  10
ATOM     10  O   UNL     1       3.258   0.052 -22.139  0.00  0.00    -0.492 OA
BRANCH  10  11
ATOM     11  C   UNL     1       3.740   0.442 -20.997  0.00  0.00    +0.229 C 
BRANCH  11  13
ATOM     12  C   UNL     1       5.267   2.097 -20.985  0.00  0.00    +0.007 C 
ATOM     13  C   UNL     1       4.977   0.831 -20.912  0.00  0.00    +0.038 C 
ENDBRANCH  11  13
ENDBRANCH  10  11
ENDBRANCH   4  10
ENDBRANCH   2   7
ENDBRANCH   1   2
BRANCH   1  14
ATOM     14  C   UNL     1      -1.363   4.286 -24.466  0.00  0.00    +0.241 C 
BRANCH  14  15
ATOM     15  C   UNL     1      -2.632   4.129 -24.231  0.00  0.00    +0.075 C 
ATOM     16  C   UNL     1      -3.500   4.346 -25.175  0.00  0.00    +0.017 C 
ATOM     17  C   UNL     1      -4.768   4.189 -24.940  0.00  0.00    +0.051 C 
ATOM     18  C   UNL     1      -5.170   3.813 -23.762  0.00  0.00    +0.133 C 
ATOM     19  N   UNL     1      -4.302   3.596 -22.818  0.00  0.00    +0.244 N 
ATOM     20  C   UNL     1      -4.703   3.220 -21.641  0.00  0.00    +0.133 C 
ATOM     21  C   UNL     1      -3.835   3.003 -20.697  0.00  0.00    +0.051 C 
ATOM     22  C   UNL     1      -2.566   3.160 -20.932  0.00  0.00    +0.011 C 
ATOM     23  C   UNL     1      -2.166   3.536 -22.110  0.00  0.00    +0.055 C 
ATOM     24  C   UNL     1      -5.571   3.438 -22.584  0.00  0.00    +0.192 C 
ATOM     25  C   UNL     1      -3.033   3.753 -23.053  0.00  0.00    +0.072 C 
ENDBRANCH  14  15
ENDBRANCH   1  14
TORSDOF 7
ENDMDL
