MODEL 1
REMARK VINA RESULT:    -9.032      0.000      0.000
REMARK INTER + INTRA:         -14.054
REMARK INTER:                 -13.089
REMARK INTRA:                  -0.965
REMARK UNBOUND:                -0.534
REMARK  Name = ZINC000004492889
REMARK  12 active torsions:
REMARK  status: ('A' for Active; 'I' for Inactive)
REMARK    1  A    between atoms: C_1  and  C_2
REMARK    2  A    between atoms: C_2  and  C_17
REMARK    3  A    between atoms: C_3  and  C_4
REMARK    4  A    between atoms: C_4  and  O_5
REMARK    5  A    between atoms: O_5  and  C_6
REMARK    6  A    between atoms: C_17  and  C_18
REMARK    7  A    between atoms: C_18  and  C_19
REMARK    8  A    between atoms: C_19  and  O_20
REMARK    9  A    between atoms: C_19  and  C_21
REMARK   10  A    between atoms: C_21  and  C_22
REMARK   11  A    between atoms: C_21  and  C_23
REMARK   12  A    between atoms: C_21  and  O_24
REMARK                            x       y       z     vdW  Elec       q    Type
REMARK                         _______ _______ _______ _____ _____    ______ ____
ROOT
ATOM      1  C   UNL     1       0.207   4.922 -23.557  0.00  0.00    +0.256 C 
ENDROOT
BRANCH   1   4
ATOM      2  C   UNL     1       1.165   3.492 -25.505  0.00  0.00    +0.039 C 
ATOM      3  C   UNL     1       1.480   3.210 -24.275  0.00  0.00    -0.073 C 
ATOM      4  C   UNL     1       1.001   3.925 -23.301  0.00  0.00    +0.012 C 
BRANCH   3   5
ATOM      5  C   UNL     1       2.274   2.212 -24.020  0.00  0.00    +0.033 C 
BRANCH   5   6
ATOM      6  C   UNL     1       2.504   1.862 -22.790  0.00  0.00    +0.038 C 
BRANCH   6   7
ATOM      7  C   UNL     1       3.067   0.719 -22.534  0.00  0.00    +0.146 C 
BRANCH   7   8
ATOM      8  C   UNL     1       4.119   0.669 -21.770  0.00  0.00    +0.086 C 
ATOM      9  C   UNL     1       5.229   1.223 -22.156  0.00  0.00    +0.043 C 
ATOM     10  C   UNL     1       4.691   0.290 -20.665  0.00  0.00    +0.043 C 
BRANCH   8  11
ATOM     11  O   UNL     1       3.443  -0.001 -20.883  0.00  0.00    -0.387 OA
ATOM     12  H   UNL     1       2.513   0.276 -20.909  0.00  0.00    +0.210 HD
ENDBRANCH   8  11
ENDBRANCH   7   8
BRANCH   7  13
ATOM     13  O   UNL     1       2.579  -0.374 -23.040  0.00  0.00    -0.389 OA
ATOM     14  H   UNL     1       2.996  -1.141 -22.617  0.00  0.00    +0.210 HD
ENDBRANCH   7  13
ENDBRANCH   6   7
ENDBRANCH   5   6
ENDBRANCH   3   5
ENDBRANCH   1   4
BRANCH   1  15
ATOM     15  O   UNL     1      -0.875   5.088 -22.855  0.00  0.00    -0.487 OA
BRANCH  15  16
ATOM     16  C   UNL     1      -1.982   4.513 -23.222  0.00  0.00    +0.135 A 
ATOM     17  C   UNL     1      -2.322   4.500 -24.476  0.00  0.00    +0.116 A 
ATOM     18  C   UNL     1      -3.430   3.925 -24.844  0.00  0.00    +0.253 A 
ATOM     19  N   UNL     1      -4.195   3.363 -23.955  0.00  0.00    -0.322 N 
ATOM     20  H   UNL     1      -5.034   2.928 -24.234  0.00  0.00    +0.169 HD
ATOM     21  C   UNL     1      -3.855   3.377 -22.701  0.00  0.00    +0.053 A 
ATOM     22  C   UNL     1      -4.621   2.815 -21.813  0.00  0.00    +0.026 A 
ATOM     23  C   UNL     1      -4.280   2.829 -20.559  0.00  0.00    +0.002 A 
ATOM     24  C   UNL     1      -3.174   3.404 -20.192  0.00  0.00    +0.001 A 
ATOM     25  C   UNL     1      -2.407   3.965 -21.080  0.00  0.00    +0.013 A 
ATOM     26  O   UNL     1      -3.770   3.911 -26.098  0.00  0.00    -0.268 OA
ATOM     27  C   UNL     1      -2.748   3.952 -22.335  0.00  0.00    +0.040 A 
ENDBRANCH  15  16
ENDBRANCH   1  15
TORSDOF 9
ENDMDL
