MODEL 1
REMARK VINA RESULT:    -9.069      0.000      0.000
REMARK INTER + INTRA:         -16.825
REMARK INTER:                 -14.674
REMARK INTRA:                  -2.152
REMARK UNBOUND:                -1.130
REMARK  Name = CCCCCCCCCCCC1=C(O)C(=O)C=C(N[C@@H]2CCCC[C@H]2N)C1=O                  ZINC000100393419
REMARK  14 active torsions:
REMARK  status: ('A' for Active; 'I' for Inactive)
REMARK    1  A    between atoms: C_1  and  C_2
REMARK    2  A    between atoms: C_2  and  C_3
REMARK    3  A    between atoms: C_3  and  C_4
REMARK    4  A    between atoms: C_4  and  C_5
REMARK    5  A    between atoms: C_5  and  C_6
REMARK    6  A    between atoms: C_6  and  C_7
REMARK    7  A    between atoms: C_7  and  C_8
REMARK    8  A    between atoms: C_8  and  C_9
REMARK    9  A    between atoms: C_9  and  C_10
REMARK   10  A    between atoms: C_10  and  C_11
REMARK   11  A    between atoms: C_11  and  C_12
REMARK   12  A    between atoms: C_18  and  N_19
REMARK   13  A    between atoms: N_19  and  C_20
REMARK   14  A    between atoms: C_25  and  N_26
REMARK                            x       y       z     vdW  Elec       q    Type
REMARK                         _______ _______ _______ _____ _____    ______ ____
ROOT
ATOM      1  C   UNL     1       0.635   2.190 -22.876  0.00  0.00    -0.008 C 
ATOM      2  C   UNL     1       0.592   1.846 -21.624  0.00  0.00    +0.228 C 
ATOM      3  C   UNL     1       1.693   1.589 -20.982  0.00  0.00    +0.227 C 
ATOM      4  C   UNL     1       2.837   1.677 -21.593  0.00  0.00    +0.076 C 
ATOM      5  C   UNL     1       2.880   2.022 -22.845  0.00  0.00    +0.019 C 
ATOM      6  O   UNL     1       1.650   1.244 -19.729  0.00  0.00    -0.284 OA
ATOM      7  O   UNL     1      -0.552   1.757 -21.013  0.00  0.00    -0.284 OA
ATOM      8  C   UNL     1       1.780   2.279 -23.487  0.00  0.00    -0.112 C 
ATOM      9  O   UNL     1       1.823   2.623 -24.740  0.00  0.00    -0.828 OA
ENDROOT
BRANCH   5  10
ATOM     10  N   UNL     1       4.024   2.110 -23.456  0.00  0.00    -0.336 N 
ATOM     11  H   UNL     1       4.233   1.504 -24.202  0.00  0.00    +0.147 HD
BRANCH  10  12
ATOM     12  C   UNL     1       4.895   3.001 -23.082  0.00  0.00    +0.119 C 
ATOM     13  C   UNL     1       4.611   4.266 -23.177  0.00  0.00    +0.028 C 
ATOM     14  C   UNL     1       5.481   5.157 -22.803  0.00  0.00    +0.002 C 
ATOM     15  C   UNL     1       6.633   4.783 -22.333  0.00  0.00    +0.006 C 
ATOM     16  C   UNL     1       6.917   3.517 -22.238  0.00  0.00    +0.056 C 
ATOM     17  C   UNL     1       6.047   2.627 -22.612  0.00  0.00    +0.081 C 
BRANCH  17  18
ATOM     18  N   UNL     1       6.330   1.362 -22.516  0.00  0.00    +0.222 N 
ATOM     19  H   UNL     1       6.169   1.049 -21.559  0.00  0.00    +0.200 HD
ATOM     20  H   UNL     1       5.736   0.832 -23.153  0.00  0.00    +0.200 HD
ATOM     21  H   UNL     1       7.309   1.213 -22.762  0.00  0.00    +0.200 HD
ENDBRANCH  17  18
ENDBRANCH  10  12
ENDBRANCH   5  10
BRANCH   1  22
ATOM     22  C   UNL     1      -0.466   2.447 -23.518  0.00  0.00    +0.038 C 
BRANCH  22  23
ATOM     23  C   UNL     1      -0.954   3.652 -23.516  0.00  0.00    +0.005 C 
BRANCH  23  24
ATOM     24  C   UNL     1      -1.616   4.086 -24.547  0.00  0.00    +0.000 C 
BRANCH  24  25
ATOM     25  C   UNL     1      -2.398   3.282 -25.203  0.00  0.00    +0.000 C 
BRANCH  25  26
ATOM     26  C   UNL     1      -3.616   3.642 -25.481  0.00  0.00    +0.000 C 
BRANCH  26  27
ATOM     27  C   UNL     1      -4.303   4.331 -24.618  0.00  0.00    +0.000 C 
BRANCH  27  28
ATOM     28  C   UNL     1      -5.195   3.743 -23.879  0.00  0.00    -0.000 C 
BRANCH  28  29
ATOM     29  C   UNL     1      -5.050   3.710 -22.588  0.00  0.00    -0.000 C 
BRANCH  29  30
ATOM     30  C   UNL     1      -4.343   2.767 -22.037  0.00  0.00    -0.000 C 
BRANCH  30  32
ATOM     31  C   UNL     1      -3.190   4.010 -20.556  0.00  0.00    +0.004 C 
ATOM     32  C   UNL     1      -3.857   2.932 -20.843  0.00  0.00    -0.003 C 
ENDBRANCH  30  32
ENDBRANCH  29  30
ENDBRANCH  28  29
ENDBRANCH  27  28
ENDBRANCH  26  27
ENDBRANCH  25  26
ENDBRANCH  24  25
ENDBRANCH  23  24
ENDBRANCH  22  23
ENDBRANCH   1  22
TORSDOF 13
ENDMDL
