MODEL 1
REMARK VINA RESULT:    -8.553      0.000      0.000
REMARK INTER + INTRA:         -14.935
REMARK INTER:                 -13.582
REMARK INTRA:                  -1.354
REMARK UNBOUND:                -0.883
REMARK  Name = ZINC000008382372
REMARK  13 active torsions:
REMARK  status: ('A' for Active; 'I' for Inactive)
REMARK    1  A    between atoms: C_1  and  C_2
REMARK    2  A    between atoms: C_2  and  C_3
REMARK    3  A    between atoms: C_3  and  C_4
REMARK    4  A    between atoms: C_4  and  C_5
REMARK    5  A    between atoms: C_5  and  C_6
REMARK    6  A    between atoms: C_6  and  C_7
REMARK    7  A    between atoms: C_7  and  C_8
REMARK    8  A    between atoms: C_8  and  C_9
REMARK    9  A    between atoms: C_9  and  C_10
REMARK   10  A    between atoms: C_10  and  C_11
REMARK   11  A    between atoms: C_11  and  C_12
REMARK   12  A    between atoms: O_19  and  C_20
REMARK   13  A    between atoms: C_20  and  C_21
REMARK                            x       y       z     vdW  Elec       q    Type
REMARK                         _______ _______ _______ _____ _____    ______ ____
ROOT
ATOM      1  C   UNL     1      -0.654   3.354 -22.678  0.00  0.00    -0.011 C 
ATOM      2  C   UNL     1      -0.050   4.410 -23.136  0.00  0.00    +0.169 C 
ATOM      3  C   UNL     1       1.186   4.332 -23.531  0.00  0.00    -0.089 C 
ATOM      4  C   UNL     1       1.819   3.198 -23.468  0.00  0.00    +0.035 C 
ATOM      5  C   UNL     1       1.215   2.141 -23.010  0.00  0.00    +0.118 C 
ATOM      6  O   UNL     1       1.847   1.007 -22.947  0.00  0.00    -0.427 OA
ATOM      7  O   UNL     1       1.790   5.389 -23.989  0.00  0.00    -0.826 OA
ATOM      8  O   UNL     1      -0.682   5.544 -23.199  0.00  0.00    -0.289 OA
ATOM      9  C   UNL     1      -0.022   2.220 -22.615  0.00  0.00    -0.090 C 
ATOM     10  O   UNL     1      -0.625   1.163 -22.157  0.00  0.00    -0.826 OA
ENDROOT
BRANCH   6  11
ATOM     11  C   UNL     1       3.083   0.930 -23.342  0.00  0.00    +0.309 C 
ATOM     12  O   UNL     1       3.353   0.752 -24.602  0.00  0.00    -0.251 OA
ATOM     13  C   UNL     1       4.049   1.029 -22.478  0.00  0.00    +0.136 C 
ENDBRANCH   6  11
BRANCH   1  14
ATOM     14  C   UNL     1      -1.889   3.432 -22.283  0.00  0.00    +0.038 C 
BRANCH  14  15
ATOM     15  C   UNL     1      -2.159   3.627 -21.026  0.00  0.00    +0.005 C 
BRANCH  15  16
ATOM     16  C   UNL     1      -3.356   3.394 -20.575  0.00  0.00    +0.000 C 
BRANCH  16  17
ATOM     17  C   UNL     1      -4.073   2.445 -21.098  0.00  0.00    +0.000 C 
BRANCH  17  18
ATOM     18  C   UNL     1      -5.320   2.662 -21.400  0.00  0.00    +0.000 C 
BRANCH  18  19
ATOM     19  C   UNL     1      -5.625   3.549 -22.300  0.00  0.00    +0.000 C 
BRANCH  19  20
ATOM     20  C   UNL     1      -5.149   3.443 -23.505  0.00  0.00    -0.000 C 
BRANCH  20  21
ATOM     21  C   UNL     1      -4.909   4.511 -24.205  0.00  0.00    -0.000 C 
BRANCH  21  22
ATOM     22  C   UNL     1      -4.191   4.433 -25.286  0.00  0.00    -0.000 C 
BRANCH  22  24
ATOM     23  C   UNL     1      -2.309   3.439 -26.025  0.00  0.00    +0.004 C 
ATOM     24  C   UNL     1      -3.512   3.353 -25.538  0.00  0.00    -0.003 C 
ENDBRANCH  22  24
ENDBRANCH  21  22
ENDBRANCH  20  21
ENDBRANCH  19  20
ENDBRANCH  18  19
ENDBRANCH  17  18
ENDBRANCH  16  17
ENDBRANCH  15  16
ENDBRANCH  14  15
ENDBRANCH   1  14
TORSDOF 11
ENDMDL
