MODEL 1
REMARK VINA RESULT:    -8.633      0.000      0.000
REMARK INTER + INTRA:         -10.453
REMARK INTER:                 -10.482
REMARK INTRA:                   0.029
REMARK UNBOUND:                -0.305
REMARK  Name = ZINC000033662878
REMARK  6 active torsions:
REMARK  status: ('A' for Active; 'I' for Inactive)
REMARK    1  A    between atoms: C_1  and  O_2
REMARK    2  A    between atoms: O_2  and  C_3
REMARK    3  A    between atoms: C_13  and  O_14
REMARK    4  A    between atoms: O_14  and  C_15
REMARK    5  A    between atoms: C_16  and  O_17
REMARK    6  A    between atoms: O_17  and  C_18
REMARK                            x       y       z     vdW  Elec       q    Type
REMARK                         _______ _______ _______ _____ _____    ______ ____
ROOT
ATOM      1  C   UNL     1      -4.040   2.993 -22.091  0.00  0.00    +0.120 A 
ATOM      2  C   UNL     1      -4.432   3.368 -23.273  0.00  0.00    +0.046 A 
ATOM      3  C   UNL     1      -3.566   3.505 -24.232  0.00  0.00    +0.017 A 
ATOM      4  C   UNL     1      -2.307   3.266 -24.010  0.00  0.00    +0.040 A 
ATOM      5  C   UNL     1      -1.915   2.891 -22.829  0.00  0.00    -0.030 A 
ATOM      6  C   UNL     1      -0.657   2.652 -22.607  0.00  0.00    +0.063 C 
ATOM      7  C   UNL     1       0.210   2.788 -23.566  0.00  0.00    +0.111 C 
ATOM      8  C   UNL     1       1.468   2.549 -23.345  0.00  0.00    -0.020 A 
ATOM      9  C   UNL     1       1.860   2.174 -22.163  0.00  0.00    +0.055 A 
ATOM     10  C   UNL     1       3.119   1.935 -21.941  0.00  0.00    +0.162 A 
ATOM     11  C   UNL     1       3.985   2.072 -22.901  0.00  0.00    +0.162 A 
ATOM     12  C   UNL     1       3.593   2.447 -24.082  0.00  0.00    +0.053 A 
ATOM     13  C   UNL     1       2.334   2.686 -24.304  0.00  0.00    -0.037 A 
ATOM     14  C   UNL     1       1.943   3.061 -25.486  0.00  0.00    +0.054 C 
ATOM     15  C   UNL     1       0.684   3.299 -25.707  0.00  0.00    +0.113 C 
ATOM     16  N   UNL     1      -0.183   3.163 -24.748  0.00  0.00    -0.290 N 
ATOM     17  C   UNL     1      -1.441   3.402 -24.970  0.00  0.00    +0.247 C 
ATOM     18  O   UNL     1      -1.832   3.777 -26.151  0.00  0.00    -0.270 OA
ATOM     19  C   UNL     1      -2.782   2.755 -21.870  0.00  0.00    +0.050 A 
ENDROOT
BRANCH   1  21
ATOM     20  C   UNL     1      -6.154   2.620 -21.411  0.00  0.00    +0.277 C 
ATOM     21  O   UNL     1      -4.906   2.857 -21.132  0.00  0.00    -0.495 OA
ENDBRANCH   1  21
BRANCH  11  22
ATOM     22  O   UNL     1       5.243   1.833 -22.679  0.00  0.00    -0.491 OA
ATOM     23  C   UNL     1       6.096   2.814 -22.648  0.00  0.00    +0.277 C 
ENDBRANCH  11  22
BRANCH  10  24
ATOM     24  O   UNL     1       3.511   1.560 -20.760  0.00  0.00    -0.491 OA
ATOM     25  C   UNL     1       3.791   0.312 -20.535  0.00  0.00    +0.277 C 
ENDBRANCH  10  24
TORSDOF 3
ENDMDL
