MODEL 1
REMARK VINA RESULT:    -9.380      0.000      0.000
REMARK INTER + INTRA:         -11.245
REMARK INTER:                 -11.005
REMARK INTRA:                  -0.240
REMARK UNBOUND:                 0.053
REMARK  Name = ZINC000019908780
REMARK  7 active torsions:
REMARK  status: ('A' for Active; 'I' for Inactive)
REMARK    1  A    between atoms: C_1  and  O_2
REMARK    2  A    between atoms: O_2  and  C_3
REMARK    3  A    between atoms: C_8  and  O_9
REMARK    4  A    between atoms: C_16  and  O_17
REMARK    5  A    between atoms: O_17  and  C_18
REMARK    6  A    between atoms: C_19  and  O_20
REMARK    7  A    between atoms: O_20  and  C_21
REMARK                            x       y       z     vdW  Elec       q    Type
REMARK                         _______ _______ _______ _____ _____    ______ ____
ROOT
ATOM      1  C   UNL     1      -3.881   3.208 -22.112  0.00  0.00    +0.162 A 
ATOM      2  C   UNL     1      -2.607   3.053 -22.322  0.00  0.00    +0.058 A 
ATOM      3  C   UNL     1      -2.121   3.209 -23.517  0.00  0.00    +0.008 A 
ATOM      4  C   UNL     1      -2.908   3.521 -24.503  0.00  0.00    -0.030 A 
ATOM      5  C   UNL     1      -2.421   3.677 -25.698  0.00  0.00    +0.086 C 
ATOM      6  C   UNL     1      -1.147   3.522 -25.908  0.00  0.00    +0.137 C 
ATOM      7  N   UNL     1      -0.361   3.211 -24.921  0.00  0.00    +0.244 N 
ATOM      8  H   UNL     1      -1.332   3.303 -24.624  0.00  0.00    +0.204 HD
ATOM      9  C   UNL     1       0.914   3.056 -25.129  0.00  0.00    +0.169 C 
ATOM     10  C   UNL     1       1.701   2.745 -24.143  0.00  0.00    +0.004 A 
ATOM     11  C   UNL     1       2.974   2.590 -24.352  0.00  0.00    +0.058 A 
ATOM     12  C   UNL     1       3.762   2.278 -23.365  0.00  0.00    +0.162 A 
ATOM     13  C   UNL     1       3.275   2.122 -22.170  0.00  0.00    +0.162 A 
ATOM     14  C   UNL     1       2.002   2.276 -21.961  0.00  0.00    +0.053 A 
ATOM     15  C   UNL     1       1.214   2.588 -22.948  0.00  0.00    -0.030 A 
ATOM     16  C   UNL     1      -0.059   2.743 -22.739  0.00  0.00    +0.095 C 
ATOM     17  C   UNL     1      -4.181   3.676 -24.294  0.00  0.00    +0.053 A 
ATOM     18  C   UNL     1      -0.846   3.054 -23.725  0.00  0.00    +0.100 C 
ATOM     19  C   UNL     1      -4.668   3.519 -23.099  0.00  0.00    +0.159 A 
ENDROOT
BRANCH   1  21
ATOM     20  C   UNL     1      -3.642   3.336 -19.877  0.00  0.00    +0.277 C 
ATOM     21  O   UNL     1      -4.367   3.051 -20.917  0.00  0.00    -0.491 OA
ENDBRANCH   1  21
BRANCH  13  22
ATOM     22  O   UNL     1       4.062   1.810 -21.184  0.00  0.00    -0.491 OA
ATOM     23  C   UNL     1       4.080   0.594 -20.726  0.00  0.00    +0.277 C 
ENDBRANCH  13  22
BRANCH  12  24
ATOM     24  O   UNL     1       5.035   2.123 -23.574  0.00  0.00    -0.491 OA
ATOM     25  C   UNL     1       5.802   3.163 -23.720  0.00  0.00    +0.277 C 
ENDBRANCH  12  24
BRANCH  19  26
ATOM     26  O   UNL     1      -5.941   3.674 -22.890  0.00  0.00    -0.503 OA
ATOM     27  H   UNL     1      -6.519   3.826 -23.612  0.00  0.00    +0.292 HD
ENDBRANCH  19  26
TORSDOF 4
ENDMDL
