MODEL 1
REMARK VINA RESULT:   -11.262      0.000      0.000
REMARK INTER + INTRA:         -12.026
REMARK INTER:                 -11.892
REMARK INTRA:                  -0.134
REMARK UNBOUND:                -0.105
REMARK  Name = COc1ccc2c3c1O[C@@H]1C=CC=C4[C@H](C2)N(C)CC[C@]431                    ZINC000100393591
REMARK  3 active torsions:
REMARK  status: ('A' for Active; 'I' for Inactive)
REMARK    1  A    between atoms: C_1  and  O_2
REMARK    2  A    between atoms: O_2  and  C_3
REMARK    3  A    between atoms: N_17  and  C_18
REMARK                            x       y       z     vdW  Elec       q    Type
REMARK                         _______ _______ _______ _____ _____    ______ ____
ROOT
ATOM      1  C   UNL     1       0.492   2.641 -23.176  0.00  0.00    +0.162 A 
ATOM      2  C   UNL     1       0.419   2.066 -22.055  0.00  0.00    +0.050 A 
ATOM      3  C   UNL     1      -0.680   1.946 -21.477  0.00  0.00    +0.008 A 
ATOM      4  C   UNL     1      -1.713   2.399 -22.011  0.00  0.00    -0.034 A 
ATOM      5  C   UNL     1      -1.665   2.974 -23.126  0.00  0.00    +0.016 A 
ATOM      6  C   UNL     1      -2.699   3.423 -23.653  0.00  0.00    +0.071 C 
ATOM      7  C   UNL     1      -3.809   3.975 -24.353  0.00  0.00    +0.071 C 
ATOM      8  C   UNL     1      -5.062   3.854 -23.725  0.00  0.00    +0.133 C 
ATOM      9  N   UNL     1      -5.105   3.208 -22.477  0.00  0.00    +0.239 N 
ATOM     10  H   UNL     1      -5.988   3.095 -21.979  0.00  0.00    +0.204 HD
ATOM     11  C   UNL     1      -6.176   3.061 -21.854  0.00  0.00    +0.191 C 
ATOM     12  C   UNL     1      -3.872   2.730 -21.957  0.00  0.00    +0.096 C 
ATOM     13  C   UNL     1      -3.801   3.306 -23.078  0.00  0.00    -0.007 C 
ATOM     14  C   UNL     1      -4.848   3.761 -23.614  0.00  0.00    +0.006 C 
ATOM     15  C   UNL     1      -4.782   4.330 -24.722  0.00  0.00    -0.000 C 
ATOM     16  C   UNL     1      -3.676   4.455 -25.313  0.00  0.00    +0.018 C 
ATOM     17  C   UNL     1      -2.641   4.003 -24.779  0.00  0.00    +0.212 C 
ATOM     18  O   UNL     1      -1.150   3.811 -24.887  0.00  0.00    -0.480 OA
ATOM     19  C   UNL     1      -2.837   2.279 -21.425  0.00  0.00    +0.094 C 
ATOM     20  C   UNL     1      -0.558   3.097 -23.712  0.00  0.00    +0.167 A 
ENDROOT
BRANCH   1  22
ATOM     21  C   UNL     1       2.428   3.588 -23.338  0.00  0.00    +0.277 C 
ATOM     22  O   UNL     1       1.593   2.758 -23.751  0.00  0.00    -0.491 OA
ENDBRANCH   1  22
TORSDOF 1
ENDMDL
