MODEL 1
REMARK VINA RESULT:   -11.765      0.000      0.000
REMARK INTER + INTRA:         -12.109
REMARK INTER:                 -12.109
REMARK INTRA:                   0.000
REMARK UNBOUND:                 0.000
REMARK  Name = C[C@]12CC[C@H]3[C@@H](CCC4=CC(=O)CC[C@@]43C)[C@@H]1CC[C@@H]2O        ZINC000118912393
REMARK  3 active torsions:
REMARK  status: ('A' for Active; 'I' for Inactive)
REMARK    1  A    between atoms: C_1  and  C_2
REMARK    2  A    between atoms: C_15  and  C_16
REMARK    3  A    between atoms: C_20  and  O_21
REMARK                            x       y       z     vdW  Elec       q    Type
REMARK                         _______ _______ _______ _____ _____    ______ ____
ROOT
ATOM      1  C   UNL     1      -4.908   3.133 -21.960  0.00  0.00    +0.014 C 
ATOM      2  C   UNL     1      -3.994   3.322 -22.865  0.00  0.00    -0.003 C 
ATOM      3  C   UNL     1      -3.558   2.744 -21.786  0.00  0.00    +0.010 C 
ATOM      4  C   UNL     1      -2.305   2.410 -21.688  0.00  0.00    +0.005 C 
ATOM      5  C   UNL     1      -1.489   2.655 -22.669  0.00  0.00    +0.002 C 
ATOM      6  C   UNL     1      -1.925   3.233 -23.749  0.00  0.00    -0.003 C 
ATOM      7  C   UNL     1      -1.108   3.479 -24.730  0.00  0.00    +0.008 C 
ATOM      8  C   UNL     1       0.145   3.145 -24.632  0.00  0.00    +0.032 C 
ATOM      9  C   UNL     1       0.581   2.567 -23.553  0.00  0.00    -0.060 C 
ATOM     10  C   UNL     1       1.833   2.234 -23.455  0.00  0.00    +0.046 C 
ATOM     11  C   UNL     1       2.269   1.656 -22.375  0.00  0.00    +0.156 C 
ATOM     12  C   UNL     1       1.453   1.411 -21.394  0.00  0.00    +0.080 C 
ATOM     13  C   UNL     1       0.201   1.744 -21.491  0.00  0.00    +0.019 C 
ATOM     14  O   UNL     1       3.523   1.323 -22.277  0.00  0.00    -0.293 OA
ATOM     15  C   UNL     1      -0.236   2.323 -22.571  0.00  0.00    -0.007 C 
ATOM     16  C   UNL     1      -1.052   2.077 -21.590  0.00  0.00    +0.016 C 
ATOM     17  C   UNL     1      -5.174   3.746 -23.209  0.00  0.00    +0.121 C 
ATOM     18  C   UNL     1      -5.087   4.254 -24.403  0.00  0.00    +0.032 C 
ATOM     19  C   UNL     1      -3.853   4.143 -24.797  0.00  0.00    +0.007 C 
ATOM     20  C   UNL     1      -3.178   3.567 -23.847  0.00  0.00    +0.001 C 
ENDROOT
BRANCH  17  21
ATOM     21  O   UNL     1      -6.252   3.676 -22.486  0.00  0.00    -0.391 OA
ATOM     22  H   UNL     1      -6.923   4.276 -22.847  0.00  0.00    +0.210 HD
ENDBRANCH  17  21
TORSDOF 1
ENDMDL
