MODEL 1
REMARK VINA RESULT:    -9.940      0.000      0.000
REMARK INTER + INTRA:         -11.831
REMARK INTER:                 -11.487
REMARK INTRA:                  -0.344
REMARK UNBOUND:                -0.148
REMARK  Name = COc1ccc2c(c1Oc1ccccc1)[C@@]13CCN(C)[C@@H](C2)[C@H]1[C@@H](C)CC(=O)C3 ZINC000253504565
REMARK  6 active torsions:
REMARK  status: ('A' for Active; 'I' for Inactive)
REMARK    1  A    between atoms: C_1  and  O_2
REMARK    2  A    between atoms: O_2  and  C_3
REMARK    3  A    between atoms: C_8  and  O_9
REMARK    4  A    between atoms: O_9  and  C_10
REMARK    5  A    between atoms: N_19  and  C_20
REMARK    6  A    between atoms: C_24  and  C_25
REMARK                            x       y       z     vdW  Elec       q    Type
REMARK                         _______ _______ _______ _____ _____    ______ ____
ROOT
ATOM      1  C   UNL     1      -1.770   2.696 -21.203  0.00  0.00    +0.162 A 
ATOM      2  C   UNL     1      -2.923   2.716 -20.693  0.00  0.00    +0.050 A 
ATOM      3  C   UNL     1      -3.911   2.948 -21.442  0.00  0.00    +0.008 A 
ATOM      4  C   UNL     1      -3.685   3.185 -22.868  0.00  0.00    -0.035 A 
ATOM      5  C   UNL     1      -2.691   3.153 -23.220  0.00  0.00    +0.009 A 
ATOM      6  C   UNL     1      -2.328   3.276 -24.090  0.00  0.00    +0.019 C 
ATOM      7  C   UNL     1      -2.776   3.029 -22.492  0.00  0.00    +0.063 C 
ATOM      8  C   UNL     1      -4.192   3.099 -22.123  0.00  0.00    +0.132 C 
ATOM      9  N   UNL     1      -4.986   3.326 -22.948  0.00  0.00    +0.236 N 
ATOM     10  H   UNL     1      -5.412   3.532 -23.851  0.00  0.00    +0.203 HD
ATOM     11  C   UNL     1      -4.588   3.562 -24.456  0.00  0.00    +0.073 C 
ATOM     12  C   UNL     1      -5.952   3.256 -22.043  0.00  0.00    +0.190 C 
ATOM     13  C   UNL     1      -1.148   3.239 -24.514  0.00  0.00    +0.086 C 
ATOM     14  C   UNL     1      -0.917   3.445 -25.769  0.00  0.00    +0.134 C 
ATOM     15  O   UNL     1       0.282   3.409 -26.211  0.00  0.00    -0.297 OA
ATOM     16  C   UNL     1      -1.891   3.692 -26.609  0.00  0.00    +0.078 C 
ATOM     17  C   UNL     1      -3.116   3.738 -26.206  0.00  0.00    +0.002 C 
ATOM     18  C   UNL     1      -4.070   3.980 -27.028  0.00  0.00    +0.008 C 
ATOM     19  C   UNL     1      -3.388   3.544 -24.997  0.00  0.00    +0.052 C 
ATOM     20  C   UNL     1      -4.679   3.417 -23.611  0.00  0.00    +0.090 C 
ATOM     21  C   UNL     1      -1.641   2.913 -22.465  0.00  0.00    +0.174 A 
ENDROOT
BRANCH   1  23
ATOM     22  C   UNL     1       0.126   1.428 -20.641  0.00  0.00    +0.277 C 
ATOM     23  O   UNL     1      -0.570   2.470 -20.603  0.00  0.00    -0.491 OA
ENDBRANCH   1  23
BRANCH  21  24
ATOM     24  O   UNL     1      -0.363   2.961 -23.407  0.00  0.00    -0.452 OA
BRANCH  24  25
ATOM     25  C   UNL     1       0.867   3.625 -23.348  0.00  0.00    +0.129 A 
ATOM     26  C   UNL     1       1.890   2.858 -23.346  0.00  0.00    +0.046 A 
ATOM     27  C   UNL     1       3.062   3.362 -23.295  0.00  0.00    +0.004 A 
ATOM     28  C   UNL     1       3.212   4.627 -23.246  0.00  0.00    +0.000 A 
ATOM     29  C   UNL     1       2.189   5.397 -23.248  0.00  0.00    +0.004 A 
ATOM     30  C   UNL     1       1.016   4.893 -23.299  0.00  0.00    +0.046 A 
ENDBRANCH  24  25
ENDBRANCH  21  24
TORSDOF 3
ENDMDL
