MODEL 1
REMARK VINA RESULT:   -11.223      0.000      0.000
REMARK INTER + INTRA:         -11.998
REMARK INTER:                 -11.848
REMARK INTRA:                  -0.150
REMARK UNBOUND:                -0.120
REMARK  Name = COc1ccc2c3c1O[C@@]1(C)C(=O)C=C[C@H]4[C@@H](C2)N(C)CC[C@]341          ZINC000100393550
REMARK  4 active torsions:
REMARK  status: ('A' for Active; 'I' for Inactive)
REMARK    1  A    between atoms: C_1  and  O_2
REMARK    2  A    between atoms: O_2  and  C_3
REMARK    3  A    between atoms: C_10  and  C_11
REMARK    4  A    between atoms: N_19  and  C_20
REMARK                            x       y       z     vdW  Elec       q    Type
REMARK                         _______ _______ _______ _____ _____    ______ ____
ROOT
ATOM      1  C   UNL     1       0.836   2.237 -23.196  0.00  0.00    +0.162 A 
ATOM      2  C   UNL     1       0.801   1.888 -21.981  0.00  0.00    +0.050 A 
ATOM      3  C   UNL     1      -0.274   1.922 -21.341  0.00  0.00    +0.008 A 
ATOM      4  C   UNL     1      -1.327   2.304 -21.907  0.00  0.00    -0.034 A 
ATOM      5  C   UNL     1      -1.312   2.655 -23.117  0.00  0.00    +0.013 A 
ATOM      6  C   UNL     1      -2.362   3.036 -23.680  0.00  0.00    +0.062 C 
ATOM      7  C   UNL     1      -3.492   3.485 -24.423  0.00  0.00    +0.067 C 
ATOM      8  C   UNL     1      -4.719   3.534 -23.727  0.00  0.00    +0.132 C 
ATOM      9  N   UNL     1      -4.718   3.137 -22.374  0.00  0.00    +0.236 N 
ATOM     10  H   UNL     1      -5.577   3.152 -21.822  0.00  0.00    +0.203 HD
ATOM     11  C   UNL     1      -5.763   3.151 -21.686  0.00  0.00    +0.190 C 
ATOM     12  C   UNL     1      -3.470   2.720 -21.826  0.00  0.00    +0.076 C 
ATOM     13  C   UNL     1      -3.439   3.070 -23.042  0.00  0.00    +0.076 C 
ATOM     14  C   UNL     1      -4.499   3.455 -23.612  0.00  0.00    -0.013 C 
ATOM     15  C   UNL     1      -4.475   3.802 -24.815  0.00  0.00    +0.046 C 
ATOM     16  C   UNL     1      -3.392   3.770 -25.465  0.00  0.00    +0.200 C 
ATOM     17  O   UNL     1      -3.370   4.118 -26.668  0.00  0.00    -0.288 OA
ATOM     18  C   UNL     1      -2.341   3.389 -24.903  0.00  0.00    +0.180 C 
ATOM     19  C   UNL     1      -2.031   3.671 -26.083  0.00  0.00    +0.065 C 
ATOM     20  O   UNL     1      -0.861   3.123 -25.033  0.00  0.00    -0.473 OA
ATOM     21  C   UNL     1      -2.422   2.339 -21.260  0.00  0.00    +0.090 C 
ATOM     22  C   UNL     1      -0.229   2.623 -23.766  0.00  0.00    +0.167 A 
ENDROOT
BRANCH   1  24
ATOM     23  C   UNL     1       2.627   3.226 -23.916  0.00  0.00    +0.277 C 
ATOM     24  O   UNL     1       1.913   2.202 -23.832  0.00  0.00    -0.491 OA
ENDBRANCH   1  24
TORSDOF 1
ENDMDL
