MODEL 1
REMARK VINA RESULT:    -9.961      0.000      0.000
REMARK INTER + INTRA:          -7.120
REMARK INTER:                 -10.399
REMARK INTRA:                   3.278
REMARK UNBOUND:                 3.423
REMARK  Name = ZINC000071404291
REMARK  5 active torsions:
REMARK  status: ('A' for Active; 'I' for Inactive)
REMARK    1  A    between atoms: C_1  and  C_2
REMARK    2  A    between atoms: C_2  and  O_4
REMARK    3  A    between atoms: O_4  and  C_5
REMARK    4  A    between atoms: C_9  and  C_10
REMARK    5  A    between atoms: C_19  and  C_20
REMARK                            x       y       z     vdW  Elec       q    Type
REMARK                         _______ _______ _______ _____ _____    ______ ____
ROOT
ATOM      1  C   UNL     1      -3.438   3.218 -23.088  0.00  0.00    +0.276 C 
ATOM      2  C   UNL     1      -2.126   2.964 -22.825  0.00  0.00    +0.155 A 
ATOM      3  O   UNL     1      -1.395   2.738 -21.797  0.00  0.00    -0.463 OA
ATOM      4  C   UNL     1      -0.192   2.567 -22.203  0.00  0.00    +0.199 A 
ATOM      5  C   UNL     1      -0.179   2.686 -23.477  0.00  0.00    -0.005 A 
ATOM      6  C   UNL     1       0.844   2.580 -24.242  0.00  0.00    +0.047 C 
ATOM      7  C   UNL     1      -1.377   2.931 -23.859  0.00  0.00    +0.044 A 
ATOM      8  C   UNL     1      -1.930   3.133 -24.959  0.00  0.00    +0.234 C 
ATOM      9  C   UNL     1      -3.170   3.326 -24.717  0.00  0.00    +0.032 C 
ATOM     10  C   UNL     1      -3.763   3.535 -25.826  0.00  0.00    +0.037 C 
ATOM     11  C   UNL     1      -2.889   3.472 -26.768  0.00  0.00    +0.336 C 
ATOM     12  O   UNL     1      -3.113   3.630 -28.018  0.00  0.00    -0.245 OA
ATOM     13  C   UNL     1      -4.983   3.736 -25.707  0.00  0.00    +0.045 C 
ATOM     14  C   UNL     1      -5.745   3.751 -24.465  0.00  0.00    +0.039 C 
ATOM     15  C   UNL     1      -5.551   3.574 -22.959  0.00  0.00    +0.155 C 
ATOM     16  O   UNL     1      -5.629   3.466 -21.685  0.00  0.00    -0.361 OA
ATOM     17  O   UNL     1      -1.755   3.223 -26.228  0.00  0.00    -0.449 OA
ATOM     18  C   UNL     1      -4.497   3.325 -22.270  0.00  0.00    +0.137 C 
ATOM     19  C   UNL     1      -4.140   3.181 -21.413  0.00  0.00    +0.048 C 
ENDROOT
BRANCH   1  20
ATOM     20  O   UNL     1      -2.925   2.990 -21.635  0.00  0.00    -0.451 OA
BRANCH  20  22
ATOM     21  C   UNL     1      -3.085   3.717 -19.500  0.00  0.00    +0.136 C 
ATOM     22  C   UNL     1      -2.727   3.943 -20.725  0.00  0.00    +0.305 C 
ATOM     23  O   UNL     1      -2.195   5.071 -21.025  0.00  0.00    -0.251 OA
ENDBRANCH  20  22
ENDBRANCH   1  20
TORSDOF 2
ENDMDL
