MODEL 1
REMARK VINA RESULT:    -8.876      0.000      0.000
REMARK INTER + INTRA:         -12.957
REMARK INTER:                 -12.107
REMARK INTRA:                  -0.850
REMARK UNBOUND:                -0.968
REMARK  Name = ZINC000001658901
REMARK  9 active torsions:
REMARK  status: ('A' for Active; 'I' for Inactive)
REMARK    1  A    between atoms: C_1  and  C_2
REMARK    2  A    between atoms: C_2  and  C_3
REMARK    3  A    between atoms: C_4  and  C_5
REMARK    4  A    between atoms: C_5  and  C_6
REMARK    5  A    between atoms: C_6  and  C_7
REMARK    6  A    between atoms: C_7  and  C_8
REMARK    7  A    between atoms: C_9  and  C_10
REMARK    8  A    between atoms: C_10  and  O_11
REMARK    9  A    between atoms: O_11  and  C_12
REMARK                            x       y       z     vdW  Elec       q    Type
REMARK                         _______ _______ _______ _____ _____    ______ ____
ROOT
ATOM      1  O   UNL     1      -2.258   3.004 -20.757  0.00  0.00    -0.488 OA
ENDROOT
BRANCH   1   2
ATOM      2  C   UNL     1      -1.386   3.305 -21.672  0.00  0.00    +0.124 A 
ATOM      3  C   UNL     1      -1.255   4.537 -22.065  0.00  0.00    +0.046 A 
ATOM      4  C   UNL     1      -0.381   4.837 -22.981  0.00  0.00    +0.015 A 
ATOM      5  C   UNL     1       0.361   3.906 -23.502  0.00  0.00    +0.018 A 
ATOM      6  C   UNL     1       1.234   4.207 -24.416  0.00  0.00    +0.018 A 
ATOM      7  C   UNL     1       1.976   3.275 -24.937  0.00  0.00    +0.092 A 
ATOM      8  C   UNL     1       1.845   2.043 -24.544  0.00  0.00    +0.337 A 
ATOM      9  O   UNL     1       0.972   1.743 -23.629  0.00  0.00    -0.422 OA
ATOM     10  O   UNL     1       2.588   1.112 -25.065  0.00  0.00    -0.245 OA
ATOM     11  C   UNL     1       0.230   2.674 -23.108  0.00  0.00    +0.143 A 
ATOM     12  C   UNL     1      -0.643   2.373 -22.193  0.00  0.00    +0.092 A 
ENDBRANCH   1   2
BRANCH   1  13
ATOM     13  C   UNL     1      -3.507   3.325 -20.920  0.00  0.00    +0.256 C 
BRANCH  13  15
ATOM     14  C   UNL     1      -5.135   3.410 -22.474  0.00  0.00    -0.073 C 
ATOM     15  C   UNL     1      -3.932   3.713 -22.087  0.00  0.00    +0.012 C 
ATOM     16  C   UNL     1      -5.914   2.721 -21.695  0.00  0.00    +0.039 C 
BRANCH  14  17
ATOM     17  C   UNL     1      -5.559   3.797 -23.640  0.00  0.00    +0.034 C 
BRANCH  17  18
ATOM     18  C   UNL     1      -4.746   4.388 -24.465  0.00  0.00    +0.031 C 
BRANCH  18  21
ATOM     19  C   UNL     1      -3.527   3.276 -27.483  0.00  0.00    +0.038 C 
ATOM     20  C   UNL     1      -3.573   3.646 -26.237  0.00  0.00    -0.080 C 
ATOM     21  C   UNL     1      -4.701   4.018 -25.710  0.00  0.00    -0.028 C 
ATOM     22  C   UNL     1      -2.489   3.643 -25.519  0.00  0.00    +0.038 C 
ENDBRANCH  18  21
ENDBRANCH  17  18
ENDBRANCH  14  17
ENDBRANCH  13  15
ENDBRANCH   1  13
TORSDOF 6
ENDMDL
