MODEL 1
REMARK VINA RESULT:    -9.261      0.000      0.000
REMARK INTER + INTRA:         -15.120
REMARK INTER:                 -13.557
REMARK INTRA:                  -1.562
REMARK UNBOUND:                -0.987
REMARK  Name = ZINC000002048919
REMARK  10 active torsions:
REMARK  status: ('A' for Active; 'I' for Inactive)
REMARK    1  A    between atoms: C_1  and  C_2
REMARK    2  A    between atoms: C_2  and  C_3
REMARK    3  A    between atoms: C_3  and  C_4
REMARK    4  A    between atoms: C_4  and  C_5
REMARK    5  A    between atoms: C_5  and  C_6
REMARK    6  A    between atoms: C_6  and  C_7
REMARK    7  A    between atoms: C_7  and  C_8
REMARK    8  A    between atoms: C_8  and  C_9
REMARK    9  A    between atoms: C_9  and  N_10
REMARK   10  A    between atoms: CA_20  and  C_21
REMARK                            x       y       z     vdW  Elec       q    Type
REMARK                         _______ _______ _______ _____ _____    ______ ____
ROOT
ATOM      1  N   UNL     1      -0.357   2.287 -22.198  0.00  0.00    -0.339 N 
ATOM      2  C   UNL     1       0.796   1.985 -21.676  0.00  0.00    +0.068 A 
ATOM      3  C   UNL     1       1.724   2.343 -22.511  0.00  0.00    -0.008 A 
ATOM      4  C   UNL     1       2.972   2.146 -22.220  0.00  0.00    +0.098 C 
ATOM      5  CA  UNL     1       3.300   1.589 -21.090  0.00  0.00    +0.114 C 
ATOM      6  N   UNL     1       2.372   1.231 -20.254  0.00  0.00    +0.238 N 
ATOM      7  H1  UNL     1       2.450   0.215 -20.242  0.00  0.00    +0.202 HD
ATOM      8  H2  UNL     1       2.551   1.730 -19.383  0.00  0.00    +0.202 HD
ATOM      9  C   UNL     1       1.145   2.868 -23.552  0.00  0.00    +0.004 A 
ATOM     10  C   UNL     1       1.623   3.373 -24.651  0.00  0.00    +0.010 A 
ATOM     11  C   UNL     1       0.814   3.843 -25.554  0.00  0.00    +0.001 A 
ATOM     12  C   UNL     1      -0.471   3.808 -25.359  0.00  0.00    +0.002 A 
ATOM     13  C   UNL     1      -0.947   3.303 -24.261  0.00  0.00    +0.026 A 
ATOM     14  C   UNL     1       1.119   1.427 -20.544  0.00  0.00    +0.185 C 
ATOM     15  C   UNL     1      -0.141   2.833 -23.356  0.00  0.00    +0.050 A 
ENDROOT
BRANCH   5  16
ATOM     16  C   UNL     1       4.551   1.393 -20.798  0.00  0.00    +0.090 C 
ATOM     17  OXT UNL     1       5.359   2.404 -20.684  0.00  0.00    -0.544 OA
ATOM     18  O   UNL     1       4.994   0.184 -20.621  0.00  0.00    -0.544 OA
ENDBRANCH   5  16
BRANCH   1  19
ATOM     19  C   UNL     1      -1.519   2.080 -21.655  0.00  0.00    +0.122 C 
BRANCH  19  20
ATOM     20  C   UNL     1      -2.069   3.003 -20.923  0.00  0.00    +0.022 C 
BRANCH  20  21
ATOM     21  C   UNL     1      -3.363   3.119 -20.887  0.00  0.00    +0.002 C 
BRANCH  21  22
ATOM     22  C   UNL     1      -4.075   2.784 -21.921  0.00  0.00    +0.000 C 
BRANCH  22  23
ATOM     23  C   UNL     1      -5.219   3.363 -22.139  0.00  0.00    +0.000 C 
BRANCH  23  24
ATOM     24  C   UNL     1      -5.533   3.748 -23.341  0.00  0.00    -0.000 C 
BRANCH  24  25
ATOM     25  C   UNL     1      -4.598   4.068 -24.186  0.00  0.00    -0.000 C 
BRANCH  25  27
ATOM     26  C   UNL     1      -4.074   2.973 -26.083  0.00  0.00    +0.004 C 
ATOM     27  C   UNL     1      -4.777   3.872 -25.459  0.00  0.00    -0.003 C 
ENDBRANCH  25  27
ENDBRANCH  24  25
ENDBRANCH  23  24
ENDBRANCH  22  23
ENDBRANCH  21  22
ENDBRANCH  20  21
ENDBRANCH  19  20
ENDBRANCH   1  19
TORSDOF 9
ENDMDL
