MODEL 1
REMARK VINA RESULT:    -8.054      0.000      0.000
REMARK INTER + INTRA:          -8.290
REMARK INTER:                  -8.290
REMARK INTRA:                   0.000
REMARK UNBOUND:                 0.000
REMARK  Name = ZINC000018286095
REMARK  1 active torsions:
REMARK  status: ('A' for Active; 'I' for Inactive)
REMARK    1  A    between atoms: O_1  and  C_2
REMARK                            x       y       z     vdW  Elec       q    Type
REMARK                         _______ _______ _______ _____ _____    ______ ____
ROOT
ATOM      1  C   UNL     1       0.193   2.063 -23.281  0.00  0.00    +0.233 C 
ATOM      2  C   UNL     1       0.691   1.595 -22.175  0.00  0.00    +0.087 C 
ATOM      3  C   UNL     1      -0.245   1.613 -21.274  0.00  0.00    +0.229 C 
ATOM      4  N   UNL     1      -1.322   2.092 -21.822  0.00  0.00    -0.218 N 
ATOM      5  C   UNL     1      -2.514   2.310 -21.353  0.00  0.00    +0.266 C 
ATOM      6  C   UNL     1      -3.435   2.807 -22.124  0.00  0.00    +0.042 A 
ATOM      7  C   UNL     1      -4.628   3.026 -21.655  0.00  0.00    +0.011 A 
ATOM      8  C   UNL     1      -5.549   3.522 -22.426  0.00  0.00    +0.001 A 
ATOM      9  C   UNL     1      -5.278   3.800 -23.667  0.00  0.00    +0.004 A 
ATOM     10  C   UNL     1      -4.086   3.582 -24.136  0.00  0.00    +0.056 A 
ATOM     11  C   UNL     1      -3.165   3.085 -23.365  0.00  0.00    +0.183 A 
ATOM     12  N   UNL     1      -1.972   2.866 -23.834  0.00  0.00    -0.043 NA
ATOM     13  C   UNL     1      -1.051   2.370 -23.063  0.00  0.00    +0.318 C 
ENDROOT
BRANCH   1  14
ATOM     14  O   UNL     1       0.829   2.199 -24.407  0.00  0.00    -0.380 OA
ATOM     15  H   UNL     1       0.892   3.142 -24.630  0.00  0.00    +0.211 HD
ENDBRANCH   1  14
TORSDOF 1
ENDMDL
