MODEL 1
REMARK VINA RESULT:   -10.740      0.000      0.000
REMARK INTER + INTRA:         -11.054
REMARK INTER:                 -11.054
REMARK INTRA:                   0.000
REMARK UNBOUND:                 0.000
REMARK  Name = CN1CC[C@]23CC(=O)CC[C@@H]2[C@@H]1Cc1ccc(O)cc13                       ZINC000100393796
REMARK  2 active torsions:
REMARK  status: ('A' for Active; 'I' for Inactive)
REMARK    1  A    between atoms: C_1  and  N_2
REMARK    2  A    between atoms: C_17  and  O_18
REMARK                            x       y       z     vdW  Elec       q    Type
REMARK                         _______ _______ _______ _____ _____    ______ ____
ROOT
ATOM      1  C   UNL     1      -2.992   3.373 -26.337  0.00  0.00    +0.190 C 
ATOM      2  N   UNL     1      -2.804   3.514 -24.843  0.00  0.00    +0.236 N 
ATOM      3  H   UNL     1      -3.568   3.465 -24.166  0.00  0.00    +0.203 HD
ATOM      4  C   UNL     1      -2.711   3.617 -23.668  0.00  0.00    +0.132 C 
ATOM      5  C   UNL     1      -1.698   3.800 -23.026  0.00  0.00    +0.063 C 
ATOM      6  C   UNL     1      -0.860   3.876 -23.478  0.00  0.00    +0.015 C 
ATOM      7  C   UNL     1       0.253   4.066 -22.910  0.00  0.00    +0.086 C 
ATOM      8  C   UNL     1       1.346   4.155 -23.622  0.00  0.00    +0.134 C 
ATOM      9  C   UNL     1       1.305   4.047 -24.940  0.00  0.00    +0.075 C 
ATOM     10  C   UNL     1       0.176   3.850 -25.570  0.00  0.00    +0.017 C 
ATOM     11  O   UNL     1       2.464   4.351 -22.994  0.00  0.00    -0.297 OA
ATOM     12  C   UNL     1      -2.419   3.723 -22.800  0.00  0.00    -0.033 A 
ATOM     13  C   UNL     1      -2.387   3.827 -21.518  0.00  0.00    +0.050 A 
ATOM     14  C   UNL     1      -3.465   3.737 -20.841  0.00  0.00    +0.117 A 
ATOM     15  C   UNL     1      -4.590   3.543 -21.440  0.00  0.00    +0.046 A 
ATOM     16  C   UNL     1      -4.629   3.437 -22.733  0.00  0.00    +0.007 A 
ATOM     17  C   UNL     1      -3.551   3.526 -23.413  0.00  0.00    -0.038 A 
ATOM     18  C   UNL     1      -3.545   3.434 -24.607  0.00  0.00    +0.090 C 
ATOM     19  C   UNL     1      -0.909   3.758 -24.908  0.00  0.00    +0.049 C 
ATOM     20  C   UNL     1      -2.139   3.558 -25.402  0.00  0.00    +0.072 C 
ENDROOT
BRANCH  14  21
ATOM     21  O   UNL     1      -3.261   3.868 -19.502  0.00  0.00    -0.507 OA
ATOM     22  H   UNL     1      -3.690   3.289 -18.904  0.00  0.00    +0.292 HD
ENDBRANCH  14  21
TORSDOF 1
ENDMDL
