MODEL 1
REMARK VINA RESULT:    -9.385      0.000      0.000
REMARK INTER + INTRA:         -11.331
REMARK INTER:                 -10.958
REMARK INTRA:                  -0.374
REMARK UNBOUND:                -0.575
REMARK  Name = ZINC000001627642
REMARK  5 active torsions:
REMARK  status: ('A' for Active; 'I' for Inactive)
REMARK    1  A    between atoms: C_1  and  O_2
REMARK    2  A    between atoms: O_2  and  C_3
REMARK    3  A    between atoms: C_7  and  O_8
REMARK    4  A    between atoms: C_9  and  C_10
REMARK    5  A    between atoms: C_14  and  C_15
REMARK                            x       y       z     vdW  Elec       q    Type
REMARK                         _______ _______ _______ _____ _____    ______ ____
ROOT
ATOM      1  C   UNL     1       2.625   1.400 -22.277  0.00  0.00    +0.130 A 
ATOM      2  C   UNL     1       1.349   1.319 -22.043  0.00  0.00    +0.092 A 
ATOM      3  C   UNL     1       0.560   2.288 -22.399  0.00  0.00    +0.139 A 
ATOM      4  C   UNL     1       1.046   3.339 -22.989  0.00  0.00    +0.101 A 
ATOM      5  C   UNL     1       0.256   4.309 -23.345  0.00  0.00    +0.174 C 
ATOM      6  C   UNL     1      -1.019   4.228 -23.111  0.00  0.00    +0.129 C 
ATOM      7  C   UNL     1      -1.506   3.177 -22.520  0.00  0.00    +0.211 C 
ATOM      8  O   UNL     1       0.744   5.360 -23.936  0.00  0.00    -0.292 OA
ATOM      9  C   UNL     1       2.322   3.421 -23.224  0.00  0.00    +0.137 A 
ATOM     10  O   UNL     1      -0.717   2.207 -22.164  0.00  0.00    -0.483 OA
ATOM     11  C   UNL     1       3.111   2.451 -22.868  0.00  0.00    +0.033 A 
ATOM     12  C   UNL     1       4.388   2.533 -23.102  0.00  0.00    +0.051 C 
ENDROOT
BRANCH   7  13
ATOM     13  C   UNL     1      -2.782   3.094 -22.285  0.00  0.00    -0.007 A 
ATOM     14  C   UNL     1      -3.206   2.539 -21.188  0.00  0.00    +0.007 A 
ATOM     15  C   UNL     1      -4.482   2.456 -20.953  0.00  0.00    +0.000 A 
ATOM     16  C   UNL     1      -5.334   2.928 -21.814  0.00  0.00    +0.000 A 
ATOM     17  C   UNL     1      -4.910   3.484 -22.910  0.00  0.00    +0.000 A 
ATOM     18  C   UNL     1      -3.634   3.567 -23.146  0.00  0.00    +0.007 A 
ENDBRANCH   7  13
BRANCH   1  20
ATOM     19  C   UNL     1       3.788   0.318 -20.681  0.00  0.00    +0.277 C 
ATOM     20  O   UNL     1       3.415   0.431 -21.921  0.00  0.00    -0.495 OA
ENDBRANCH   1  20
BRANCH   9  21
ATOM     21  O   UNL     1       2.809   4.472 -23.814  0.00  0.00    -0.506 OA
ATOM     22  H   UNL     1       3.185   4.397 -24.669  0.00  0.00    +0.292 HD
ENDBRANCH   9  21
TORSDOF 3
ENDMDL
