MODEL 1
REMARK VINA RESULT:   -11.304      0.000      0.000
REMARK INTER + INTRA:         -12.117
REMARK INTER:                 -11.967
REMARK INTRA:                  -0.151
REMARK UNBOUND:                -0.153
REMARK  Name = COc1ccc2c3c1O[C@]1(C)C(=O)C=C[C@]4(Br)[C@@H](C2)N(C)CC[C@@]314       ZINC000100393733
REMARK  4 active torsions:
REMARK  status: ('A' for Active; 'I' for Inactive)
REMARK    1  A    between atoms: C_1  and  O_2
REMARK    2  A    between atoms: O_2  and  C_3
REMARK    3  A    between atoms: C_10  and  C_11
REMARK    4  A    between atoms: N_20  and  C_21
REMARK                            x       y       z     vdW  Elec       q    Type
REMARK                         _______ _______ _______ _____ _____    ______ ____
ROOT
ATOM      1  C   UNL     1       0.430   2.180 -23.233  0.00  0.00    +0.162 A 
ATOM      2  C   UNL     1       0.368   1.814 -22.022  0.00  0.00    +0.050 A 
ATOM      3  C   UNL     1      -0.715   1.871 -21.395  0.00  0.00    +0.008 A 
ATOM      4  C   UNL     1      -1.746   2.292 -21.969  0.00  0.00    -0.034 A 
ATOM      5  C   UNL     1      -1.708   2.662 -23.177  0.00  0.00    +0.014 A 
ATOM      6  C   UNL     1      -2.740   3.082 -23.747  0.00  0.00    +0.075 C 
ATOM      7  C   UNL     1      -3.848   3.577 -24.499  0.00  0.00    +0.069 C 
ATOM      8  C   UNL     1      -5.083   3.651 -23.817  0.00  0.00    +0.132 C 
ATOM      9  N   UNL     1      -5.114   3.237 -22.471  0.00  0.00    +0.237 N 
ATOM     10  H   UNL     1      -5.987   3.275 -21.944  0.00  0.00    +0.203 HD
ATOM     11  C   UNL     1      -6.169   3.272 -21.798  0.00  0.00    +0.191 C 
ATOM     12  C   UNL     1      -3.887   2.773 -21.909  0.00  0.00    +0.090 C 
ATOM     13  C   UNL     1      -3.820   3.137 -23.119  0.00  0.00    +0.101 C 
ATOM     14 BR   UNL     1      -2.790   2.716 -22.542  0.00  0.00    -0.073 Br
ATOM     15  C   UNL     1      -4.868   3.561 -23.689  0.00  0.00    +0.001 C 
ATOM     16  C   UNL     1      -4.821   3.927 -24.890  0.00  0.00    +0.048 C 
ATOM     17  C   UNL     1      -3.731   3.875 -25.537  0.00  0.00    +0.200 C 
ATOM     18  O   UNL     1      -3.689   4.241 -26.733  0.00  0.00    -0.288 OA
ATOM     19  C   UNL     1      -2.694   3.453 -24.966  0.00  0.00    +0.181 C 
ATOM     20  C   UNL     1      -2.361   3.744 -26.141  0.00  0.00    +0.065 C 
ATOM     21  O   UNL     1      -1.217   3.144 -25.081  0.00  0.00    -0.473 OA
ATOM     22  C   UNL     1      -2.855   2.353 -21.337  0.00  0.00    +0.091 C 
ATOM     23  C   UNL     1      -0.616   2.606 -23.812  0.00  0.00    +0.168 A 
ENDROOT
BRANCH   1  25
ATOM     24  C   UNL     1       2.192   3.160 -24.036  0.00  0.00    +0.277 C 
ATOM     25  O   UNL     1       1.515   2.121 -23.856  0.00  0.00    -0.491 OA
ENDBRANCH   1  25
TORSDOF 1
ENDMDL
