MODEL 1
REMARK VINA RESULT:    -9.759      0.000      0.000
REMARK INTER + INTRA:         -12.606
REMARK INTER:                 -12.220
REMARK INTRA:                  -0.386
REMARK UNBOUND:                -0.565
REMARK  Name = ZINC000000001368
REMARK  8 active torsions:
REMARK  status: ('A' for Active; 'I' for Inactive)
REMARK    1  A    between atoms: C_7  and  O_8
REMARK    2  A    between atoms: O_8  and  C_9
REMARK    3  A    between atoms: C_11  and  C_12
REMARK    4  A    between atoms: C_12  and  O_13
REMARK    5  A    between atoms: C_14  and  O_15
REMARK    6  A    between atoms: C_16  and  O_17
REMARK    7  A    between atoms: C_18  and  O_19
REMARK    8  A    between atoms: C_20  and  O_21
REMARK                            x       y       z     vdW  Elec       q    Type
REMARK                         _______ _______ _______ _____ _____    ______ ____
ROOT
ATOM      1  C   UNL     1       3.608   3.061 -23.187  0.00  0.00    +0.339 C 
ATOM      2  O   UNL     1       4.412   4.188 -22.742  0.00  0.00    -0.331 OA
ATOM      3  C   UNL     1       5.827   4.324 -22.919  0.00  0.00    +0.179 C 
ATOM      4  C   UNL     1       6.523   2.958 -23.063  0.00  0.00    +0.177 C 
ATOM      5  C   UNL     1       5.858   1.911 -22.152  0.00  0.00    +0.180 C 
ATOM      6  C   UNL     1       4.286   2.038 -22.030  0.00  0.00    +0.214 C 
ENDROOT
BRANCH   5   7
ATOM      7  O   UNL     1       6.267   0.615 -22.545  0.00  0.00    -0.386 OA
ATOM      8  H   UNL     1       5.699   0.302 -23.265  0.00  0.00    +0.210 HD
ENDBRANCH   5   7
BRANCH   4   9
ATOM      9  O   UNL     1       7.919   2.983 -22.833  0.00  0.00    -0.386 OA
ATOM     10  H   UNL     1       8.141   2.363 -22.120  0.00  0.00    +0.210 HD
ENDBRANCH   4   9
BRANCH   6  11
ATOM     11  O   UNL     1       4.199   2.543 -20.697  0.00  0.00    -0.383 OA
ATOM     12  H   UNL     1       4.878   2.121 -20.146  0.00  0.00    +0.210 HD
ENDBRANCH   6  11
BRANCH   1  13
ATOM     13  O   UNL     1       1.320   3.314 -23.876  0.00  0.00    -0.457 OA
BRANCH  13  20
ATOM     14  O   UNL     1      -6.260   3.334 -22.066  0.00  0.00    -0.245 OA
ATOM     15  C   UNL     1      -5.034   3.366 -22.096  0.00  0.00    +0.337 A 
ATOM     16  C   UNL     1      -4.218   3.385 -20.859  0.00  0.00    +0.092 A 
ATOM     17  C   UNL     1      -2.875   3.390 -20.903  0.00  0.00    +0.018 A 
ATOM     18  C   UNL     1      -2.170   3.385 -22.180  0.00  0.00    +0.021 A 
ATOM     19  C   UNL     1      -0.764   3.365 -22.260  0.00  0.00    +0.061 A 
ATOM     20  C   UNL     1      -0.095   3.373 -23.523  0.00  0.00    +0.166 A 
ATOM     21  C   UNL     1      -0.918   3.391 -24.679  0.00  0.00    +0.162 A 
ATOM     22  C   UNL     1      -2.324   3.407 -24.594  0.00  0.00    +0.096 A 
ATOM     23  C   UNL     1      -2.960   3.394 -23.343  0.00  0.00    +0.143 A 
ATOM     24  O   UNL     1      -4.337   3.376 -23.279  0.00  0.00    -0.422 OA
BRANCH  21  25
ATOM     25  O   UNL     1      -0.334   3.374 -25.913  0.00  0.00    -0.503 OA
ATOM     26  H   UNL     1       0.571   3.598 -26.006  0.00  0.00    +0.292 HD
ENDBRANCH  21  25
ENDBRANCH  13  20
ENDBRANCH   1  13
BRANCH   3  27
ATOM     27  C   UNL     1       6.294   5.169 -21.717  0.00  0.00    +0.190 C 
BRANCH  27  28
ATOM     28  O   UNL     1       6.473   4.346 -20.585  0.00  0.00    -0.392 OA
ATOM     29  H   UNL     1       7.389   4.030 -20.556  0.00  0.00    +0.210 HD
ENDBRANCH  27  28
ENDBRANCH   3  27
TORSDOF 8
ENDMDL
