MODEL 1
REMARK VINA RESULT:   -10.475      0.000      0.000
REMARK INTER + INTRA:          -9.490
REMARK INTER:                 -11.812
REMARK INTRA:                   2.322
REMARK UNBOUND:                 2.210
REMARK  Name = COC1=CC=C2[C@H]3Cc4ccc(OC)c5c4[C@]2(CCN3C)[C@]1(C)O5                 ZINC000100393540
REMARK  6 active torsions:
REMARK  status: ('A' for Active; 'I' for Inactive)
REMARK    1  A    between atoms: C_1  and  O_2
REMARK    2  A    between atoms: O_2  and  C_3
REMARK    3  A    between atoms: C_12  and  O_13
REMARK    4  A    between atoms: O_13  and  C_14
REMARK    5  A    between atoms: N_20  and  C_21
REMARK    6  A    between atoms: C_22  and  C_23
REMARK                            x       y       z     vdW  Elec       q    Type
REMARK                         _______ _______ _______ _____ _____    ______ ____
ROOT
ATOM      1  C   UNL     1      -2.749   3.597 -25.362  0.00  0.00    +0.142 C 
ATOM      2  C   UNL     1      -3.893   3.697 -24.828  0.00  0.00    +0.045 C 
ATOM      3  C   UNL     1      -4.059   3.378 -23.627  0.00  0.00    +0.009 C 
ATOM      4  C   UNL     1      -3.082   2.954 -22.943  0.00  0.00    -0.007 C 
ATOM      5  C   UNL     1      -3.258   2.633 -21.729  0.00  0.00    +0.096 C 
ATOM      6  C   UNL     1      -2.293   2.213 -21.050  0.00  0.00    +0.094 C 
ATOM      7  C   UNL     1      -1.138   2.109 -21.579  0.00  0.00    -0.034 A 
ATOM      8  C   UNL     1      -0.169   1.689 -20.899  0.00  0.00    +0.008 A 
ATOM      9  C   UNL     1       0.964   1.588 -21.423  0.00  0.00    +0.050 A 
ATOM     10  C   UNL     1       1.143   1.908 -22.636  0.00  0.00    +0.162 A 
ATOM     11  C   UNL     1       0.163   2.333 -23.321  0.00  0.00    +0.168 A 
ATOM     12  O   UNL     1      -0.309   2.836 -24.657  0.00  0.00    -0.473 OA
ATOM     13  C   UNL     1      -0.980   2.433 -22.789  0.00  0.00    +0.016 A 
ATOM     14  N   UNL     1      -4.421   3.099 -22.413  0.00  0.00    +0.239 N 
ATOM     15  H   UNL     1      -5.332   3.170 -21.958  0.00  0.00    +0.204 HD
ATOM     16  C   UNL     1      -5.531   3.179 -21.838  0.00  0.00    +0.191 C 
ATOM     17  C   UNL     1      -4.261   3.465 -23.766  0.00  0.00    +0.133 C 
ATOM     18  C   UNL     1      -2.971   3.341 -24.330  0.00  0.00    +0.071 C 
ATOM     19  C   UNL     1      -1.947   2.852 -23.464  0.00  0.00    +0.077 C 
ATOM     20  C   UNL     1      -1.782   3.178 -24.687  0.00  0.00    +0.178 C 
ATOM     21  C   UNL     1      -1.337   3.418 -25.834  0.00  0.00    +0.065 C 
ENDROOT
BRANCH   1  23
ATOM     22  C   UNL     1      -3.386   3.505 -27.436  0.00  0.00    +0.276 C 
ATOM     23  O   UNL     1      -2.586   3.917 -26.564  0.00  0.00    -0.495 OA
ENDBRANCH   1  23
BRANCH  10  24
ATOM     24  O   UNL     1       2.278   1.806 -23.156  0.00  0.00    -0.491 OA
ATOM     25  C   UNL     1       2.975   0.786 -22.946  0.00  0.00    +0.277 C 
ENDBRANCH  10  24
TORSDOF 2
ENDMDL
