MODEL 1
REMARK VINA RESULT:    -8.269      0.000      0.000
REMARK INTER + INTRA:         -10.689
REMARK INTER:                 -10.485
REMARK INTRA:                  -0.204
REMARK UNBOUND:                -0.245
REMARK  Name = ZINC000013374377
REMARK  7 active torsions:
REMARK  status: ('A' for Active; 'I' for Inactive)
REMARK    1  A    between atoms: C_2  and  C_3
REMARK    2  A    between atoms: C_2  and  C_4
REMARK    3  A    between atoms: C_4  and  O_5
REMARK    4  A    between atoms: C_4  and  C_6
REMARK    5  A    between atoms: C_6  and  C_7
REMARK    6  A    between atoms: C_8  and  O_9
REMARK    7  A    between atoms: O_9  and  C_10
REMARK                            x       y       z     vdW  Elec       q    Type
REMARK                         _______ _______ _______ _____ _____    ______ ____
ROOT
ATOM      1  C   UNL     1      -1.694   3.227 -23.050  0.00  0.00    +0.040 A 
ATOM      2  C   UNL     1      -1.254   2.657 -21.967  0.00  0.00    +0.127 A 
ATOM      3  C   UNL     1      -2.088   2.302 -21.035  0.00  0.00    +0.047 A 
ATOM      4  C   UNL     1      -3.361   2.515 -21.185  0.00  0.00    +0.015 A 
ATOM      5  C   UNL     1      -3.800   3.085 -22.268  0.00  0.00    +0.018 A 
ATOM      6  C   UNL     1      -5.074   3.298 -22.419  0.00  0.00    +0.018 A 
ATOM      7  C   UNL     1      -5.514   3.868 -23.501  0.00  0.00    +0.092 A 
ATOM      8  C   UNL     1      -4.681   4.223 -24.434  0.00  0.00    +0.337 A 
ATOM      9  O   UNL     1      -3.407   4.009 -24.283  0.00  0.00    -0.422 OA
ATOM     10  O   UNL     1      -5.121   4.792 -25.516  0.00  0.00    -0.245 OA
ATOM     11  C   UNL     1      -2.967   3.440 -23.200  0.00  0.00    +0.146 A 
ENDROOT
BRANCH   2  12
ATOM     12  O   UNL     1       0.020   2.443 -21.816  0.00  0.00    -0.495 OA
ATOM     13  C   UNL     1       0.430   1.469 -21.061  0.00  0.00    +0.277 C 
ENDBRANCH   2  12
BRANCH   1  14
ATOM     14  C   UNL     1      -0.861   3.582 -23.982  0.00  0.00    +0.078 C 
BRANCH  14  15
ATOM     15  C   UNL     1      -0.105   4.627 -23.815  0.00  0.00    +0.144 C 
BRANCH  15  17
ATOM     16  C   UNL     1       2.064   5.140 -23.497  0.00  0.00    +0.010 C 
ATOM     17  C   UNL     1       1.128   4.610 -24.227  0.00  0.00    -0.051 C 
ATOM     18  C   UNL     1       1.424   4.064 -25.369  0.00  0.00    +0.041 C 
ENDBRANCH  15  17
BRANCH  15  19
ATOM     19  O   UNL     1      -0.583   5.688 -23.236  0.00  0.00    -0.387 OA
ATOM     20  H   UNL     1       0.113   6.360 -23.168  0.00  0.00    +0.210 HD
ENDBRANCH  15  19
ENDBRANCH  14  15
ENDBRANCH   1  14
TORSDOF 5
ENDMDL
