MODEL 1
REMARK VINA RESULT:   -10.946      0.000      0.000
REMARK INTER + INTRA:         -11.738
REMARK INTER:                 -11.617
REMARK INTRA:                  -0.121
REMARK UNBOUND:                -0.152
REMARK  Name = COc1cc(Br)c2c3c1O[C@H]1C4(CC[C@@H]5[C@H](C2)N(C)CC[C@@]351)OCCO4     ZINC000100392459
REMARK  3 active torsions:
REMARK  status: ('A' for Active; 'I' for Inactive)
REMARK    1  A    between atoms: C_1  and  O_2
REMARK    2  A    between atoms: O_2  and  C_3
REMARK    3  A    between atoms: N_18  and  C_19
REMARK                            x       y       z     vdW  Elec       q    Type
REMARK                         _______ _______ _______ _____ _____    ______ ____
ROOT
ATOM      1  C   UNL     1       1.137   1.848 -21.945  0.00  0.00    +0.163 A 
ATOM      2  C   UNL     1       1.922   2.019 -22.930  0.00  0.00    +0.065 A 
ATOM      3  C   UNL     1       1.486   2.447 -24.027  0.00  0.00    +0.025 A 
ATOM      4  C   UNL     1       0.262   2.709 -24.154  0.00  0.00    -0.021 A 
ATOM      5  C   UNL     1      -0.540   2.547 -23.188  0.00  0.00    +0.013 A 
ATOM      6  C   UNL     1      -1.762   2.809 -23.316  0.00  0.00    +0.054 C 
ATOM      7  C   UNL     1      -3.169   3.074 -23.347  0.00  0.00    +0.067 C 
ATOM      8  C   UNL     1      -3.691   3.559 -24.574  0.00  0.00    +0.132 C 
ATOM      9  N   UNL     1      -2.783   3.736 -25.649  0.00  0.00    +0.236 N 
ATOM     10  H   UNL     1      -3.096   4.081 -26.556  0.00  0.00    +0.203 HD
ATOM     11  C   UNL     1      -3.165   4.162 -26.769  0.00  0.00    +0.190 C 
ATOM     12  C   UNL     1      -1.412   3.408 -25.398  0.00  0.00    +0.073 C 
ATOM     13  C   UNL     1      -2.199   3.239 -24.417  0.00  0.00    +0.053 C 
ATOM     14  C   UNL     1      -3.437   3.504 -24.545  0.00  0.00    +0.015 C 
ATOM     15  C   UNL     1      -4.223   3.338 -23.577  0.00  0.00    +0.069 C 
ATOM     16  C   UNL     1      -3.786   2.906 -22.464  0.00  0.00    +0.208 C 
ATOM     17  O   UNL     1      -3.464   2.485 -21.325  0.00  0.00    -0.343 OA
ATOM     18  C   UNL     1      -4.501   2.447 -20.615  0.00  0.00    +0.191 C 
ATOM     19  C   UNL     1      -5.465   2.845 -21.318  0.00  0.00    +0.191 C 
ATOM     20  O   UNL     1      -5.024   3.129 -22.460  0.00  0.00    -0.343 OA
ATOM     21  C   UNL     1      -2.565   2.643 -22.336  0.00  0.00    +0.244 C 
ATOM     22  O   UNL     1      -1.457   2.151 -21.417  0.00  0.00    -0.479 OA
ATOM     23  C   UNL     1      -0.189   3.146 -25.271  0.00  0.00    +0.091 C 
ATOM     24 BR   UNL     1       2.269   2.613 -24.995  0.00  0.00    -0.050 Br
ATOM     25  C   UNL     1      -0.101   2.115 -22.077  0.00  0.00    +0.167 A 
ENDROOT
BRANCH   1  27
ATOM     26  C   UNL     1       2.819   1.398 -20.635  0.00  0.00    +0.277 C 
ATOM     27  O   UNL     1       1.579   1.420 -20.849  0.00  0.00    -0.491 OA
ENDBRANCH   1  27
TORSDOF 1
ENDMDL
