MODEL 1
REMARK VINA RESULT:   -10.765      0.000      0.000
REMARK INTER + INTRA:         -11.557
REMARK INTER:                 -11.458
REMARK INTRA:                  -0.099
REMARK UNBOUND:                -0.162
REMARK  Name = ZINC000029477726
REMARK  4 active torsions:
REMARK  status: ('A' for Active; 'I' for Inactive)
REMARK    1  A    between atoms: C_1  and  O_2
REMARK    2  A    between atoms: O_2  and  C_3
REMARK    3  A    between atoms: N_12  and  C_13
REMARK    4  A    between atoms: C_17  and  C_18
REMARK                            x       y       z     vdW  Elec       q    Type
REMARK                         _______ _______ _______ _____ _____    ______ ____
ROOT
ATOM      1  C   UNL     1       0.144   3.847 -23.932  0.00  0.00    +0.120 A 
ATOM      2  C   UNL     1      -0.084   3.771 -25.177  0.00  0.00    +0.046 A 
ATOM      3  C   UNL     1      -1.281   3.646 -25.570  0.00  0.00    +0.008 A 
ATOM      4  C   UNL     1      -2.363   3.592 -24.575  0.00  0.00    -0.038 A 
ATOM      5  C   UNL     1      -2.097   3.662 -23.550  0.00  0.00    -0.033 A 
ATOM      6  C   UNL     1      -2.628   3.649 -22.761  0.00  0.00    +0.016 C 
ATOM      7  C   UNL     1      -1.525   3.692 -24.034  0.00  0.00    +0.063 C 
ATOM      8  C   UNL     1      -2.018   3.586 -25.418  0.00  0.00    +0.132 C 
ATOM      9  N   UNL     1      -3.173   3.473 -25.611  0.00  0.00    +0.236 N 
ATOM     10  H   UNL     1      -4.175   3.390 -25.438  0.00  0.00    +0.203 HD
ATOM     11  C   UNL     1      -4.226   3.430 -24.428  0.00  0.00    +0.073 C 
ATOM     12  C   UNL     1      -2.980   3.429 -26.998  0.00  0.00    +0.190 C 
ATOM     13  C   UNL     1      -2.322   3.730 -21.544  0.00  0.00    +0.086 C 
ATOM     14  C   UNL     1      -3.250   3.686 -20.639  0.00  0.00    +0.134 C 
ATOM     15  O   UNL     1      -2.933   3.770 -19.398  0.00  0.00    -0.297 OA
ATOM     16  C   UNL     1      -4.517   3.557 -20.976  0.00  0.00    +0.078 C 
ATOM     17  C   UNL     1      -4.879   3.469 -22.218  0.00  0.00    +0.002 C 
ATOM     18  C   UNL     1      -6.120   3.343 -22.529  0.00  0.00    +0.008 C 
ATOM     19  C   UNL     1      -4.003   3.508 -23.125  0.00  0.00    +0.052 C 
ATOM     20  C   UNL     1      -3.560   3.466 -24.978  0.00  0.00    +0.090 C 
ATOM     21  C   UNL     1      -0.851   3.794 -23.108  0.00  0.00    +0.050 A 
ENDROOT
BRANCH   1  23
ATOM     22  C   UNL     1       2.281   4.801 -23.294  0.00  0.00    +0.277 C 
ATOM     23  O   UNL     1       1.324   3.986 -23.200  0.00  0.00    -0.495 OA
ENDBRANCH   1  23
TORSDOF 1
ENDMDL
