MODEL 1
REMARK VINA RESULT:   -11.358      0.000      0.000
REMARK INTER + INTRA:         -12.022
REMARK INTER:                 -12.022
REMARK INTRA:                   0.000
REMARK UNBOUND:                 0.000
REMARK  Name = ZINC000003902442
REMARK  3 active torsions:
REMARK  status: ('A' for Active; 'I' for Inactive)
REMARK    1  A    between atoms: C_1  and  C_2
REMARK    2  A    between atoms: C_9  and  O_10
REMARK    3  A    between atoms: C_20  and  O_21
REMARK                            x       y       z     vdW  Elec       q    Type
REMARK                         _______ _______ _______ _____ _____    ______ ____
ROOT
ATOM      1  C   UNL     1      -4.514   3.854 -23.850  0.00  0.00    +0.014 C 
ATOM      2  C   UNL     1      -3.670   3.277 -23.045  0.00  0.00    -0.003 C 
ATOM      3  C   UNL     1      -3.158   3.624 -24.189  0.00  0.00    +0.010 C 
ATOM      4  C   UNL     1      -1.905   3.385 -24.439  0.00  0.00    +0.009 C 
ATOM      5  C   UNL     1      -1.164   2.798 -23.546  0.00  0.00    +0.023 C 
ATOM      6  C   UNL     1       0.089   2.559 -23.795  0.00  0.00    -0.040 A 
ATOM      7  C   UNL     1       0.601   2.906 -24.939  0.00  0.00    +0.008 A 
ATOM      8  C   UNL     1       1.855   2.666 -25.189  0.00  0.00    +0.047 A 
ATOM      9  C   UNL     1       2.594   2.080 -24.295  0.00  0.00    +0.131 A 
ATOM     10  C   UNL     1       2.082   1.733 -23.153  0.00  0.00    +0.063 A 
ATOM     11 BR   UNL     1       2.823   1.146 -22.260  0.00  0.00    -0.046 Br
ATOM     12  C   UNL     1       0.830   1.972 -22.902  0.00  0.00    -0.026 A 
ATOM     13  C   UNL     1       0.316   1.625 -21.759  0.00  0.00    +0.037 C 
ATOM     14  C   UNL     1      -0.937   1.865 -21.509  0.00  0.00    +0.009 C 
ATOM     15  C   UNL     1      -1.677   2.451 -22.402  0.00  0.00    +0.000 C 
ATOM     16  C   UNL     1      -4.868   3.399 -22.557  0.00  0.00    +0.121 C 
ATOM     17  C   UNL     1      -4.869   2.888 -21.361  0.00  0.00    +0.032 C 
ATOM     18  C   UNL     1      -3.671   2.450 -21.112  0.00  0.00    +0.007 C 
ATOM     19  C   UNL     1      -2.930   2.690 -22.152  0.00  0.00    +0.001 C 
ENDROOT
BRANCH   9  20
ATOM     20  O   UNL     1       3.848   1.840 -24.546  0.00  0.00    -0.506 OA
ATOM     21  H   UNL     1       4.197   0.981 -24.410  0.00  0.00    +0.292 HD
ENDBRANCH   9  20
BRANCH  16  22
ATOM     22  O   UNL     1      -5.888   3.938 -23.157  0.00  0.00    -0.391 OA
ATOM     23  H   UNL     1      -6.451   4.383 -22.504  0.00  0.00    +0.210 HD
ENDBRANCH  16  22
TORSDOF 2
ENDMDL
