MODEL 1
REMARK VINA RESULT:    -8.780      0.000      0.000
REMARK INTER + INTRA:         -17.146
REMARK INTER:                 -15.516
REMARK INTRA:                  -1.630
REMARK UNBOUND:                -1.694
REMARK  Name = CCCCCCCCCCCC1=C(O)C(=O)C=C(Nc2ccc(C(=O)O)cc2)C1=O                    ZINC000100393415
REMARK  14 active torsions:
REMARK  status: ('A' for Active; 'I' for Inactive)
REMARK    1  A    between atoms: C_1  and  C_2
REMARK    2  A    between atoms: C_2  and  C_3
REMARK    3  A    between atoms: C_3  and  C_4
REMARK    4  A    between atoms: C_4  and  C_5
REMARK    5  A    between atoms: C_5  and  C_6
REMARK    6  A    between atoms: C_6  and  C_7
REMARK    7  A    between atoms: C_7  and  C_8
REMARK    8  A    between atoms: C_8  and  C_9
REMARK    9  A    between atoms: C_9  and  C_10
REMARK   10  A    between atoms: C_10  and  C_11
REMARK   11  A    between atoms: C_11  and  C_12
REMARK   12  A    between atoms: C_18  and  N_19
REMARK   13  A    between atoms: N_19  and  C_20
REMARK   14  A    between atoms: C_23  and  C_24
REMARK                            x       y       z     vdW  Elec       q    Type
REMARK                         _______ _______ _______ _____ _____    ______ ____
ROOT
ATOM      1  C   UNL     1       3.062   2.843 -23.986  0.00  0.00    -0.008 C 
ATOM      2  C   UNL     1       3.206   3.975 -23.363  0.00  0.00    +0.228 C 
ATOM      3  C   UNL     1       2.363   4.942 -23.567  0.00  0.00    +0.227 C 
ATOM      4  C   UNL     1       1.374   4.778 -24.396  0.00  0.00    +0.077 C 
ATOM      5  C   UNL     1       1.229   3.647 -25.019  0.00  0.00    +0.022 C 
ATOM      6  O   UNL     1       2.507   6.073 -22.944  0.00  0.00    -0.284 OA
ATOM      7  O   UNL     1       4.195   4.138 -22.534  0.00  0.00    -0.284 OA
ATOM      8  C   UNL     1       2.073   2.679 -24.815  0.00  0.00    -0.112 C 
ATOM      9  O   UNL     1       1.928   1.548 -25.438  0.00  0.00    -0.828 OA
ENDROOT
BRANCH   5  10
ATOM     10  N   UNL     1       0.241   3.483 -25.847  0.00  0.00    -0.315 N 
ATOM     11  H   UNL     1       0.415   3.185 -26.769  0.00  0.00    +0.152 HD
BRANCH  10  12
ATOM     12  C   UNL     1      -0.978   3.712 -25.458  0.00  0.00    +0.031 A 
ATOM     13  C   UNL     1      -1.979   3.273 -26.163  0.00  0.00    +0.024 A 
ATOM     14  C   UNL     1      -3.198   3.502 -25.775  0.00  0.00    +0.011 A 
ATOM     15  C   UNL     1      -3.418   4.170 -24.681  0.00  0.00    -0.003 A 
ATOM     16  C   UNL     1      -2.417   4.608 -23.976  0.00  0.00    +0.011 A 
ATOM     17  C   UNL     1      -1.198   4.379 -24.365  0.00  0.00    +0.024 A 
BRANCH  15  18
ATOM     18  C   UNL     1      -4.637   4.398 -24.292  0.00  0.00    +0.072 C 
ATOM     19  O   UNL     1      -5.320   5.364 -24.831  0.00  0.00    -0.545 OA
ATOM     20  O   UNL     1      -5.173   3.661 -23.365  0.00  0.00    -0.545 OA
ENDBRANCH  15  18
ENDBRANCH  10  12
ENDBRANCH   5  10
BRANCH   1  21
ATOM     21  C   UNL     1       3.905   1.875 -23.782  0.00  0.00    +0.038 C 
BRANCH  21  22
ATOM     22  C   UNL     1       3.982   1.317 -22.610  0.00  0.00    +0.005 C 
BRANCH  22  23
ATOM     23  C   UNL     1       2.921   0.801 -22.065  0.00  0.00    +0.000 C 
BRANCH  23  24
ATOM     24  C   UNL     1       2.385   1.364 -21.024  0.00  0.00    +0.000 C 
BRANCH  24  25
ATOM     25  C   UNL     1       1.094   1.496 -20.948  0.00  0.00    +0.000 C 
BRANCH  25  26
ATOM     26  C   UNL     1       0.343   1.120 -21.940  0.00  0.00    +0.000 C 
BRANCH  26  27
ATOM     27  C   UNL     1      -0.709   1.815 -22.259  0.00  0.00    -0.000 C 
BRANCH  27  28
ATOM     28  C   UNL     1      -1.458   2.325 -21.327  0.00  0.00    -0.000 C 
BRANCH  28  29
ATOM     29  C   UNL     1      -2.738   2.100 -21.327  0.00  0.00    -0.000 C 
BRANCH  29  31
ATOM     30  C   UNL     1      -3.132   4.086 -20.341  0.00  0.00    +0.004 C 
ATOM     31  C   UNL     1      -3.539   2.901 -20.689  0.00  0.00    -0.003 C 
ENDBRANCH  29  31
ENDBRANCH  28  29
ENDBRANCH  27  28
ENDBRANCH  26  27
ENDBRANCH  25  26
ENDBRANCH  24  25
ENDBRANCH  23  24
ENDBRANCH  22  23
ENDBRANCH  21  22
ENDBRANCH   1  21
TORSDOF 13
ENDMDL
