MODEL 1
REMARK VINA RESULT:    -9.227      0.000      0.000
REMARK INTER + INTRA:         -10.328
REMARK INTER:                 -10.047
REMARK INTRA:                  -0.281
REMARK UNBOUND:                 0.518
REMARK  Name = ZINC000005158373
REMARK  5 active torsions:
REMARK  status: ('A' for Active; 'I' for Inactive)
REMARK    1  A    between atoms: C_2  and  C_3
REMARK    2  A    between atoms: C_2  and  C_4
REMARK    3  A    between atoms: C_6  and  C_7
REMARK    4  A    between atoms: C_8  and  O_9
REMARK    5  A    between atoms: O_9  and  C_10
REMARK                            x       y       z     vdW  Elec       q    Type
REMARK                         _______ _______ _______ _____ _____    ______ ____
ROOT
ATOM      1  C   UNL     1      -0.436   2.788 -23.310  0.00  0.00    +0.068 A 
ATOM      2  C   UNL     1      -1.065   3.212 -24.366  0.00  0.00    +0.129 A 
ATOM      3  C   UNL     1      -0.401   3.749 -25.346  0.00  0.00    +0.047 A 
ATOM      4  C   UNL     1       0.892   3.861 -25.271  0.00  0.00    +0.015 A 
ATOM      5  C   UNL     1       1.520   3.436 -24.216  0.00  0.00    +0.018 A 
ATOM      6  C   UNL     1       2.813   3.549 -24.140  0.00  0.00    +0.018 A 
ATOM      7  C   UNL     1       3.442   3.124 -23.084  0.00  0.00    +0.092 A 
ATOM      8  C   UNL     1       2.778   2.587 -22.104  0.00  0.00    +0.337 A 
ATOM      9  O   UNL     1       1.485   2.475 -22.180  0.00  0.00    -0.422 OA
ATOM     10  O   UNL     1       3.407   2.162 -21.049  0.00  0.00    -0.245 OA
ATOM     11  C   UNL     1       0.856   2.900 -23.235  0.00  0.00    +0.148 A 
ENDROOT
BRANCH   1  14
ATOM     12  C   UNL     1      -2.081   2.293 -21.477  0.00  0.00    +0.178 C 
ATOM     13  O   UNL     1      -1.270   1.277 -21.484  0.00  0.00    -0.358 OA
ATOM     14  C   UNL     1      -1.100   2.251 -22.330  0.00  0.00    +0.189 C 
BRANCH  12  16
ATOM     15  C   UNL     1      -2.963   3.758 -20.011  0.00  0.00    +0.010 C 
ATOM     16  C   UNL     1      -3.115   2.905 -20.981  0.00  0.00    -0.049 C 
ATOM     17  C   UNL     1      -4.302   2.663 -21.454  0.00  0.00    +0.041 C 
ENDBRANCH  12  16
ENDBRANCH   1  14
BRANCH   2  18
ATOM     18  O   UNL     1      -2.359   3.100 -24.441  0.00  0.00    -0.495 OA
ATOM     19  C   UNL     1      -3.081   4.126 -24.780  0.00  0.00    +0.277 C 
ENDBRANCH   2  18
TORSDOF 3
ENDMDL
