MODEL 1
REMARK VINA RESULT:   -12.349      0.000      0.000
REMARK INTER + INTRA:         -11.176
REMARK INTER:                 -11.721
REMARK INTRA:                   0.546
REMARK UNBOUND:                 4.061
REMARK  Name = ZINC000002048997
REMARK  5 active torsions:
REMARK  status: ('A' for Active; 'I' for Inactive)
REMARK    1  A    between atoms: C_1  and  C_2
REMARK    2  A    between atoms: C_6  and  C_7
REMARK    3  A    between atoms: C_8  and  N_9
REMARK    4  A    between atoms: C_8  and  C_18
REMARK    5  A    between atoms: C_10  and  C_12
REMARK                            x       y       z     vdW  Elec       q    Type
REMARK                         _______ _______ _______ _____ _____    ______ ____
ROOT
ATOM      1  C   UNL     1       3.355   3.658 -22.580  0.00  0.00    +0.044 C 
ATOM      2  C   UNL     1       2.729   4.714 -23.095  0.00  0.00    +0.097 C 
ENDROOT
BRANCH   2   3
ATOM      3  C   UNL     1       1.842   4.569 -24.082  0.00  0.00    +0.261 C 
ATOM      4  N   UNL     1       0.528   4.402 -23.808  0.00  0.00    -0.296 N 
ATOM      5  C   UNL     1      -0.410   4.250 -24.766  0.00  0.00    +0.117 C 
ATOM      6  C   UNL     1      -1.616   4.103 -24.294  0.00  0.00    +0.054 C 
ATOM      7  C   UNL     1      -1.632   4.128 -23.348  0.00  0.00    +0.018 C 
ATOM      8  C   UNL     1      -1.239   4.204 -22.487  0.00  0.00    +0.027 C 
ATOM      9  C   UNL     1      -2.272   4.084 -21.892  0.00  0.00    +0.130 C 
ATOM     10  N   UNL     1      -3.374   3.906 -23.001  0.00  0.00    -0.312 N 
ATOM     11  C   UNL     1      -4.635   3.743 -22.855  0.00  0.00    +0.251 A 
ATOM     12  O   UNL     1      -5.154   3.708 -21.658  0.00  0.00    -0.268 OA
ATOM     13  C   UNL     1      -5.409   3.610 -23.930  0.00  0.00    +0.070 A 
ATOM     14  C   UNL     1      -4.901   3.642 -25.188  0.00  0.00    +0.007 A 
ATOM     15  C   UNL     1      -3.601   3.808 -25.406  0.00  0.00    +0.022 A 
ATOM     16  C   UNL     1      -2.799   3.943 -24.417  0.00  0.00    +0.027 A 
ATOM     17  C   UNL     1       0.049   4.374 -22.548  0.00  0.00    +0.113 C 
ATOM     18  O   UNL     1       2.252   4.588 -25.323  0.00  0.00    -0.269 OA
ENDBRANCH   2   3
BRANCH   1  24
ATOM     19  C   UNL     1       1.881   1.608 -21.248  0.00  0.00    +0.045 C 
ATOM     20  C   UNL     1       2.441   1.513 -22.424  0.00  0.00    -0.036 A 
ATOM     21  C   UNL     1       2.423   0.461 -23.195  0.00  0.00    +0.011 A 
ATOM     22  C   UNL     1       3.088   0.750 -24.285  0.00  0.00    +0.046 A 
ATOM     23  S   UNL     1       3.512   1.978 -24.179  0.00  0.00    -0.097 S 
ATOM     24  C   UNL     1       3.114   2.452 -23.030  0.00  0.00    +0.017 A 
ENDBRANCH   1  24
BRANCH   2  25
ATOM     25  N   UNL     1       2.990   5.900 -22.626  0.00  0.00    -0.277 N 
ATOM     26  H   UNL     1       2.252   6.508 -22.390  0.00  0.00    +0.155 HD
ATOM     27  C   UNL     1       4.231   6.285 -22.468  0.00  0.00    +0.248 C 
ATOM     28  O   UNL     1       5.215   5.483 -22.780  0.00  0.00    -0.270 OA
BRANCH  27  29
ATOM     29  C   UNL     1       4.482   7.472 -21.999  0.00  0.00    +0.037 A 
ATOM     30  C   UNL     1       3.805   8.507 -22.417  0.00  0.00    +0.013 A 
ATOM     31  C   UNL     1       4.063   9.692 -21.942  0.00  0.00    +0.001 A 
ATOM     32  C   UNL     1       5.001   9.849 -21.046  0.00  0.00    +0.000 A 
ATOM     33  C   UNL     1       5.678   8.814 -20.628  0.00  0.00    +0.001 A 
ATOM     34  C   UNL     1       5.420   7.627 -21.103  0.00  0.00    +0.013 A 
ENDBRANCH  27  29
ENDBRANCH   2  25
TORSDOF 4
ENDMDL
