MODEL 1
REMARK VINA RESULT:    -9.847      0.000      0.000
REMARK INTER + INTRA:         -12.010
REMARK INTER:                 -15.339
REMARK INTRA:                   3.329
REMARK UNBOUND:                 5.320
REMARK  Name = ZINC000085340938
REMARK  17 active torsions:
REMARK  status: ('A' for Active; 'I' for Inactive)
REMARK    1  A    between atoms: C_1  and  C_2
REMARK    2  A    between atoms: C_2  and  C_3
REMARK    3  A    between atoms: C_3  and  C_4
REMARK    4  A    between atoms: C_4  and  C_5
REMARK    5  A    between atoms: C_5  and  C_6
REMARK    6  A    between atoms: C_6  and  C_7
REMARK    7  A    between atoms: C_7  and  C_8
REMARK    8  A    between atoms: C_8  and  C_9
REMARK    9  A    between atoms: C_9  and  C_10
REMARK   10  A    between atoms: C_10  and  C_11
REMARK   11  A    between atoms: C_11  and  C_12
REMARK   12  A    between atoms: C_13  and  O_14
REMARK   13  A    between atoms: N_16  and  C_17
REMARK   14  A    between atoms: C_22  and  C_23
REMARK   15  A    between atoms: C_25  and  O_26
REMARK   16  A    between atoms: N_28  and  C_29
REMARK   17  A    between atoms: C_34  and  C_35
REMARK                            x       y       z     vdW  Elec       q    Type
REMARK                         _______ _______ _______ _____ _____    ______ ____
ROOT
ATOM      1  C   UNL     1       3.656   3.000 -23.489  0.00  0.00    +0.025 C 
ATOM      2  C   UNL     1       2.523   3.579 -23.754  0.00  0.00    +0.148 C 
ATOM      3  C   UNL     1       2.389   4.859 -23.567  0.00  0.00    +0.110 C 
ATOM      4  C   UNL     1       3.387   5.558 -23.115  0.00  0.00    +0.079 C 
ATOM      5  C   UNL     1       4.520   4.978 -22.850  0.00  0.00    +0.145 C 
ATOM      6  N   UNL     1       1.256   5.439 -23.832  0.00  0.00    -0.244 NA
ATOM      7  C   UNL     1       4.654   3.699 -23.037  0.00  0.00    +0.113 C 
ATOM      8  N   UNL     1       5.787   3.118 -22.772  0.00  0.00    -0.244 NA
ENDROOT
BRANCH   8   9
ATOM      9  C   UNL     1       6.785   3.817 -22.319  0.00  0.00    +0.068 A 
ATOM     10  C   UNL     1       6.840   4.131 -21.059  0.00  0.00    +0.028 A 
ATOM     11  C   UNL     1       7.838   4.830 -20.606  0.00  0.00    +0.002 A 
ATOM     12  C   UNL     1       8.782   5.215 -21.414  0.00  0.00    +0.000 A 
ATOM     13  C   UNL     1       8.726   4.901 -22.675  0.00  0.00    +0.005 A 
ATOM     14  C   UNL     1       7.728   4.202 -23.127  0.00  0.00    -0.025 A 
ATOM     15  C   UNL     1       7.673   3.888 -24.387  0.00  0.00    +0.046 C 
ENDBRANCH   8   9
BRANCH   6  16
ATOM     16  C   UNL     1       0.258   4.741 -24.285  0.00  0.00    +0.068 A 
ATOM     17  C   UNL     1       0.351   4.142 -25.435  0.00  0.00    +0.028 A 
ATOM     18  C   UNL     1      -0.647   3.443 -25.887  0.00  0.00    +0.002 A 
ATOM     19  C   UNL     1      -1.739   3.343 -25.190  0.00  0.00    +0.000 A 
ATOM     20  C   UNL     1      -1.833   3.941 -24.040  0.00  0.00    +0.005 A 
ATOM     21  C   UNL     1      -0.835   4.640 -23.587  0.00  0.00    -0.025 A 
ATOM     22  C   UNL     1      -0.929   5.238 -22.437  0.00  0.00    +0.046 C 
ENDBRANCH   6  16
BRANCH   2  23
ATOM     23  O   UNL     1       1.524   2.880 -24.207  0.00  0.00    -0.504 OA
ATOM     24  H   UNL     1       1.433   1.981 -23.961  0.00  0.00    +0.292 HD
ENDBRANCH   2  23
BRANCH   5  25
ATOM     25  O   UNL     1       5.518   5.676 -22.397  0.00  0.00    -0.505 OA
ATOM     26  H   UNL     1       5.638   6.561 -22.682  0.00  0.00    +0.292 HD
ENDBRANCH   5  25
BRANCH   1  27
ATOM     27  C   UNL     1       3.790   1.720 -23.676  0.00  0.00    +0.041 C 
BRANCH  27  28
ATOM     28  C   UNL     1       3.935   0.925 -22.658  0.00  0.00    +0.005 C 
BRANCH  28  29
ATOM     29  C   UNL     1       2.897   0.561 -21.966  0.00  0.00    +0.000 C 
BRANCH  29  30
ATOM     30  C   UNL     1       2.490   1.291 -20.969  0.00  0.00    +0.000 C 
BRANCH  30  31
ATOM     31  C   UNL     1       1.218   1.485 -20.783  0.00  0.00    +0.000 C 
BRANCH  31  32
ATOM     32  C   UNL     1       0.408   1.500 -21.799  0.00  0.00    +0.000 C 
BRANCH  32  33
ATOM     33  C   UNL     1      -0.854   1.238 -21.629  0.00  0.00    -0.000 C 
BRANCH  33  34
ATOM     34  C   UNL     1      -1.633   2.121 -21.078  0.00  0.00    -0.000 C 
BRANCH  34  35
ATOM     35  C   UNL     1      -2.896   2.153 -21.381  0.00  0.00    -0.000 C 
BRANCH  35  37
ATOM     36  C   UNL     1      -3.245   3.802 -19.888  0.00  0.00    +0.004 C 
ATOM     37  C   UNL     1      -3.658   3.085 -20.890  0.00  0.00    -0.003 C 
ENDBRANCH  35  37
ENDBRANCH  34  35
ENDBRANCH  33  34
ENDBRANCH  32  33
ENDBRANCH  31  32
ENDBRANCH  30  31
ENDBRANCH  29  30
ENDBRANCH  28  29
ENDBRANCH  27  28
ENDBRANCH   1  27
TORSDOF 14
ENDMDL
