MODEL 1
REMARK VINA RESULT:   -10.058      0.000      0.000
REMARK INTER + INTRA:         -12.289
REMARK INTER:                 -11.467
REMARK INTRA:                  -0.822
REMARK UNBOUND:                -0.466
REMARK  Name = ZINC000006068779
REMARK  5 active torsions:
REMARK  status: ('A' for Active; 'I' for Inactive)
REMARK    1  A    between atoms: C_1  and  C_2
REMARK    2  A    between atoms: C_3  and  O_4
REMARK    3  A    between atoms: C_5  and  C_6
REMARK    4  A    between atoms: C_10  and  O_11
REMARK    5  A    between atoms: C_15  and  C_16
REMARK                            x       y       z     vdW  Elec       q    Type
REMARK                         _______ _______ _______ _____ _____    ______ ____
ROOT
ATOM      1  C   UNL     1       4.266   1.132 -22.833  0.00  0.00    +0.051 C 
ATOM      2  C   UNL     1       3.038   1.518 -23.015  0.00  0.00    +0.034 A 
ATOM      3  C   UNL     1       2.676   2.016 -24.161  0.00  0.00    +0.137 A 
ATOM      4  C   UNL     1       1.449   2.401 -24.343  0.00  0.00    +0.098 A 
ATOM      5  C   UNL     1       0.582   2.290 -23.382  0.00  0.00    +0.149 A 
ATOM      6  C   UNL     1       0.944   1.792 -22.235  0.00  0.00    +0.102 A 
ATOM      7  C   UNL     1       0.077   1.680 -21.274  0.00  0.00    +0.174 C 
ATOM      8  C   UNL     1      -1.151   2.066 -21.456  0.00  0.00    +0.129 C 
ATOM      9  C   UNL     1      -1.513   2.563 -22.602  0.00  0.00    +0.211 C 
ATOM     10  O   UNL     1       0.439   1.182 -20.128  0.00  0.00    -0.292 OA
ATOM     11  O   UNL     1      -0.646   2.675 -23.564  0.00  0.00    -0.482 OA
ATOM     12  C   UNL     1       2.171   1.406 -22.053  0.00  0.00    +0.137 A 
ENDROOT
BRANCH   9  13
ATOM     13  C   UNL     1      -2.740   2.949 -22.785  0.00  0.00    -0.007 A 
ATOM     14  C   UNL     1      -3.575   2.952 -21.789  0.00  0.00    +0.007 A 
ATOM     15  C   UNL     1      -4.804   3.338 -21.971  0.00  0.00    +0.000 A 
ATOM     16  C   UNL     1      -5.196   3.720 -23.150  0.00  0.00    +0.000 A 
ATOM     17  C   UNL     1      -4.361   3.717 -24.146  0.00  0.00    +0.000 A 
ATOM     18  C   UNL     1      -3.133   3.331 -23.963  0.00  0.00    +0.007 A 
ENDBRANCH   9  13
BRANCH   4  19
ATOM     19  C   UNL     1       1.087   2.899 -25.489  0.00  0.00    +0.266 C 
ATOM     20  O   UNL     1       1.416   4.117 -25.802  0.00  0.00    -0.295 OA
ENDBRANCH   4  19
BRANCH   3  21
ATOM     21  O   UNL     1       3.543   2.127 -25.123  0.00  0.00    -0.506 OA
ATOM     22  H   UNL     1       3.334   2.628 -25.887  0.00  0.00    +0.292 HD
ENDBRANCH   3  21
BRANCH  12  23
ATOM     23  O   UNL     1       2.533   0.909 -20.907  0.00  0.00    -0.506 OA
ATOM     24  H   UNL     1       1.904   0.473 -20.366  0.00  0.00    +0.292 HD
ENDBRANCH  12  23
TORSDOF 4
ENDMDL
