MODEL 1
REMARK VINA RESULT:    -9.334      0.000      0.000
REMARK INTER + INTRA:         -11.382
REMARK INTER:                 -11.149
REMARK INTRA:                  -0.234
REMARK UNBOUND:                -0.139
REMARK  Name = ZINC000000119983
REMARK  6 active torsions:
REMARK  status: ('A' for Active; 'I' for Inactive)
REMARK    1  A    between atoms: O_1  and  C_2
REMARK    2  A    between atoms: C_4  and  O_5
REMARK    3  A    between atoms: C_10  and  C_11
REMARK    4  A    between atoms: C_14  and  O_15
REMARK    5  A    between atoms: C_16  and  O_17
REMARK    6  A    between atoms: C_19  and  O_20
REMARK                            x       y       z     vdW  Elec       q    Type
REMARK                         _______ _______ _______ _____ _____    ______ ____
ROOT
ATOM      1  C   UNL     1      -3.948   4.222 -24.647  0.00  0.00    +0.124 A 
ATOM      2  C   UNL     1      -4.473   3.701 -23.578  0.00  0.00    +0.091 A 
ATOM      3  C   UNL     1      -3.714   3.110 -22.703  0.00  0.00    +0.127 A 
ATOM      4  C   UNL     1      -2.430   3.040 -22.897  0.00  0.00    +0.038 A 
ATOM      5  C   UNL     1      -1.906   3.562 -23.966  0.00  0.00    +0.132 A 
ATOM      6  O   UNL     1      -0.622   3.493 -24.161  0.00  0.00    -0.481 OA
ATOM      7  C   UNL     1       0.137   2.902 -23.286  0.00  0.00    +0.232 C 
ATOM      8  C   UNL     1      -0.388   2.380 -22.216  0.00  0.00    +0.164 C 
ATOM      9  C   UNL     1      -1.672   2.450 -22.022  0.00  0.00    +0.078 C 
ATOM     10  C   UNL     1      -2.664   4.152 -24.841  0.00  0.00    +0.091 A 
ENDROOT
BRANCH   7  11
ATOM     11  C   UNL     1       1.420   2.832 -23.480  0.00  0.00    -0.001 A 
ATOM     12  C   UNL     1       2.190   3.804 -23.089  0.00  0.00    +0.011 A 
ATOM     13  C   UNL     1       3.474   3.735 -23.283  0.00  0.00    +0.049 A 
ATOM     14  C   UNL     1       3.988   2.693 -23.868  0.00  0.00    +0.158 A 
ATOM     15  C   UNL     1       3.218   1.721 -24.259  0.00  0.00    +0.159 A 
ATOM     16  C   UNL     1       1.934   1.791 -24.065  0.00  0.00    +0.056 A 
BRANCH  15  17
ATOM     17  O   UNL     1       3.731   0.680 -24.844  0.00  0.00    -0.503 OA
ATOM     18  H   UNL     1       3.848  -0.116 -24.364  0.00  0.00    +0.292 HD
ENDBRANCH  15  17
BRANCH  14  19
ATOM     19  O   UNL     1       5.271   2.624 -24.062  0.00  0.00    -0.503 OA
ATOM     20  H   UNL     1       5.831   2.299 -23.385  0.00  0.00    +0.292 HD
ENDBRANCH  14  19
ENDBRANCH   7  11
BRANCH   8  21
ATOM     21  O   UNL     1       0.371   1.790 -21.342  0.00  0.00    -0.387 OA
ATOM     22  H   UNL     1       0.617   0.910 -21.668  0.00  0.00    +0.210 HD
ENDBRANCH   8  21
BRANCH   1  23
ATOM     23  O   UNL     1      -4.706   4.813 -25.522  0.00  0.00    -0.507 OA
ATOM     24  H   UNL     1      -4.437   4.862 -26.418  0.00  0.00    +0.292 HD
ENDBRANCH   1  23
BRANCH   3  25
ATOM     25  O   UNL     1      -4.238   2.589 -21.634  0.00  0.00    -0.506 OA
ATOM     26  H   UNL     1      -5.086   2.190 -21.674  0.00  0.00    +0.292 HD
ENDBRANCH   3  25
TORSDOF 6
ENDMDL
