MODEL 1
REMARK VINA RESULT:    -9.453      0.000      0.000
REMARK INTER + INTRA:         -10.005
REMARK INTER:                 -10.005
REMARK INTRA:                   0.000
REMARK UNBOUND:                 0.000
REMARK  Name = ZINC000005161554
REMARK  3 active torsions:
REMARK  status: ('A' for Active; 'I' for Inactive)
REMARK    1  A    between atoms: C_1  and  N_2
REMARK    2  A    between atoms: C_12  and  O_13
REMARK    3  A    between atoms: C_15  and  O_16
REMARK                            x       y       z     vdW  Elec       q    Type
REMARK                         _______ _______ _______ _____ _____    ______ ____
ROOT
ATOM      1  C   UNL     1      -3.418   4.220 -25.469  0.00  0.00    +0.149 C 
ATOM      2  N   UNL     1      -2.925   3.697 -24.386  0.00  0.00    -0.343 N 
ATOM      3  C   UNL     1      -3.706   3.416 -23.386  0.00  0.00    +0.053 A 
ATOM      4  C   UNL     1      -4.981   3.657 -23.469  0.00  0.00    +0.026 A 
ATOM      5  C   UNL     1      -5.763   3.376 -22.469  0.00  0.00    +0.002 A 
ATOM      6  C   UNL     1      -5.270   2.854 -21.386  0.00  0.00    +0.001 A 
ATOM      7  C   UNL     1      -3.996   2.612 -21.302  0.00  0.00    +0.014 A 
ATOM      8  C   UNL     1      -3.213   2.893 -22.302  0.00  0.00    +0.046 A 
ATOM      9  C   UNL     1      -1.939   2.652 -22.219  0.00  0.00    +0.201 A 
ATOM     10  C   UNL     1      -1.158   2.933 -23.219  0.00  0.00    +0.087 A 
ATOM     11  C   UNL     1       0.117   2.691 -23.135  0.00  0.00    +0.133 A 
ATOM     12  C   UNL     1       0.899   2.972 -24.135  0.00  0.00    +0.091 A 
ATOM     13  C   UNL     1       0.406   3.495 -25.219  0.00  0.00    +0.122 A 
ATOM     14  C   UNL     1      -0.869   3.736 -25.302  0.00  0.00    +0.072 A 
ATOM     15  O   UNL     1      -1.446   2.129 -21.135  0.00  0.00    -0.286 OA
ATOM     16  C   UNL     1      -1.650   3.455 -24.302  0.00  0.00    +0.060 A 
ENDROOT
BRANCH  13  17
ATOM     17  O   UNL     1       1.188   3.776 -26.219  0.00  0.00    -0.507 OA
ATOM     18  H   UNL     1       1.965   4.280 -26.078  0.00  0.00    +0.292 HD
ENDBRANCH  13  17
BRANCH  11  19
ATOM     19  O   UNL     1       0.610   2.168 -22.052  0.00  0.00    -0.506 OA
ATOM     20  H   UNL     1       0.534   2.623 -21.236  0.00  0.00    +0.292 HD
ENDBRANCH  11  19
TORSDOF 2
ENDMDL
