MODEL 1
REMARK VINA RESULT:    -9.531      0.000      0.000
REMARK INTER + INTRA:         -10.079
REMARK INTER:                 -10.280
REMARK INTRA:                   0.202
REMARK UNBOUND:                 0.567
REMARK  Name = ZINC000000039119
REMARK  3 active torsions:
REMARK  status: ('A' for Active; 'I' for Inactive)
REMARK    1  A    between atoms: C_1  and  O_2
REMARK    2  A    between atoms: O_2  and  C_3
REMARK    3  A    between atoms: C_4  and  C_5
REMARK                            x       y       z     vdW  Elec       q    Type
REMARK                         _______ _______ _______ _____ _____    ______ ____
ROOT
ATOM      1  C   UNL     1      -0.728   3.358 -23.873  0.00  0.00    +0.211 A 
ATOM      2  C   UNL     1      -0.741   2.929 -22.646  0.00  0.00    +0.181 A 
ATOM      3  O   UNL     1       0.306   2.332 -22.156  0.00  0.00    -0.450 OA
ATOM      4  C   UNL     1       1.364   2.165 -22.893  0.00  0.00    +0.150 A 
ATOM      5  C   UNL     1       1.375   2.595 -24.120  0.00  0.00    +0.069 A 
ATOM      6  C   UNL     1       2.433   2.428 -24.856  0.00  0.00    +0.019 A 
ATOM      7  C   UNL     1       3.480   1.831 -24.366  0.00  0.00    +0.048 A 
ATOM      8  C   UNL     1       3.468   1.402 -23.139  0.00  0.00    +0.138 A 
ATOM      9  O   UNL     1       4.363   0.787 -22.425  0.00  0.00    -0.463 OA
ATOM     10  C   UNL     1       3.857   0.574 -21.245  0.00  0.00    +0.196 A 
ATOM     11  C   UNL     1       2.651   1.057 -21.232  0.00  0.00    +0.053 A 
ATOM     12  C   UNL     1       2.410   1.569 -22.403  0.00  0.00    +0.063 A 
ATOM     13  C   UNL     1       0.331   3.191 -24.610  0.00  0.00    +0.235 A 
ATOM     14  O   UNL     1       0.342   3.620 -25.837  0.00  0.00    -0.283 OA
ENDROOT
BRANCH   2  15
ATOM     15  C   UNL     1      -1.798   3.096 -21.909  0.00  0.00    +0.021 A 
ATOM     16  C   UNL     1      -2.633   2.114 -21.738  0.00  0.00    +0.012 A 
ATOM     17  C   UNL     1      -3.691   2.281 -21.001  0.00  0.00    +0.001 A 
ATOM     18  C   UNL     1      -3.914   3.430 -20.436  0.00  0.00    +0.000 A 
ATOM     19  C   UNL     1      -3.079   4.411 -20.608  0.00  0.00    +0.001 A 
ATOM     20  C   UNL     1      -2.021   4.244 -21.345  0.00  0.00    +0.012 A 
ENDBRANCH   2  15
BRANCH   1  22
ATOM     21  C   UNL     1      -2.568   3.316 -25.171  0.00  0.00    +0.277 C 
ATOM     22  O   UNL     1      -1.774   3.955 -24.364  0.00  0.00    -0.488 OA
ENDBRANCH   1  22
TORSDOF 2
ENDMDL
