MODEL 1
REMARK VINA RESULT:    -7.674      0.000      0.000
REMARK INTER + INTRA:          -9.606
REMARK INTER:                 -11.852
REMARK INTRA:                   2.246
REMARK UNBOUND:                 2.105
REMARK  Name = ZINC000001649869
REMARK  17 active torsions:
REMARK  status: ('A' for Active; 'I' for Inactive)
REMARK    1  A    between atoms: C_1  and  O_2
REMARK    2  A    between atoms: O_2  and  C_3
REMARK    3  A    between atoms: C_5  and  C_6
REMARK    4  A    between atoms: C_9  and  O_10
REMARK    5  A    between atoms: O_10  and  C_11
REMARK    6  A    between atoms: C_12  and  O_13
REMARK    7  A    between atoms: O_13  and  C_14
REMARK    8  A    between atoms: C_15  and  O_16
REMARK    9  A    between atoms: O_16  and  C_17
REMARK   10  A    between atoms: C_18  and  O_19
REMARK   11  A    between atoms: O_19  and  C_20
REMARK   12  A    between atoms: C_24  and  O_25
REMARK   13  A    between atoms: O_25  and  C_26
REMARK   14  A    between atoms: C_28  and  O_29
REMARK   15  A    between atoms: O_29  and  C_30
REMARK   16  A    between atoms: C_31  and  O_32
REMARK   17  A    between atoms: O_32  and  C_33
REMARK                            x       y       z     vdW  Elec       q    Type
REMARK                         _______ _______ _______ _____ _____    ______ ____
ROOT
ATOM      1  C   UNL     1       0.620   2.855 -22.903  0.00  0.00    +0.181 A 
ATOM      2  O   UNL     1       1.532   3.763 -23.085  0.00  0.00    -0.447 OA
ATOM      3  C   UNL     1       2.787   3.466 -22.922  0.00  0.00    +0.188 A 
ATOM      4  C   UNL     1       3.699   4.374 -23.104  0.00  0.00    +0.209 A 
ATOM      5  C   UNL     1       4.955   4.076 -22.941  0.00  0.00    +0.211 A 
ATOM      6  C   UNL     1       5.297   2.871 -22.595  0.00  0.00    +0.208 A 
ATOM      7  C   UNL     1       4.384   1.963 -22.412  0.00  0.00    +0.180 A 
ATOM      8  C   UNL     1       3.130   2.260 -22.576  0.00  0.00    +0.117 A 
ATOM      9  C   UNL     1       2.218   1.352 -22.393  0.00  0.00    +0.238 A 
ATOM     10  O   UNL     1       2.560   0.147 -22.048  0.00  0.00    -0.283 OA
ATOM     11  C   UNL     1       0.962   1.649 -22.557  0.00  0.00    +0.211 A 
ENDROOT
BRANCH   1  14
ATOM     12  C   UNL     1      -2.563   3.988 -22.253  0.00  0.00    +0.166 A 
ATOM     13  C   UNL     1      -1.307   3.689 -22.091  0.00  0.00    +0.061 A 
ATOM     14  C   UNL     1      -0.635   3.153 -23.066  0.00  0.00    +0.028 A 
ATOM     15  C   UNL     1      -1.218   2.916 -24.204  0.00  0.00    +0.061 A 
ATOM     16  C   UNL     1      -2.472   3.215 -24.367  0.00  0.00    +0.166 A 
ATOM     17  C   UNL     1      -3.145   3.751 -23.391  0.00  0.00    +0.204 A 
BRANCH  16  18
ATOM     18  O   UNL     1      -3.054   2.978 -25.505  0.00  0.00    -0.491 OA
ATOM     19  C   UNL     1      -2.647   3.582 -26.582  0.00  0.00    +0.277 C 
ENDBRANCH  16  18
BRANCH  12  21
ATOM     20  C   UNL     1      -3.214   3.978 -20.099  0.00  0.00    +0.277 C 
ATOM     21  O   UNL     1      -3.235   4.523 -21.278  0.00  0.00    -0.491 OA
ENDBRANCH  12  21
BRANCH  17  22
ATOM     22  O   UNL     1      -4.399   4.049 -23.554  0.00  0.00    -0.488 OA
ATOM     23  C   UNL     1      -5.313   3.388 -22.909  0.00  0.00    +0.277 C 
ENDBRANCH  17  22
ENDBRANCH   1  14
BRANCH   7  24
ATOM     24  O   UNL     1       4.727   0.757 -22.067  0.00  0.00    -0.491 OA
ATOM     25  C   UNL     1       5.141   0.521 -20.858  0.00  0.00    +0.277 C 
ENDBRANCH   7  24
BRANCH   6  26
ATOM     26  O   UNL     1       6.552   2.574 -22.432  0.00  0.00    -0.488 OA
ATOM     27  C   UNL     1       7.332   2.457 -23.465  0.00  0.00    +0.277 C 
ENDBRANCH   6  26
BRANCH   5  28
ATOM     28  O   UNL     1       5.867   4.984 -23.123  0.00  0.00    -0.488 OA
ATOM     29  C   UNL     1       6.379   5.604 -22.102  0.00  0.00    +0.277 C 
ENDBRANCH   5  28
BRANCH   4  30
ATOM     30  O   UNL     1       3.356   5.579 -23.450  0.00  0.00    -0.488 OA
ATOM     31  C   UNL     1       3.128   6.477 -22.538  0.00  0.00    +0.277 C 
ENDBRANCH   4  30
BRANCH  11  32
ATOM     32  O   UNL     1       0.050   0.741 -22.374  0.00  0.00    -0.488 OA
ATOM     33  C   UNL     1      -0.682   0.763 -21.300  0.00  0.00    +0.277 C 
ENDBRANCH  11  32
TORSDOF 9
ENDMDL
