MODEL 1
REMARK VINA RESULT:   -13.233      0.000      0.000
REMARK INTER + INTRA:         -13.233
REMARK INTER:                 -13.233
REMARK INTRA:                   0.000
REMARK UNBOUND:                 0.000
REMARK  Name = ZINC000005359880
REMARK  2 active torsions:
REMARK  status: ('A' for Active; 'I' for Inactive)
REMARK    1  A    between atoms: C_1  and  C_2
REMARK    2  A    between atoms: C_14  and  C_15
REMARK                            x       y       z     vdW  Elec       q    Type
REMARK                         _______ _______ _______ _____ _____    ______ ____
ROOT
ATOM      1  C   UNL     1      -4.879   2.884 -21.654  0.00  0.00    +0.019 C 
ATOM      2  C   UNL     1      -4.006   3.135 -22.584  0.00  0.00    +0.029 C 
ATOM      3  C   UNL     1      -3.510   2.538 -21.540  0.00  0.00    +0.015 C 
ATOM      4  C   UNL     1      -2.244   2.248 -21.499  0.00  0.00    +0.005 C 
ATOM      5  C   UNL     1      -1.473   2.553 -22.500  0.00  0.00    +0.003 C 
ATOM      6  C   UNL     1      -1.969   3.150 -23.543  0.00  0.00    +0.001 C 
ATOM      7  C   UNL     1      -1.198   3.455 -24.545  0.00  0.00    +0.031 C 
ATOM      8  C   UNL     1       0.069   3.164 -24.502  0.00  0.00    -0.027 C 
ATOM      9  C   UNL     1       0.564   2.568 -23.459  0.00  0.00    -0.062 C 
ATOM     10  C   UNL     1       1.830   2.277 -23.416  0.00  0.00    +0.096 C 
ATOM     11  C   UNL     1       2.326   1.680 -22.373  0.00  0.00    +0.174 C 
ATOM     12  O   UNL     1       2.942   1.088 -21.394  0.00  0.00    -0.346 OA
ATOM     13  C   UNL     1       4.195   0.972 -21.718  0.00  0.00    +0.191 C 
ATOM     14  C   UNL     1       4.354   1.493 -22.898  0.00  0.00    +0.191 C 
ATOM     15  C   UNL     1       1.556   1.375 -21.372  0.00  0.00    +0.066 C 
ATOM     16  C   UNL     1       0.288   1.666 -21.414  0.00  0.00    +0.016 C 
ATOM     17  O   UNL     1       3.199   1.931 -23.304  0.00  0.00    -0.346 OA
ATOM     18  C   UNL     1      -0.207   2.262 -22.458  0.00  0.00    -0.008 C 
ATOM     19  C   UNL     1      -0.978   1.957 -21.457  0.00  0.00    +0.016 C 
ATOM     20  C   UNL     1      -5.212   3.528 -22.870  0.00  0.00    +0.139 C 
ATOM     21  O   UNL     1      -6.259   3.396 -22.113  0.00  0.00    -0.297 OA
ATOM     22  C   UNL     1      -5.186   4.076 -24.049  0.00  0.00    +0.075 C 
ATOM     23  C   UNL     1      -3.965   4.023 -24.491  0.00  0.00    +0.012 C 
ATOM     24  C   UNL     1      -3.235   3.441 -23.586  0.00  0.00    +0.006 C 
ENDROOT
TORSDOF 0
ENDMDL
