MODEL 1
REMARK VINA RESULT:   -12.144      0.000      0.000
REMARK INTER + INTRA:         -13.299
REMARK INTER:                 -12.889
REMARK INTRA:                  -0.410
REMARK UNBOUND:                 0.266
REMARK  Name = ZINC000006755466
REMARK  4 active torsions:
REMARK  status: ('A' for Active; 'I' for Inactive)
REMARK    1  A    between atoms: C_1  and  C_2
REMARK    2  A    between atoms: C_7  and  C_8
REMARK    3  A    between atoms: C_16  and  C_17
REMARK    4  A    between atoms: C_17  and  N_18
REMARK                            x       y       z     vdW  Elec       q    Type
REMARK                         _______ _______ _______ _____ _____    ______ ____
ROOT
ATOM      1  C   UNL     1      -4.050   2.489 -20.507  0.00  0.00    +0.039 C 
ATOM      2  C   UNL     1      -4.318   2.920 -21.704  0.00  0.00    -0.067 C 
ATOM      3  C   UNL     1      -5.477   3.337 -22.124  0.00  0.00    -0.024 C 
ATOM      4  C   UNL     1      -5.351   3.685 -23.370  0.00  0.00    +0.065 C 
ATOM      5  C   UNL     1      -4.116   3.483 -23.720  0.00  0.00    +0.112 C 
ATOM      6  O   UNL     1      -4.909   3.959 -24.634  0.00  0.00    -0.360 OA
ATOM      7  C   UNL     1      -3.660   3.732 -24.912  0.00  0.00    +0.097 C 
ATOM      8  C   UNL     1      -2.453   3.569 -25.369  0.00  0.00    +0.038 C 
ATOM      9  C   UNL     1      -1.406   3.118 -24.747  0.00  0.00    +0.011 C 
ATOM     10  C   UNL     1      -1.304   2.718 -23.514  0.00  0.00    +0.049 C 
ATOM     11  C   UNL     1      -2.227   2.670 -22.599  0.00  0.00    +0.190 C 
ATOM     12  O   UNL     1      -1.689   2.204 -21.511  0.00  0.00    -0.460 OA
ATOM     13  C   UNL     1      -0.435   1.965 -21.753  0.00  0.00    +0.316 C 
ATOM     14  O   UNL     1       0.431   1.491 -20.906  0.00  0.00    -0.250 OA
ATOM     15  C   UNL     1      -0.197   2.282 -22.991  0.00  0.00    +0.149 C 
ATOM     16  C   UNL     1      -3.948   4.166 -26.103  0.00  0.00    +0.044 C 
ATOM     17  C   UNL     1      -3.478   3.010 -22.691  0.00  0.00    +0.090 C 
ENDROOT
BRANCH  15  18
ATOM     18  C   UNL     1       0.948   2.181 -23.600  0.00  0.00    +0.146 C 
BRANCH  18  19
ATOM     19  N   UNL     1       1.877   3.066 -23.389  0.00  0.00    +0.236 N 
ATOM     20  H   UNL     1       2.843   3.294 -23.153  0.00  0.00    +0.203 HD
ATOM     21  C   UNL     1       3.080   2.683 -23.079  0.00  0.00    +0.131 C 
ATOM     22  C   UNL     1       4.009   3.568 -22.868  0.00  0.00    +0.051 C 
ATOM     23  C   UNL     1       3.735   4.835 -22.967  0.00  0.00    +0.010 C 
ATOM     24  C   UNL     1       2.531   5.217 -23.277  0.00  0.00    +0.051 C 
ATOM     25  C   UNL     1       1.603   4.332 -23.488  0.00  0.00    +0.131 C 
ENDBRANCH  18  19
ENDBRANCH  15  18
TORSDOF 2
ENDMDL
