MODEL 1
REMARK VINA RESULT:   -10.922      0.000      0.000
REMARK INTER + INTRA:         -12.004
REMARK INTER:                 -11.896
REMARK INTRA:                  -0.109
REMARK UNBOUND:                -0.125
REMARK  Name = COc1ccc2c3c1O[C@@H]1[C@@H](O)[C@H](Cl)C=C4[C@@H](C2)N(C)CC[C@]431    ZINC000253505631
REMARK  4 active torsions:
REMARK  status: ('A' for Active; 'I' for Inactive)
REMARK    1  A    between atoms: C_1  and  O_2
REMARK    2  A    between atoms: O_2  and  C_3
REMARK    3  A    between atoms: C_11  and  O_12
REMARK    4  A    between atoms: N_19  and  C_20
REMARK                            x       y       z     vdW  Elec       q    Type
REMARK                         _______ _______ _______ _____ _____    ______ ____
ROOT
ATOM      1  C   UNL     1       1.244   1.727 -22.161  0.00  0.00    +0.162 A 
ATOM      2  C   UNL     1       1.785   2.080 -23.248  0.00  0.00    +0.050 A 
ATOM      3  C   UNL     1       1.110   2.639 -24.141  0.00  0.00    +0.008 A 
ATOM      4  C   UNL     1      -0.110   2.852 -23.956  0.00  0.00    -0.034 A 
ATOM      5  C   UNL     1      -0.670   2.509 -22.881  0.00  0.00    +0.015 A 
ATOM      6  C   UNL     1      -1.889   2.724 -22.703  0.00  0.00    +0.070 C 
ATOM      7  C   UNL     1      -3.266   2.915 -22.383  0.00  0.00    +0.071 C 
ATOM      8  C   UNL     1      -4.052   3.544 -23.372  0.00  0.00    +0.133 C 
ATOM      9  N   UNL     1      -3.415   3.923 -24.572  0.00  0.00    +0.239 N 
ATOM     10  H   UNL     1      -3.939   4.381 -25.318  0.00  0.00    +0.204 HD
ATOM     11  C   UNL     1      -4.041   4.486 -25.498  0.00  0.00    +0.191 C 
ATOM     12  C   UNL     1      -2.023   3.635 -24.680  0.00  0.00    +0.096 C 
ATOM     13  C   UNL     1      -2.567   3.284 -23.593  0.00  0.00    -0.010 C 
ATOM     14  C   UNL     1      -3.800   3.499 -23.408  0.00  0.00    +0.000 C 
ATOM     15  C   UNL     1      -4.343   3.154 -22.334  0.00  0.00    +0.135 C 
ATOM     16 CL   UNL     1      -5.563   3.369 -22.156  0.00  0.00    -0.115 Cl
ATOM     17  C   UNL     1      -3.664   2.588 -21.429  0.00  0.00    +0.178 C 
ATOM     18  C   UNL     1      -2.445   2.373 -21.609  0.00  0.00    +0.219 C 
ATOM     19  O   UNL     1      -1.161   1.814 -21.049  0.00  0.00    -0.481 OA
ATOM     20  C   UNL     1      -0.804   3.422 -24.864  0.00  0.00    +0.094 C 
ATOM     21  C   UNL     1       0.009   1.944 -21.978  0.00  0.00    +0.167 A 
ENDROOT
BRANCH   1  23
ATOM     22  C   UNL     1       3.077   0.758 -21.527  0.00  0.00    +0.277 C 
ATOM     23  O   UNL     1       1.922   1.168 -21.271  0.00  0.00    -0.491 OA
ENDBRANCH   1  23
BRANCH  17  24
ATOM     24  O   UNL     1      -4.211   2.243 -20.356  0.00  0.00    -0.386 OA
ATOM     25  H   UNL     1      -4.661   3.007 -19.964  0.00  0.00    +0.210 HD
ENDBRANCH  17  24
TORSDOF 2
ENDMDL
