MODEL 1
REMARK VINA RESULT:    -7.933      0.000      0.000
REMARK INTER + INTRA:          -8.923
REMARK INTER:                  -8.629
REMARK INTRA:                  -0.294
REMARK UNBOUND:                -0.294
REMARK  Name = ZINC000000058154
REMARK  2 active torsions:
REMARK  status: ('A' for Active; 'I' for Inactive)
REMARK    1  A    between atoms: N_1  and  C_2
REMARK    2  A    between atoms: C_13  and  C_14
REMARK                            x       y       z     vdW  Elec       q    Type
REMARK                         _______ _______ _______ _____ _____    ______ ____
ROOT
ATOM      1  C   UNL     1      -0.740   3.404 -24.948  0.00  0.00    +0.198 A 
ATOM      2  O   UNL     1      -1.937   3.718 -25.345  0.00  0.00    -0.441 OA
ATOM      3  C   UNL     1      -2.941   3.616 -24.526  0.00  0.00    +0.141 A 
ATOM      4  C   UNL     1      -4.138   3.931 -24.923  0.00  0.00    +0.048 A 
ATOM      5  C   UNL     1      -5.142   3.829 -24.104  0.00  0.00    +0.023 A 
ATOM      6  C   UNL     1      -4.950   3.412 -22.888  0.00  0.00    +0.042 A 
ATOM      7  C   UNL     1      -3.752   3.097 -22.491  0.00  0.00    +0.035 A 
ATOM      8 CL   UNL     1      -5.954   3.310 -22.069  0.00  0.00    -0.084 Cl
ATOM      9  C   UNL     1      -2.748   3.200 -23.310  0.00  0.00    +0.066 A 
ATOM     10  C   UNL     1      -1.551   2.885 -22.913  0.00  0.00    +0.205 A 
ATOM     11  O   UNL     1      -1.358   2.468 -21.697  0.00  0.00    -0.286 OA
ATOM     12  C   UNL     1      -0.547   2.987 -23.732  0.00  0.00    +0.118 A 
ENDROOT
BRANCH   1  13
ATOM     13  N   UNL     1       0.265   3.506 -25.768  0.00  0.00    -0.329 N 
ATOM     14  H   UNL     1       0.669   2.696 -26.154  0.00  0.00    +0.145 HD
ATOM     15  H   UNL     1       0.623   4.392 -26.001  0.00  0.00    +0.145 HD
ENDBRANCH   1  13
BRANCH  12  16
ATOM     16  C   UNL     1       0.651   2.672 -23.335  0.00  0.00    +0.267 C 
ATOM     17  O   UNL     1       1.188   1.551 -23.714  0.00  0.00    -0.295 OA
ENDBRANCH  12  16
TORSDOF 2
ENDMDL
