MODEL 1
REMARK VINA RESULT:   -10.614      0.000      0.000
REMARK INTER + INTRA:          -7.407
REMARK INTER:                 -11.509
REMARK INTRA:                   4.102
REMARK UNBOUND:                 5.068
REMARK  Name = COc1ccc2c3c1O[C@H]1C(OC)(OC)CC[C@@H]4[C@@H](C2)N(C)CC[C@@]341        ZINC000253505296
REMARK  7 active torsions:
REMARK  status: ('A' for Active; 'I' for Inactive)
REMARK    1  A    between atoms: C_1  and  O_2
REMARK    2  A    between atoms: O_2  and  C_3
REMARK    3  A    between atoms: C_11  and  O_12
REMARK    4  A    between atoms: C_11  and  O_14
REMARK    5  A    between atoms: O_12  and  C_13
REMARK    6  A    between atoms: O_14  and  C_15
REMARK    7  A    between atoms: N_21  and  C_22
REMARK                            x       y       z     vdW  Elec       q    Type
REMARK                         _______ _______ _______ _____ _____    ______ ____
ROOT
ATOM      1  C   UNL     1       1.413   1.859 -22.047  0.00  0.00    +0.162 A 
ATOM      2  C   UNL     1       2.076   1.950 -23.124  0.00  0.00    +0.050 A 
ATOM      3  C   UNL     1       1.530   2.360 -24.175  0.00  0.00    +0.008 A 
ATOM      4  C   UNL     1       0.316   2.684 -24.160  0.00  0.00    -0.035 A 
ATOM      5  C   UNL     1      -0.365   2.602 -23.100  0.00  0.00    +0.012 A 
ATOM      6  C   UNL     1      -1.574   2.926 -23.092  0.00  0.00    +0.054 C 
ATOM      7  C   UNL     1      -2.957   3.265 -22.958  0.00  0.00    +0.067 C 
ATOM      8  C   UNL     1      -3.602   3.731 -24.127  0.00  0.00    +0.132 C 
ATOM      9  N   UNL     1      -2.832   3.819 -25.310  0.00  0.00    +0.236 N 
ATOM     10  H   UNL     1      -3.247   4.149 -26.181  0.00  0.00    +0.203 HD
ATOM     11  C   UNL     1      -3.327   4.223 -26.389  0.00  0.00    +0.190 C 
ATOM     12  C   UNL     1      -1.460   3.427 -25.217  0.00  0.00    +0.072 C 
ATOM     13  C   UNL     1      -2.125   3.337 -24.141  0.00  0.00    +0.053 C 
ATOM     14  C   UNL     1      -3.351   3.664 -24.131  0.00  0.00    +0.015 C 
ATOM     15  C   UNL     1      -4.013   3.576 -23.068  0.00  0.00    +0.069 C 
ATOM     16  C   UNL     1      -3.466   3.162 -22.002  0.00  0.00    +0.208 C 
ATOM     17  C   UNL     1      -2.253   2.839 -22.015  0.00  0.00    +0.244 C 
ATOM     18  O   UNL     1      -1.072   2.322 -21.220  0.00  0.00    -0.479 OA
ATOM     19  C   UNL     1      -0.248   3.103 -25.230  0.00  0.00    +0.090 C 
ATOM     20  C   UNL     1       0.185   2.187 -22.036  0.00  0.00    +0.167 A 
ENDROOT
BRANCH   1  22
ATOM     21  C   UNL     1       3.178   1.126 -21.010  0.00  0.00    +0.277 C 
ATOM     22  O   UNL     1       1.964   1.448 -20.998  0.00  0.00    -0.491 OA
ENDBRANCH   1  22
BRANCH  16  23
ATOM     23  O   UNL     1      -4.629   3.370 -21.579  0.00  0.00    -0.349 OA
ATOM     24  C   UNL     1      -5.397   2.404 -21.356  0.00  0.00    +0.197 C 
ENDBRANCH  16  23
BRANCH  16  25
ATOM     25  O   UNL     1      -3.322   2.824 -20.804  0.00  0.00    -0.349 OA
ATOM     26  C   UNL     1      -3.316   3.695 -19.901  0.00  0.00    +0.197 C 
ENDBRANCH  16  25
TORSDOF 3
ENDMDL
