MODEL 1
REMARK VINA RESULT:   -11.387      0.000      0.000
REMARK INTER + INTRA:          -7.238
REMARK INTER:                 -14.204
REMARK INTRA:                   6.966
REMARK UNBOUND:                 6.812
REMARK  Name = ZINC000001609907
REMARK  7 active torsions:
REMARK  status: ('A' for Active; 'I' for Inactive)
REMARK    1  A    between atoms: C_1  and  C_2
REMARK    2  A    between atoms: C_2  and  C_3
REMARK    3  A    between atoms: C_16  and  O_17
REMARK    4  A    between atoms: O_17  and  C_18
REMARK    5  A    between atoms: C_21  and  C_22
REMARK    6  A    between atoms: C_22  and  O_24
REMARK    7  A    between atoms: O_24  and  C_25
REMARK                            x       y       z     vdW  Elec       q    Type
REMARK                         _______ _______ _______ _____ _____    ______ ____
ROOT
ATOM      1  C   UNL     1      -4.085   3.206 -21.905  0.00  0.00    +0.039 C 
ATOM      2  C   UNL     1      -5.413   3.387 -22.109  0.00  0.00    +0.017 C 
ATOM      3  C   UNL     1      -5.823   3.749 -23.558  0.00  0.00    +0.037 C 
ATOM      4  C   UNL     1      -4.814   3.699 -23.799  0.00  0.00    +0.135 C 
ATOM      5  N   UNL     1      -4.252   3.445 -22.911  0.00  0.00    +0.239 N 
ATOM      6  H   UNL     1      -5.242   3.493 -22.668  0.00  0.00    +0.204 HD
ATOM      7  C   UNL     1      -4.243   3.337 -22.426  0.00  0.00    +0.136 C 
ATOM      8  C   UNL     1      -2.742   3.119 -22.134  0.00  0.00    +0.088 C 
ATOM      9  C   UNL     1      -1.730   3.292 -23.380  0.00  0.00    -0.013 A 
ATOM     10  C   UNL     1      -2.347   3.623 -24.594  0.00  0.00    +0.043 A 
ATOM     11  C   UNL     1      -3.389   3.664 -24.296  0.00  0.00    +0.150 C 
ATOM     12  N   UNL     1      -1.360   3.729 -25.525  0.00  0.00    -0.357 N 
ATOM     13  H   UNL     1      -1.479   3.951 -26.477  0.00  0.00    +0.166 HD
ATOM     14  C   UNL     1      -0.150   3.463 -24.886  0.00  0.00    +0.047 A 
ATOM     15  C   UNL     1       1.144   3.430 -25.332  0.00  0.00    +0.030 A 
ATOM     16  C   UNL     1       2.161   3.134 -24.461  0.00  0.00    +0.047 A 
ATOM     17  C   UNL     1       1.889   2.870 -23.147  0.00  0.00    +0.121 A 
ATOM     18  C   UNL     1       0.602   2.904 -22.705  0.00  0.00    +0.056 A 
ATOM     19  C   UNL     1      -0.411   3.200 -23.572  0.00  0.00    +0.007 A 
ATOM     20  C   UNL     1      -4.799   3.886 -24.650  0.00  0.00    +0.038 C 
ATOM     21  C   UNL     1      -3.221   3.404 -23.198  0.00  0.00    +0.091 C 
ENDROOT
BRANCH   1  23
ATOM     22  C   UNL     1      -3.115   3.534 -19.830  0.00  0.00    +0.004 C 
ATOM     23  C   UNL     1      -3.824   2.917 -20.718  0.00  0.00    +0.006 C 
ENDBRANCH   1  23
BRANCH  11  24
ATOM     24  C   UNL     1      -3.466   3.905 -25.351  0.00  0.00    +0.324 C 
ATOM     25  O   UNL     1      -3.509   4.958 -25.580  0.00  0.00    -0.250 OA
BRANCH  24  26
ATOM     26  O   UNL     1      -3.505   2.978 -26.293  0.00  0.00    -0.467 OA
ATOM     27  C   UNL     1      -3.615   3.381 -27.576  0.00  0.00    +0.280 C 
ENDBRANCH  24  26
ENDBRANCH  11  24
BRANCH  17  28
ATOM     28  O   UNL     1       2.869   2.570 -22.240  0.00  0.00    -0.495 OA
ATOM     29  C   UNL     1       2.674   1.601 -21.330  0.00  0.00    +0.277 C 
ENDBRANCH  17  28
TORSDOF 4
ENDMDL
