MODEL 1
REMARK VINA RESULT:   -12.759      0.000      0.000
REMARK INTER + INTRA:         -13.132
REMARK INTER:                 -13.132
REMARK INTRA:                   0.000
REMARK UNBOUND:                 0.000
REMARK  Name = C[C@]1(O)CC[C@H]2[C@@H]3CC(=O)C4=CC(=O)CC[C@]4(C)[C@H]3CC[C@@]21C    ZINC000118913917
REMARK  4 active torsions:
REMARK  status: ('A' for Active; 'I' for Inactive)
REMARK    1  A    between atoms: C_1  and  C_2
REMARK    2  A    between atoms: C_2  and  O_3
REMARK    3  A    between atoms: C_17  and  C_18
REMARK    4  A    between atoms: C_22  and  C_23
REMARK                            x       y       z     vdW  Elec       q    Type
REMARK                         _______ _______ _______ _____ _____    ______ ____
ROOT
ATOM      1  C   UNL     1      -5.194   4.043 -24.092  0.00  0.00    +0.042 C 
ATOM      2  C   UNL     1      -4.957   3.526 -22.926  0.00  0.00    +0.069 C 
ATOM      3  C   UNL     1      -5.043   3.063 -21.712  0.00  0.00    +0.035 C 
ATOM      4  C   UNL     1      -3.862   2.651 -21.351  0.00  0.00    +0.007 C 
ATOM      5  C   UNL     1      -3.044   2.859 -22.343  0.00  0.00    +0.002 C 
ATOM      6  C   UNL     1      -1.774   2.627 -22.486  0.00  0.00    +0.004 C 
ATOM      7  C   UNL     1      -1.096   2.086 -21.513  0.00  0.00    +0.083 C 
ATOM      8  C   UNL     1       0.175   1.855 -21.660  0.00  0.00    +0.160 C 
ATOM      9  C   UNL     1       0.772   2.163 -22.776  0.00  0.00    +0.004 C 
ATOM     10  C   UNL     1       2.042   1.931 -22.921  0.00  0.00    +0.053 C 
ATOM     11  C   UNL     1       2.640   2.239 -24.038  0.00  0.00    +0.157 C 
ATOM     12  C   UNL     1       1.959   2.779 -25.008  0.00  0.00    +0.080 C 
ATOM     13  C   UNL     1       0.688   3.011 -24.862  0.00  0.00    +0.019 C 
ATOM     14  O   UNL     1       3.911   2.007 -24.183  0.00  0.00    -0.293 OA
ATOM     15  C   UNL     1       0.092   2.703 -23.746  0.00  0.00    -0.000 C 
ATOM     16  C   UNL     1      -0.586   3.243 -24.716  0.00  0.00    +0.016 C 
ATOM     17  O   UNL     1       0.855   1.314 -20.689  0.00  0.00    -0.292 OA
ATOM     18  C   UNL     1      -1.180   2.934 -23.600  0.00  0.00    +0.003 C 
ATOM     19  C   UNL     1      -1.858   3.474 -24.570  0.00  0.00    +0.005 C 
ATOM     20  C   UNL     1      -3.125   3.707 -24.431  0.00  0.00    +0.010 C 
ATOM     21  C   UNL     1      -3.716   3.399 -23.318  0.00  0.00    -0.000 C 
ATOM     22  C   UNL     1      -4.435   3.923 -24.224  0.00  0.00    +0.014 C 
ENDROOT
BRANCH   2  23
ATOM     23  O   UNL     1      -6.227   3.747 -22.754  0.00  0.00    -0.388 OA
ATOM     24  H   UNL     1      -6.382   4.060 -21.849  0.00  0.00    +0.210 HD
ENDBRANCH   2  23
TORSDOF 1
ENDMDL
