MODEL 1
REMARK VINA RESULT:    -8.718      0.000      0.000
REMARK INTER + INTRA:          -3.654
REMARK INTER:                  -9.012
REMARK INTRA:                   5.358
REMARK UNBOUND:                 5.319
REMARK  Name = CC1(C)[C@@H]2C[C@@H](N3CCOCC3)[C@](C)(O)C[C@H]21                     ZINC000106755958
REMARK  5 active torsions:
REMARK  status: ('A' for Active; 'I' for Inactive)
REMARK    1  A    between atoms: C_1  and  C_2
REMARK    2  A    between atoms: C_2  and  C_3
REMARK    3  A    between atoms: C_6  and  N_7
REMARK    4  A    between atoms: C_13  and  C_14
REMARK    5  A    between atoms: C_13  and  O_15
REMARK                            x       y       z     vdW  Elec       q    Type
REMARK                         _______ _______ _______ _____ _____    ______ ____
ROOT
ATOM      1  C   UNL     1      -4.239   3.671 -21.441  0.00  0.00    +0.011 C 
ATOM      2  C   UNL     1      -3.840   3.581 -22.675  0.00  0.00    -0.028 C 
ATOM      3  C   UNL     1      -2.555   3.686 -22.505  0.00  0.00    +0.004 C 
ATOM      4  C   UNL     1      -1.271   3.791 -22.336  0.00  0.00    +0.061 C 
ATOM      5  C   UNL     1      -0.474   3.748 -23.362  0.00  0.00    +0.097 C 
ATOM      6  C   UNL     1      -0.962   3.601 -24.558  0.00  0.00    +0.106 C 
ATOM      7  C   UNL     1      -2.247   3.496 -24.727  0.00  0.00    +0.044 C 
ATOM      8  C   UNL     1       0.306   3.662 -24.838  0.00  0.00    +0.047 C 
ATOM      9  C   UNL     1      -4.987   3.445 -23.273  0.00  0.00    +0.011 C 
ATOM     10  C   UNL     1      -3.043   3.539 -23.701  0.00  0.00    +0.002 C 
ENDROOT
BRANCH   5  11
ATOM     11  N   UNL     1       0.810   3.853 -23.193  0.00  0.00    +0.243 N 
ATOM     12  H   UNL     1      -0.092   4.279 -23.407  0.00  0.00    +0.204 HD
ATOM     13  C   UNL     1       1.391   5.008 -23.326  0.00  0.00    +0.160 C 
ATOM     14  C   UNL     1       2.676   5.114 -23.157  0.00  0.00    +0.210 C 
ATOM     15  O   UNL     1       3.380   4.063 -22.854  0.00  0.00    -0.369 OA
ATOM     16  C   UNL     1       2.798   2.908 -22.721  0.00  0.00    +0.210 C 
ATOM     17  C   UNL     1       1.514   2.803 -22.890  0.00  0.00    +0.160 C 
ENDBRANCH   5  11
BRANCH   6  18
ATOM     18  O   UNL     1      -1.010   3.474 -25.851  0.00  0.00    -0.383 OA
ATOM     19  H   UNL     1      -0.143   3.691 -26.229  0.00  0.00    +0.210 HD
ENDBRANCH   6  18
TORSDOF 2
ENDMDL
