MODEL 1
REMARK VINA RESULT:    -9.530      0.000      0.000
REMARK INTER + INTRA:         -11.539
REMARK INTER:                 -10.909
REMARK INTRA:                  -0.631
REMARK UNBOUND:                -0.617
REMARK  Name = ZINC000013334944
REMARK  5 active torsions:
REMARK  status: ('A' for Active; 'I' for Inactive)
REMARK    1  A    between atoms: C_1  and  O_2
REMARK    2  A    between atoms: O_2  and  C_3
REMARK    3  A    between atoms: C_5  and  O_6
REMARK    4  A    between atoms: C_9  and  C_10
REMARK    5  A    between atoms: C_12  and  C_13
REMARK                            x       y       z     vdW  Elec       q    Type
REMARK                         _______ _______ _______ _____ _____    ______ ____
ROOT
ATOM      1  C   UNL     1       2.135   1.464 -21.740  0.00  0.00    +0.130 A 
ATOM      2  C   UNL     1       2.901   1.771 -22.745  0.00  0.00    +0.092 A 
ATOM      3  C   UNL     1       2.399   2.365 -23.786  0.00  0.00    +0.134 A 
ATOM      4  C   UNL     1       1.132   2.652 -23.823  0.00  0.00    +0.101 A 
ATOM      5  C   UNL     1       0.366   2.345 -22.818  0.00  0.00    +0.142 A 
ATOM      6  O   UNL     1      -0.902   2.633 -22.856  0.00  0.00    -0.483 OA
ATOM      7  C   UNL     1      -1.403   3.227 -23.897  0.00  0.00    +0.211 C 
ATOM      8  C   UNL     1      -0.637   3.534 -24.902  0.00  0.00    +0.129 C 
ATOM      9  C   UNL     1       0.630   3.247 -24.865  0.00  0.00    +0.174 C 
ATOM     10  O   UNL     1       1.396   3.554 -25.870  0.00  0.00    -0.292 OA
ATOM     11  C   UNL     1       0.868   1.751 -21.777  0.00  0.00    +0.034 A 
ATOM     12  C   UNL     1       0.102   1.444 -20.772  0.00  0.00    +0.051 C 
ENDROOT
BRANCH   7  13
ATOM     13  C   UNL     1      -2.670   3.514 -23.934  0.00  0.00    -0.007 A 
ATOM     14  C   UNL     1      -3.165   4.139 -24.959  0.00  0.00    +0.007 A 
ATOM     15  C   UNL     1      -4.433   4.427 -24.996  0.00  0.00    +0.000 A 
ATOM     16  C   UNL     1      -5.205   4.088 -24.006  0.00  0.00    +0.000 A 
ATOM     17  C   UNL     1      -4.709   3.463 -22.980  0.00  0.00    +0.000 A 
ATOM     18  C   UNL     1      -3.442   3.176 -22.943  0.00  0.00    +0.007 A 
ENDBRANCH   7  13
BRANCH   1  20
ATOM     19  C   UNL     1       3.824   0.343 -20.759  0.00  0.00    +0.277 C 
ATOM     20  O   UNL     1       2.637   0.869 -20.698  0.00  0.00    -0.495 OA
ENDBRANCH   1  20
BRANCH   3  21
ATOM     21  O   UNL     1       3.165   2.672 -24.791  0.00  0.00    -0.506 OA
ATOM     22  H   UNL     1       3.595   3.504 -24.815  0.00  0.00    +0.292 HD
ENDBRANCH   3  21
TORSDOF 3
ENDMDL
