MODEL 1
REMARK VINA RESULT:   -12.738      0.000      0.000
REMARK INTER + INTRA:         -13.110
REMARK INTER:                 -13.110
REMARK INTRA:                   0.000
REMARK UNBOUND:                 0.000
REMARK  Name = C[C@]1(O)CC[C@H]2[C@@H]3CC(=O)[C@H]4CC(=O)CC[C@]4(C)[C@H]3CC[C@@]21C ZINC000118913918
REMARK  4 active torsions:
REMARK  status: ('A' for Active; 'I' for Inactive)
REMARK    1  A    between atoms: C_1  and  C_2
REMARK    2  A    between atoms: C_2  and  O_3
REMARK    3  A    between atoms: C_17  and  C_18
REMARK    4  A    between atoms: C_22  and  C_23
REMARK                            x       y       z     vdW  Elec       q    Type
REMARK                         _______ _______ _______ _____ _____    ______ ____
ROOT
ATOM      1  C   UNL     1      -5.208   4.100 -24.076  0.00  0.00    +0.042 C 
ATOM      2  C   UNL     1      -4.971   3.556 -22.923  0.00  0.00    +0.069 C 
ATOM      3  C   UNL     1      -5.057   3.063 -21.721  0.00  0.00    +0.035 C 
ATOM      4  C   UNL     1      -3.874   2.649 -21.366  0.00  0.00    +0.007 C 
ATOM      5  C   UNL     1      -3.055   2.887 -22.351  0.00  0.00    +0.002 C 
ATOM      6  C   UNL     1      -1.783   2.666 -22.496  0.00  0.00    +0.003 C 
ATOM      7  C   UNL     1      -1.104   2.106 -21.534  0.00  0.00    +0.078 C 
ATOM      8  C   UNL     1       0.169   1.886 -21.684  0.00  0.00    +0.138 C 
ATOM      9  C   UNL     1       0.766   2.225 -22.790  0.00  0.00    +0.068 C 
ATOM     10  C   UNL     1       2.039   2.005 -22.937  0.00  0.00    +0.086 C 
ATOM     11  C   UNL     1       2.638   2.343 -24.045  0.00  0.00    +0.134 C 
ATOM     12  C   UNL     1       1.955   2.903 -25.003  0.00  0.00    +0.075 C 
ATOM     13  C   UNL     1       0.682   3.123 -24.855  0.00  0.00    +0.015 C 
ATOM     14  O   UNL     1       3.910   2.123 -24.192  0.00  0.00    -0.297 OA
ATOM     15  C   UNL     1       0.085   2.784 -23.749  0.00  0.00    -0.019 C 
ATOM     16  C   UNL     1      -0.593   3.343 -24.707  0.00  0.00    +0.012 C 
ATOM     17  O   UNL     1       0.850   1.327 -20.724  0.00  0.00    -0.297 OA
ATOM     18  C   UNL     1      -1.189   3.004 -23.600  0.00  0.00    -0.001 C 
ATOM     19  C   UNL     1      -1.867   3.563 -24.559  0.00  0.00    +0.005 C 
ATOM     20  C   UNL     1      -3.136   3.785 -24.418  0.00  0.00    +0.010 C 
ATOM     21  C   UNL     1      -3.728   3.446 -23.314  0.00  0.00    -0.000 C 
ATOM     22  C   UNL     1      -4.448   3.988 -24.210  0.00  0.00    +0.014 C 
ENDROOT
BRANCH   2  23
ATOM     23  O   UNL     1      -6.243   3.764 -22.749  0.00  0.00    -0.388 OA
ATOM     24  H   UNL     1      -6.447   3.749 -21.800  0.00  0.00    +0.210 HD
ENDBRANCH   2  23
TORSDOF 1
ENDMDL
