MODEL 1
REMARK VINA RESULT:    -9.145      0.000      0.000
REMARK INTER + INTRA:         -12.412
REMARK INTER:                 -13.438
REMARK INTRA:                   1.026
REMARK UNBOUND:                 0.475
REMARK  Name = ZINC000004104917
REMARK  10 active torsions:
REMARK  status: ('A' for Active; 'I' for Inactive)
REMARK    1  A    between atoms: C_1  and  C_2
REMARK    2  A    between atoms: C_2  and  O_4
REMARK    3  A    between atoms: O_4  and  C_5
REMARK    4  A    between atoms: C_5  and  C_6
REMARK    5  A    between atoms: C_8  and  O_9
REMARK    6  A    between atoms: O_9  and  C_10
REMARK    7  A    between atoms: C_10  and  C_11
REMARK    8  A    between atoms: C_22  and  O_23
REMARK    9  A    between atoms: O_23  and  C_24
REMARK   10  A    between atoms: C_24  and  C_25
REMARK                            x       y       z     vdW  Elec       q    Type
REMARK                         _______ _______ _______ _____ _____    ______ ____
ROOT
ATOM      1  C   UNL     1       0.792   1.814 -21.444  0.00  0.00    -0.006 A 
ATOM      2  C   UNL     1       1.164   2.138 -22.647  0.00  0.00    +0.054 A 
ATOM      3  C   UNL     1       0.295   2.611 -23.490  0.00  0.00    +0.143 A 
ATOM      4  C   UNL     1      -0.945   2.758 -23.131  0.00  0.00    +0.076 A 
ATOM      5  C   UNL     1      -1.318   2.434 -21.929  0.00  0.00    +0.037 A 
ATOM      6  C   UNL     1      -2.558   2.582 -21.570  0.00  0.00    +0.195 C 
ATOM      7  C   UNL     1      -3.427   3.054 -22.413  0.00  0.00    +0.037 A 
ATOM      8  C   UNL     1      -4.667   3.202 -22.054  0.00  0.00    +0.012 A 
ATOM      9  C   UNL     1      -5.537   3.674 -22.898  0.00  0.00    +0.004 A 
ATOM     10  C   UNL     1      -5.165   3.999 -24.101  0.00  0.00    +0.047 A 
ATOM     11  C   UNL     1      -3.924   3.851 -24.460  0.00  0.00    +0.143 A 
ATOM     12  C   UNL     1      -3.055   3.379 -23.616  0.00  0.00    +0.075 A 
ATOM     13  O   UNL     1      -2.930   2.257 -20.367  0.00  0.00    -0.287 OA
ATOM     14  C   UNL     1      -1.815   3.231 -23.975  0.00  0.00    +0.202 C 
ATOM     15  O   UNL     1      -1.443   3.556 -25.178  0.00  0.00    -0.286 OA
ATOM     16  C   UNL     1      -0.448   1.961 -21.085  0.00  0.00    +0.019 A 
ENDROOT
BRANCH   1  17
ATOM     17  C   UNL     1       1.661   1.341 -20.600  0.00  0.00    +0.267 C 
BRANCH  17  18
ATOM     18  O   UNL     1       2.666   0.636 -21.028  0.00  0.00    -0.460 OA
BRANCH  18  20
ATOM     19  C   UNL     1       4.869   0.246 -20.776  0.00  0.00    +0.136 C 
ATOM     20  C   UNL     1       3.879   1.081 -20.887  0.00  0.00    +0.304 C 
ATOM     21  O   UNL     1       4.102   2.362 -20.858  0.00  0.00    -0.251 OA
ENDBRANCH  18  20
ENDBRANCH  17  18
ENDBRANCH   1  17
BRANCH   3  22
ATOM     22  O   UNL     1       0.667   2.935 -24.693  0.00  0.00    -0.425 OA
BRANCH  22  23
ATOM     23  C   UNL     1       1.847   2.599 -25.122  0.00  0.00    +0.309 C 
ATOM     24  O   UNL     1       1.967   1.894 -26.208  0.00  0.00    -0.251 OA
ATOM     25  C   UNL     1       2.907   2.966 -24.464  0.00  0.00    +0.136 C 
ENDBRANCH  22  23
ENDBRANCH   3  22
BRANCH  11  26
ATOM     26  O   UNL     1      -3.552   4.176 -25.662  0.00  0.00    -0.425 OA
BRANCH  26  27
ATOM     27  C   UNL     1      -3.887   3.426 -26.671  0.00  0.00    +0.309 C 
ATOM     28  O   UNL     1      -4.806   2.518 -26.528  0.00  0.00    -0.251 OA
ATOM     29  C   UNL     1      -3.302   3.584 -27.821  0.00  0.00    +0.136 C 
ENDBRANCH  26  27
ENDBRANCH  11  26
TORSDOF 7
ENDMDL
