MODEL 1
REMARK VINA RESULT:   -10.123      0.000      0.000
REMARK INTER + INTRA:         -11.498
REMARK INTER:                 -11.196
REMARK INTRA:                  -0.301
REMARK UNBOUND:                -0.192
REMARK  Name = COc1cc2c(cc1OC)[C@@]13CCN[C@H](C2)[C@@H]1CCC(=O)C3                   ZINC000100393757
REMARK  4 active torsions:
REMARK  status: ('A' for Active; 'I' for Inactive)
REMARK    1  A    between atoms: C_1  and  O_2
REMARK    2  A    between atoms: O_2  and  C_3
REMARK    3  A    between atoms: C_8  and  O_9
REMARK    4  A    between atoms: O_9  and  C_10
REMARK                            x       y       z     vdW  Elec       q    Type
REMARK                         _______ _______ _______ _____ _____    ______ ____
ROOT
ATOM      1  C   UNL     1       0.589   2.141 -22.983  0.00  0.00    +0.162 A 
ATOM      2  C   UNL     1      -0.257   1.953 -22.060  0.00  0.00    +0.053 A 
ATOM      3  C   UNL     1      -1.638   2.397 -22.262  0.00  0.00    -0.035 A 
ATOM      4  C   UNL     1      -1.887   2.864 -23.176  0.00  0.00    -0.033 A 
ATOM      5  C   UNL     1      -2.706   3.219 -23.502  0.00  0.00    +0.015 C 
ATOM      6  C   UNL     1      -1.166   2.636 -23.080  0.00  0.00    +0.063 C 
ATOM      7  C   UNL     1      -0.951   1.990 -21.738  0.00  0.00    +0.130 C 
ATOM      8  N   UNL     1      -1.888   1.902 -20.991  0.00  0.00    +0.230 N 
ATOM      9  H   UNL     1      -2.042   0.895 -20.947  0.00  0.00    +0.202 HD
ATOM     10  H   UNL     1      -1.623   2.393 -20.137  0.00  0.00    +0.202 HD
ATOM     11  C   UNL     1      -3.313   2.447 -21.395  0.00  0.00    +0.071 C 
ATOM     12  C   UNL     1      -2.985   3.782 -24.618  0.00  0.00    +0.086 C 
ATOM     13  C   UNL     1      -4.200   4.196 -24.849  0.00  0.00    +0.134 C 
ATOM     14  O   UNL     1      -4.481   4.764 -25.975  0.00  0.00    -0.297 OA
ATOM     15  C   UNL     1      -5.151   4.039 -23.936  0.00  0.00    +0.075 C 
ATOM     16  C   UNL     1      -4.903   3.466 -22.779  0.00  0.00    +0.017 C 
ATOM     17  C   UNL     1      -3.726   3.049 -22.519  0.00  0.00    +0.049 C 
ATOM     18  C   UNL     1      -1.020   3.075 -24.164  0.00  0.00    +0.054 A 
ATOM     19  C   UNL     1      -2.405   2.201 -21.368  0.00  0.00    +0.090 C 
ATOM     20  C   UNL     1       0.214   2.707 -24.050  0.00  0.00    +0.162 A 
ENDROOT
BRANCH   1  22
ATOM     21  C   UNL     1       2.696   2.310 -22.089  0.00  0.00    +0.277 C 
ATOM     22  O   UNL     1       1.864   1.779 -22.906  0.00  0.00    -0.491 OA
ENDBRANCH   1  22
BRANCH  20  23
ATOM     23  O   UNL     1       1.042   2.919 -25.015  0.00  0.00    -0.491 OA
ATOM     24  C   UNL     1       1.153   4.112 -25.513  0.00  0.00    +0.277 C 
ENDBRANCH  20  23
TORSDOF 2
ENDMDL
