MODEL 1
REMARK VINA RESULT:   -10.545      0.000      0.000
REMARK INTER + INTRA:         -10.853
REMARK INTER:                 -10.853
REMARK INTRA:                   0.000
REMARK UNBOUND:                 0.000
REMARK  Name = C=C1C(=O)O[C@@H]2/C=C(\C)[C@H](O)C/C=C(\C)CC[C@@H]12                 ZINC000100392377
REMARK  3 active torsions:
REMARK  status: ('A' for Active; 'I' for Inactive)
REMARK    1  A    between atoms: C_8  and  C_9
REMARK    2  A    between atoms: C_10  and  O_11
REMARK    3  A    between atoms: C_14  and  C_15
REMARK                            x       y       z     vdW  Elec       q    Type
REMARK                         _______ _______ _______ _____ _____    ______ ____
ROOT
ATOM      1  C   UNL     1       0.632   1.531 -21.215  0.00  0.00    +0.020 C 
ATOM      2  C   UNL     1      -0.091   1.978 -22.201  0.00  0.00    +0.036 C 
ATOM      3  C   UNL     1       0.315   2.159 -23.426  0.00  0.00    +0.336 C 
ATOM      4  O   UNL     1      -0.686   2.615 -24.123  0.00  0.00    -0.453 OA
ATOM      5  C   UNL     1      -1.714   2.715 -23.326  0.00  0.00    +0.207 C 
ATOM      6  C   UNL     1      -2.799   3.069 -23.504  0.00  0.00    +0.019 C 
ATOM      7  C   UNL     1      -3.213   3.469 -24.662  0.00  0.00    -0.045 C 
ATOM      8  C   UNL     1      -4.516   3.882 -24.828  0.00  0.00    +0.144 C 
ATOM      9  C   UNL     1      -5.475   3.903 -23.785  0.00  0.00    +0.063 C 
ATOM     10  C   UNL     1      -5.221   3.520 -22.506  0.00  0.00    -0.025 C 
ATOM     11  C   UNL     1      -4.093   3.146 -22.294  0.00  0.00    -0.076 C 
ATOM     12  C   UNL     1      -3.595   2.728 -21.163  0.00  0.00    +0.031 C 
ATOM     13  C   UNL     1      -2.254   2.323 -21.077  0.00  0.00    +0.016 C 
ATOM     14  C   UNL     1      -3.475   3.172 -23.133  0.00  0.00    +0.039 C 
ATOM     15  C   UNL     1      -2.391   3.482 -25.684  0.00  0.00    +0.041 C 
ATOM     16  O   UNL     1       1.515   1.926 -23.880  0.00  0.00    -0.245 OA
ATOM     17  C   UNL     1      -1.347   2.323 -22.142  0.00  0.00    +0.070 C 
ENDROOT
BRANCH   8  18
ATOM     18  O   UNL     1      -4.890   4.279 -26.020  0.00  0.00    -0.387 OA
ATOM     19  H   UNL     1      -5.177   3.512 -26.541  0.00  0.00    +0.210 HD
ENDBRANCH   8  18
TORSDOF 1
ENDMDL
