MODEL 1
REMARK VINA RESULT:    -9.837      0.000      0.000
REMARK INTER + INTRA:          -9.837
REMARK INTER:                  -9.837
REMARK INTRA:                   0.000
REMARK UNBOUND:                 0.000
REMARK  Name = ZINC000000338173
REMARK  2 active torsions:
REMARK  status: ('A' for Active; 'I' for Inactive)
REMARK    1  A    between atoms: C_1  and  N_2
REMARK    2  A    between atoms: N_2  and  C_3
REMARK                            x       y       z     vdW  Elec       q    Type
REMARK                         _______ _______ _______ _____ _____    ______ ____
ROOT
ATOM      1  C   UNL     1       2.215   2.647 -24.260  0.00  0.00    +0.193 C 
ATOM      2  N   UNL     1       0.939   2.724 -24.023  0.00  0.00    +0.245 N 
ATOM      3  C   UNL     1       1.372   2.434 -22.833  0.00  0.00    +0.138 C 
ATOM      4  C   UNL     1       0.532   2.313 -21.848  0.00  0.00    +0.086 C 
ATOM      5  C   UNL     1      -0.740   2.482 -22.053  0.00  0.00    -0.030 A 
ATOM      6  C   UNL     1      -1.579   2.360 -21.067  0.00  0.00    +0.054 A 
ATOM      7  C   UNL     1      -2.852   2.529 -21.273  0.00  0.00    +0.167 A 
ATOM      8  C   UNL     1      -3.285   2.820 -22.464  0.00  0.00    +0.174 A 
ATOM      9  O   UNL     1      -4.578   2.936 -22.405  0.00  0.00    -0.452 OA
ATOM     10  C   UNL     1      -4.945   2.717 -21.177  0.00  0.00    +0.466 C 
ATOM     11  C   UNL     1      -2.446   2.941 -23.450  0.00  0.00    +0.037 A 
ATOM     12  C   UNL     1      -2.878   3.232 -24.640  0.00  0.00    -0.010 A 
ATOM     13  C   UNL     1      -4.151   3.401 -24.846  0.00  0.00    +0.009 A 
ATOM     14  C   UNL     1      -4.584   3.691 -26.037  0.00  0.00    +0.001 A 
ATOM     15  C   UNL     1      -3.745   3.812 -27.022  0.00  0.00    +0.000 A 
ATOM     16  C   UNL     1      -2.472   3.643 -26.816  0.00  0.00    +0.004 A 
ATOM     17  C   UNL     1      -2.039   3.353 -25.626  0.00  0.00    -0.034 A 
ATOM     18  C   UNL     1      -0.766   3.184 -25.420  0.00  0.00    +0.095 C 
ATOM     19  O   UNL     1      -3.878   2.466 -20.478  0.00  0.00    -0.453 OA
ATOM     20  C   UNL     1      -1.173   2.772 -23.243  0.00  0.00    +0.015 A 
ATOM     21  C   UNL     1       0.949   2.988 -25.296  0.00  0.00    +0.193 C 
ATOM     22  C   UNL     1      -0.333   2.893 -24.230  0.00  0.00    +0.102 C 
ENDROOT
TORSDOF 0
ENDMDL
