MODEL 1
REMARK VINA RESULT:   -10.809      0.000      0.000
REMARK INTER + INTRA:         -11.502
REMARK INTER:                 -11.492
REMARK INTRA:                  -0.010
REMARK UNBOUND:                -0.061
REMARK  Name = ZINC000020113198
REMARK  2 active torsions:
REMARK  status: ('A' for Active; 'I' for Inactive)
REMARK    1  A    between atoms: C_1  and  C_2
REMARK    2  A    between atoms: C_2  and  C_3
REMARK                            x       y       z     vdW  Elec       q    Type
REMARK                         _______ _______ _______ _____ _____    ______ ____
ROOT
ATOM      1  C   UNL     1      -3.457   3.650 -24.304  0.00  0.00    +0.028 C 
ATOM      2  C   UNL     1      -4.665   3.996 -24.552  0.00  0.00    +0.018 C 
ATOM      3  C   UNL     1      -5.567   3.861 -23.653  0.00  0.00    +0.052 C 
ATOM      4  C   UNL     1      -5.262   3.378 -22.507  0.00  0.00    +0.132 C 
ATOM      5  N   UNL     1      -4.055   3.032 -22.258  0.00  0.00    +0.242 N 
ATOM      6  H   UNL     1      -4.616   2.848 -21.426  0.00  0.00    +0.204 HD
ATOM      7  C   UNL     1      -3.750   2.549 -21.112  0.00  0.00    +0.136 C 
ATOM      8  C   UNL     1      -2.541   2.202 -20.864  0.00  0.00    +0.088 C 
ATOM      9  C   UNL     1      -1.639   2.338 -21.762  0.00  0.00    -0.008 A 
ATOM     10  C   UNL     1      -1.944   2.821 -22.909  0.00  0.00    +0.079 A 
ATOM     11  N   UNL     1      -0.879   2.854 -23.621  0.00  0.00    -0.278 N 
ATOM     12  C   UNL     1      -1.346   3.438 -24.954  0.00  0.00    +0.233 C 
ATOM     13  O   UNL     1      -0.306   3.621 -26.061  0.00  0.00    -0.272 OA
ATOM     14  C   UNL     1       0.084   2.391 -22.913  0.00  0.00    +0.057 A 
ATOM     15  C   UNL     1       1.328   2.220 -23.167  0.00  0.00    +0.027 A 
ATOM     16  C   UNL     1       2.102   1.729 -22.272  0.00  0.00    +0.002 A 
ATOM     17  C   UNL     1       1.632   1.411 -21.124  0.00  0.00    +0.001 A 
ATOM     18  C   UNL     1       0.389   1.583 -20.870  0.00  0.00    +0.010 A 
ATOM     19  C   UNL     1      -0.385   2.073 -21.765  0.00  0.00    +0.004 A 
ATOM     20  C   UNL     1      -3.152   3.167 -23.157  0.00  0.00    +0.120 C 
ATOM     21  C   UNL     1      -2.553   3.785 -25.202  0.00  0.00    +0.112 C 
ENDROOT
BRANCH   1  23
ATOM     22  C   UNL     1      -4.492   3.456 -26.256  0.00  0.00    +0.004 C 
ATOM     23  C   UNL     1      -3.762   4.132 -25.450  0.00  0.00    +0.010 C 
ENDBRANCH   1  23
TORSDOF 1
ENDMDL
