MODEL 1
REMARK VINA RESULT:    -9.766      0.000      0.000
REMARK INTER + INTRA:          -9.766
REMARK INTER:                  -9.766
REMARK INTRA:                   0.000
REMARK UNBOUND:                 0.000
REMARK  Name = ZINC000004104808
REMARK  3 active torsions:
REMARK  status: ('A' for Active; 'I' for Inactive)
REMARK    1  A    between atoms: C_1  and  C_2
REMARK    2  A    between atoms: C_6  and  C_7
REMARK    3  A    between atoms: C_14  and  C_15
REMARK                            x       y       z     vdW  Elec       q    Type
REMARK                         _______ _______ _______ _____ _____    ______ ____
ROOT
ATOM      1  C   UNL     1      -3.256   3.756 -27.076  0.00  0.00    +0.007 C 
ATOM      2  C   UNL     1      -3.454   3.584 -25.803  0.00  0.00    -0.014 C 
ATOM      3  C   UNL     1      -4.644   3.739 -25.303  0.00  0.00    +0.003 C 
ATOM      4  C   UNL     1      -4.842   3.567 -24.031  0.00  0.00    +0.003 C 
ATOM      5  C   UNL     1      -3.850   3.238 -23.257  0.00  0.00    +0.037 C 
ATOM      6  C   UNL     1      -4.048   3.065 -21.984  0.00  0.00    +0.097 C 
ATOM      7  O   UNL     1      -4.247   2.893 -20.711  0.00  0.00    -0.361 OA
ATOM      8  C   UNL     1      -5.308   3.345 -22.142  0.00  0.00    +0.044 C 
ATOM      9  C   UNL     1      -3.057   2.737 -21.210  0.00  0.00    +0.191 C 
ATOM     10  C   UNL     1      -1.867   2.581 -21.710  0.00  0.00    +0.212 C 
ATOM     11  O   UNL     1      -0.730   2.262 -21.166  0.00  0.00    -0.458 OA
ATOM     12  C   UNL     1       0.171   2.237 -22.104  0.00  0.00    +0.311 C 
ATOM     13  C   UNL     1      -0.410   2.541 -23.226  0.00  0.00    +0.101 C 
ATOM     14  C   UNL     1       0.168   2.619 -24.388  0.00  0.00    +0.019 C 
ATOM     15  O   UNL     1       1.430   1.957 -21.945  0.00  0.00    -0.251 OA
ATOM     16  C   UNL     1      -1.669   2.754 -22.983  0.00  0.00    +0.046 C 
ATOM     17  C   UNL     1      -2.660   3.082 -23.756  0.00  0.00    +0.008 C 
ATOM     18  C   UNL     1      -2.462   3.255 -25.030  0.00  0.00    +0.004 C 
ENDROOT
TORSDOF 0
ENDMDL
