MODEL 1
REMARK VINA RESULT:    -8.347      0.000      0.000
REMARK INTER + INTRA:         -11.807
REMARK INTER:                 -10.041
REMARK INTRA:                  -1.767
REMARK UNBOUND:                -0.533
REMARK  Name = ZINC000004762374
REMARK  6 active torsions:
REMARK  status: ('A' for Active; 'I' for Inactive)
REMARK    1  A    between atoms: C_2  and  CA_4
REMARK    2  A    between atoms: CA_4  and  CB_5
REMARK    3  A    between atoms: CA_4  and  N_12
REMARK    4  A    between atoms: CB_5  and  CG_6
REMARK    5  A    between atoms: N_12  and  C_13
REMARK    6  A    between atoms: C_13  and  C_14
REMARK                            x       y       z     vdW  Elec       q    Type
REMARK                         _______ _______ _______ _____ _____    ______ ____
ROOT
ATOM      1  CA  PHE A   1       2.050   1.525 -21.744  0.00  0.00    +0.114 C 
ENDROOT
BRANCH   1   2
ATOM      2  N   PHE A   1       0.919   1.562 -21.105  0.00  0.00    +0.237 N 
ATOM      3  H1  PHE A   1       1.050   0.883 -20.355  0.00  0.00    +0.202 HD
ATOM      4  H2  PHE A   1       0.763   2.534 -20.836  0.00  0.00    +0.202 HD
BRANCH   2   5
ATOM      5  C   UNK A   0      -0.170   1.156 -21.687  0.00  0.00    +0.166 C 
BRANCH   5   6
ATOM      6  C   UNK A   0      -1.036   2.021 -22.123  0.00  0.00    -0.003 A 
ATOM      7  C   UNK A   0      -1.506   2.932 -21.322  0.00  0.00    +0.009 A 
ATOM      8  C   UNK A   0      -2.372   3.798 -21.757  0.00  0.00    +0.000 A 
ATOM      9  C   UNK A   0      -2.769   3.753 -22.995  0.00  0.00    +0.000 A 
ATOM     10  C   UNK A   0      -2.300   2.843 -23.796  0.00  0.00    +0.000 A 
ATOM     11  C   UNK A   0      -1.434   1.978 -23.359  0.00  0.00    +0.009 A 
ENDBRANCH   5   6
ENDBRANCH   2   5
ENDBRANCH   1   2
BRANCH   1  13
ATOM     12  O   PHE A   1       3.521   0.013 -20.957  0.00  0.00    -0.544 OA
ATOM     13  C   PHE A   1       2.686   0.399 -21.875  0.00  0.00    +0.090 C 
ATOM     14  OXT PHE A   1       2.487  -0.341 -22.926  0.00  0.00    -0.544 OA
ENDBRANCH   1  13
BRANCH   1  15
ATOM     15  CB  PHE A   1       2.545   2.615 -22.251  0.00  0.00    +0.095 C 
BRANCH  15  16
ATOM     16  CG  PHE A   1       2.004   3.144 -23.308  0.00  0.00    -0.042 A 
ATOM     17  CD2 PHE A   1       2.036   2.508 -24.442  0.00  0.00    +0.004 A 
ATOM     18  CE2 PHE A   1       1.496   3.035 -25.500  0.00  0.00    +0.000 A 
ATOM     19  CZ  PHE A   1       0.923   4.200 -25.424  0.00  0.00    +0.000 A 
ATOM     20  CE1 PHE A   1       0.890   4.836 -24.291  0.00  0.00    +0.000 A 
ATOM     21  CD1 PHE A   1       1.431   4.308 -23.232  0.00  0.00    +0.004 A 
ENDBRANCH  15  16
ENDBRANCH   1  15
TORSDOF 6
ENDMDL
