MODEL 1
REMARK VINA RESULT:   -10.362      0.000      0.000
REMARK INTER + INTRA:         -12.457
REMARK INTER:                 -13.156
REMARK INTRA:                   0.699
REMARK UNBOUND:                 0.631
REMARK  Name = COCO[C@@H]1C=C2[C@H]3Cc4ccc(OC)c5c4[C@]2(CCN3C)[C@](C)(O5)[C@@H]1O   ZINC000100393640
REMARK  9 active torsions:
REMARK  status: ('A' for Active; 'I' for Inactive)
REMARK    1  A    between atoms: C_1  and  O_2
REMARK    2  A    between atoms: O_2  and  C_3
REMARK    3  A    between atoms: C_3  and  O_4
REMARK    4  A    between atoms: O_4  and  C_5
REMARK    5  A    between atoms: C_13  and  O_14
REMARK    6  A    between atoms: O_14  and  C_15
REMARK    7  A    between atoms: N_21  and  C_22
REMARK    8  A    between atoms: C_23  and  C_24
REMARK    9  A    between atoms: C_26  and  O_27
REMARK                            x       y       z     vdW  Elec       q    Type
REMARK                         _______ _______ _______ _____ _____    ______ ____
ROOT
ATOM      1  C   UNL     1       0.971   2.157 -22.652  0.00  0.00    +0.176 C 
ATOM      2  C   UNL     1       0.613   2.667 -23.745  0.00  0.00    +0.013 C 
ATOM      3  C   UNL     1      -0.603   2.984 -23.931  0.00  0.00    -0.009 C 
ATOM      4  C   UNL     1      -0.959   3.499 -25.039  0.00  0.00    +0.096 C 
ATOM      5  C   UNL     1      -2.162   3.814 -25.224  0.00  0.00    +0.094 C 
ATOM      6  C   UNL     1      -3.024   3.616 -24.301  0.00  0.00    -0.034 A 
ATOM      7  C   UNL     1      -4.231   3.931 -24.486  0.00  0.00    +0.008 A 
ATOM      8  C   UNL     1      -5.075   3.735 -23.576  0.00  0.00    +0.050 A 
ATOM      9  C   UNL     1      -4.724   3.222 -22.469  0.00  0.00    +0.162 A 
ATOM     10  C   UNL     1      -3.504   2.904 -22.284  0.00  0.00    +0.167 A 
ATOM     11  O   UNL     1      -2.486   2.321 -21.336  0.00  0.00    -0.478 OA
ATOM     12  C   UNL     1      -1.083   2.271 -21.912  0.00  0.00    +0.150 C 
ATOM     13  C   UNL     1      -1.011   1.792 -20.751  0.00  0.00    +0.060 C 
ATOM     14  C   UNL     1      -2.653   3.103 -23.204  0.00  0.00    +0.016 A 
ATOM     15  N   UNL     1       0.432   3.178 -24.931  0.00  0.00    +0.239 N 
ATOM     16  H   UNL     1       1.092   3.350 -25.689  0.00  0.00    +0.204 HD
ATOM     17  C   UNL     1       1.233   3.396 -25.874  0.00  0.00    +0.191 C 
ATOM     18  C   UNL     1       0.864   2.602 -23.709  0.00  0.00    +0.133 C 
ATOM     19  C   UNL     1      -0.113   2.394 -22.701  0.00  0.00    +0.071 C 
ATOM     20  C   UNL     1      -1.451   2.790 -23.023  0.00  0.00    +0.072 C 
ATOM     21  C   UNL     1       0.121   1.958 -21.730  0.00  0.00    +0.192 C 
ENDROOT
BRANCH   9  22
ATOM     22  O   UNL     1      -5.572   3.028 -21.562  0.00  0.00    -0.491 OA
ATOM     23  C   UNL     1      -6.707   2.568 -21.847  0.00  0.00    +0.277 C 
ENDBRANCH   9  22
BRANCH  21  24
ATOM     24  O   UNL     1       0.482   1.448 -20.637  0.00  0.00    -0.385 OA
ATOM     25  H   UNL     1       0.091   0.566 -20.548  0.00  0.00    +0.210 HD
ENDBRANCH  21  24
BRANCH   1  26
ATOM     26  O   UNL     1       2.177   1.845 -22.472  0.00  0.00    -0.344 OA
BRANCH  26  27
ATOM     27  C   UNL     1       2.576   0.683 -22.747  0.00  0.00    +0.323 C 
BRANCH  27  29
ATOM     28  C   UNL     1       3.838   0.402 -20.992  0.00  0.00    +0.196 C 
ATOM     29  O   UNL     1       3.028  -0.060 -21.837  0.00  0.00    -0.357 OA
ENDBRANCH  27  29
ENDBRANCH  26  27
ENDBRANCH   1  26
TORSDOF 5
ENDMDL
