MODEL 1
REMARK VINA RESULT:   -11.368      0.000      0.000
REMARK INTER + INTRA:         -12.637
REMARK INTER:                 -12.724
REMARK INTRA:                   0.088
REMARK UNBOUND:                 0.060
REMARK  Name = ZINC000004104666
REMARK  5 active torsions:
REMARK  status: ('A' for Active; 'I' for Inactive)
REMARK    1  A    between atoms: C_1  and  C_2
REMARK    2  A    between atoms: C_2  and  C_3
REMARK    3  A    between atoms: C_3  and  O_4
REMARK    4  A    between atoms: C_18  and  C_19
REMARK    5  A    between atoms: C_23  and  C_24
REMARK                            x       y       z     vdW  Elec       q    Type
REMARK                         _______ _______ _______ _____ _____    ______ ____
ROOT
ATOM      1  C   UNL     1      -4.676   3.235 -22.437  0.00  0.00    +0.071 C 
ATOM      2  C   UNL     1      -4.637   2.722 -21.232  0.00  0.00    +0.035 C 
ATOM      3  C   UNL     1      -3.398   2.367 -20.985  0.00  0.00    +0.007 C 
ATOM      4  C   UNL     1      -2.673   2.660 -22.034  0.00  0.00    +0.002 C 
ATOM      5  C   UNL     1      -1.398   2.508 -22.287  0.00  0.00    +0.004 C 
ATOM      6  C   UNL     1      -0.612   1.969 -21.382  0.00  0.00    +0.083 C 
ATOM      7  C   UNL     1       0.666   1.816 -21.634  0.00  0.00    +0.160 C 
ATOM      8  C   UNL     1       1.158   2.199 -22.785  0.00  0.00    +0.004 C 
ATOM      9  C   UNL     1       2.437   2.046 -23.037  0.00  0.00    +0.053 C 
ATOM     10  C   UNL     1       2.930   2.429 -24.189  0.00  0.00    +0.157 C 
ATOM     11  C   UNL     1       2.146   2.968 -25.094  0.00  0.00    +0.080 C 
ATOM     12  C   UNL     1       0.867   3.121 -24.840  0.00  0.00    +0.019 C 
ATOM     13  O   UNL     1       4.209   2.275 -24.440  0.00  0.00    -0.293 OA
ATOM     14  C   UNL     1       0.374   2.738 -23.690  0.00  0.00    -0.000 C 
ATOM     15  C   UNL     1      -0.410   3.276 -24.592  0.00  0.00    +0.016 C 
ATOM     16  O   UNL     1       1.451   1.278 -20.731  0.00  0.00    -0.292 OA
ATOM     17  C   UNL     1      -0.904   2.892 -23.439  0.00  0.00    +0.003 C 
ATOM     18  C   UNL     1      -1.690   3.430 -24.343  0.00  0.00    +0.005 C 
ATOM     19  C   UNL     1      -2.968   3.583 -24.090  0.00  0.00    +0.010 C 
ATOM     20  C   UNL     1      -3.459   3.199 -22.938  0.00  0.00    -0.000 C 
ATOM     21  C   UNL     1      -4.268   3.724 -23.798  0.00  0.00    +0.014 C 
ENDROOT
BRANCH   1  23
ATOM     22  C   UNL     1      -6.642   2.374 -21.667  0.00  0.00    +0.007 C 
ATOM     23  C   UNL     1      -5.954   3.371 -22.143  0.00  0.00    +0.032 C 
ENDBRANCH   1  23
BRANCH   1  24
ATOM     24  O   UNL     1      -5.031   3.666 -23.292  0.00  0.00    -0.388 OA
ATOM     25  H   UNL     1      -4.583   3.279 -24.061  0.00  0.00    +0.210 HD
ENDBRANCH   1  24
TORSDOF 2
ENDMDL
