MODEL 1
REMARK VINA RESULT:   -10.283      0.000      0.000
REMARK INTER + INTRA:         -13.414
REMARK INTER:                 -12.781
REMARK INTRA:                  -0.633
REMARK UNBOUND:                 0.476
REMARK  Name = ZINC000003998737
REMARK  6 active torsions:
REMARK  status: ('A' for Active; 'I' for Inactive)
REMARK    1  A    between atoms: C_2  and  C_3
REMARK    2  A    between atoms: C_10  and  C_11
REMARK    3  A    between atoms: C_11  and  O_12
REMARK    4  A    between atoms: C_11  and  C_21
REMARK    5  A    between atoms: O_12  and  C_13
REMARK    6  A    between atoms: C_13  and  C_15
REMARK                            x       y       z     vdW  Elec       q    Type
REMARK                         _______ _______ _______ _____ _____    ______ ____
ROOT
ATOM      1  C   UNL     1      -0.993   2.667 -23.816  0.00  0.00    +0.255 C 
ENDROOT
BRANCH   1   2
ATOM      2  C   UNL     1      -2.090   3.064 -24.441  0.00  0.00    +0.009 A 
ATOM      3  C   UNL     1      -2.061   3.303 -25.737  0.00  0.00    +0.028 A 
ATOM      4  C   UNL     1      -3.155   3.699 -26.363  0.00  0.00    +0.112 A 
ATOM      5  N   UNL     1      -4.278   3.856 -25.684  0.00  0.00    -0.255 NA
ATOM      6  C   UNL     1      -4.307   3.618 -24.388  0.00  0.00    +0.071 A 
ATOM      7  C   UNL     1      -5.429   3.775 -23.710  0.00  0.00    +0.028 A 
ATOM      8  C   UNL     1      -5.457   3.536 -22.415  0.00  0.00    +0.002 A 
ATOM      9  C   UNL     1      -4.363   3.140 -21.789  0.00  0.00    +0.001 A 
ATOM     10  C   UNL     1      -3.241   2.983 -22.468  0.00  0.00    +0.010 A 
ATOM     11  C   UNL     1      -3.212   3.221 -23.764  0.00  0.00    +0.007 A 
ENDBRANCH   1   2
BRANCH   1  18
ATOM     12  C   UNL     1       2.044   5.200 -23.325  0.00  0.00    +0.060 C 
ATOM     13  C   UNL     1       0.901   5.383 -22.647  0.00  0.00    +0.139 C 
ATOM     14  N   UNL     1      -0.104   4.524 -22.825  0.00  0.00    +0.241 N 
ATOM     15  H   UNL     1      -1.040   4.468 -22.425  0.00  0.00    +0.204 HD
ATOM     16  C   UNL     1       0.906   4.778 -23.109  0.00  0.00    +0.132 C 
ATOM     17  C   UNL     1       1.219   3.987 -23.858  0.00  0.00    +0.055 C 
ATOM     18  C   UNL     1       0.013   3.506 -23.654  0.00  0.00    +0.111 C 
ATOM     19  C   UNL     1       1.152   3.328 -24.327  0.00  0.00    +0.063 C 
ATOM     20  C   UNL     1       2.156   4.166 -24.165  0.00  0.00    +0.011 C 
BRANCH  12  22
ATOM     21  C   UNL     1       4.241   5.584 -22.810  0.00  0.00    +0.004 C 
ATOM     22  C   UNL     1       3.054   6.039 -23.165  0.00  0.00    -0.026 C 
ENDBRANCH  12  22
ENDBRANCH   1  18
BRANCH   1  23
ATOM     23  O   UNL     1      -0.905   1.434 -23.357  0.00  0.00    -0.447 OA
BRANCH  23  24
ATOM     24  C   UNL     1      -0.466   1.217 -22.132  0.00  0.00    +0.340 C 
ATOM     25  O   UNL     1      -1.324   1.081 -21.138  0.00  0.00    -0.245 OA
BRANCH  24  26
ATOM     26  C   UNL     1       0.829   1.136 -21.901  0.00  0.00    +0.059 A 
ATOM     27  C   UNL     1       1.351   1.738 -20.845  0.00  0.00    +0.015 A 
ATOM     28  C   UNL     1       2.647   1.657 -20.616  0.00  0.00    +0.001 A 
ATOM     29  C   UNL     1       3.425   0.977 -21.435  0.00  0.00    +0.000 A 
ATOM     30  C   UNL     1       2.903   0.375 -22.492  0.00  0.00    +0.001 A 
ATOM     31  C   UNL     1       1.607   0.457 -22.721  0.00  0.00    +0.015 A 
ENDBRANCH  24  26
ENDBRANCH  23  24
ENDBRANCH   1  23
TORSDOF 6
ENDMDL
