MODEL 1
REMARK VINA RESULT:   -10.834      0.000      0.000
REMARK INTER + INTRA:         -11.564
REMARK INTER:                 -11.465
REMARK INTRA:                  -0.099
REMARK UNBOUND:                -0.096
REMARK  Name = ZINC000029476073
REMARK  4 active torsions:
REMARK  status: ('A' for Active; 'I' for Inactive)
REMARK    1  A    between atoms: C_1  and  O_2
REMARK    2  A    between atoms: O_2  and  C_3
REMARK    3  A    between atoms: N_12  and  C_13
REMARK    4  A    between atoms: C_17  and  C_18
REMARK                            x       y       z     vdW  Elec       q    Type
REMARK                         _______ _______ _______ _____ _____    ______ ____
ROOT
ATOM      1  C   UNL     1       0.161   3.847 -23.905  0.00  0.00    +0.120 A 
ATOM      2  C   UNL     1      -0.066   3.779 -25.151  0.00  0.00    +0.046 A 
ATOM      3  C   UNL     1      -1.263   3.651 -25.546  0.00  0.00    +0.008 A 
ATOM      4  C   UNL     1      -2.344   3.587 -24.551  0.00  0.00    -0.038 A 
ATOM      5  C   UNL     1      -2.079   3.650 -23.526  0.00  0.00    -0.033 A 
ATOM      6  C   UNL     1      -2.611   3.630 -22.737  0.00  0.00    +0.016 C 
ATOM      7  C   UNL     1      -1.506   3.686 -24.009  0.00  0.00    +0.063 C 
ATOM      8  C   UNL     1      -1.999   3.587 -25.394  0.00  0.00    +0.132 C 
ATOM      9  N   UNL     1      -3.153   3.471 -25.588  0.00  0.00    +0.236 N 
ATOM     10  H   UNL     1      -4.155   3.383 -25.416  0.00  0.00    +0.203 HD
ATOM     11  C   UNL     1      -4.207   3.417 -24.406  0.00  0.00    +0.073 C 
ATOM     12  C   UNL     1      -2.960   3.437 -26.976  0.00  0.00    +0.190 C 
ATOM     13  C   UNL     1      -2.305   3.705 -21.520  0.00  0.00    +0.086 C 
ATOM     14  C   UNL     1      -3.234   3.651 -20.615  0.00  0.00    +0.134 C 
ATOM     15  O   UNL     1      -2.917   3.728 -19.373  0.00  0.00    -0.297 OA
ATOM     16  C   UNL     1      -4.500   3.519 -20.954  0.00  0.00    +0.078 C 
ATOM     17  C   UNL     1      -4.860   3.438 -22.196  0.00  0.00    +0.002 C 
ATOM     18  C   UNL     1      -6.101   3.310 -22.508  0.00  0.00    +0.008 C 
ATOM     19  C   UNL     1      -3.985   3.487 -23.102  0.00  0.00    +0.052 C 
ATOM     20  C   UNL     1      -3.541   3.459 -24.955  0.00  0.00    +0.090 C 
ATOM     21  C   UNL     1      -0.834   3.785 -23.082  0.00  0.00    +0.050 A 
ENDROOT
BRANCH   1  23
ATOM     22  C   UNL     1       2.299   4.800 -23.266  0.00  0.00    +0.277 C 
ATOM     23  O   UNL     1       1.340   3.986 -23.172  0.00  0.00    -0.495 OA
ENDBRANCH   1  23
TORSDOF 1
ENDMDL
