MODEL 1
REMARK VINA RESULT:   -10.868      0.000      0.000
REMARK INTER + INTRA:         -10.890
REMARK INTER:                 -11.737
REMARK INTRA:                   0.847
REMARK UNBOUND:                 0.931
REMARK  Name = ZINC000001280592
REMARK  6 active torsions:
REMARK  status: ('A' for Active; 'I' for Inactive)
REMARK    1  A    between atoms: C_1  and  O_2
REMARK    2  A    between atoms: O_2  and  C_3
REMARK    3  A    between atoms: C_11  and  O_12
REMARK    4  A    between atoms: O_12  and  C_13
REMARK    5  A    between atoms: C_14  and  O_15
REMARK    6  A    between atoms: N_20  and  C_21
REMARK                            x       y       z     vdW  Elec       q    Type
REMARK                         _______ _______ _______ _____ _____    ______ ____
ROOT
ATOM      1  C   UNL     1      -2.341   3.503 -25.074  0.00  0.00    +0.159 C 
ATOM      2  C   UNL     1      -3.052   3.436 -24.428  0.00  0.00    +0.032 C 
ATOM      3  C   UNL     1      -2.884   3.111 -22.961  0.00  0.00    +0.075 C 
ATOM      4  C   UNL     1      -3.775   3.217 -23.053  0.00  0.00    +0.076 C 
ATOM      5  C   UNL     1      -3.653   3.403 -23.992  0.00  0.00    +0.090 C 
ATOM      6  C   UNL     1      -2.019   3.274 -24.133  0.00  0.00    -0.035 A 
ATOM      7  C   UNL     1      -0.843   3.397 -25.263  0.00  0.00    +0.008 A 
ATOM      8  C   UNL     1       0.323   3.217 -24.944  0.00  0.00    +0.049 A 
ATOM      9  C   UNL     1       0.603   2.938 -23.746  0.00  0.00    +0.162 A 
ATOM     10  C   UNL     1      -0.331   2.839 -22.841  0.00  0.00    +0.163 A 
ATOM     11  C   UNL     1      -1.599   3.023 -23.133  0.00  0.00    +0.009 A 
ATOM     12  N   UNL     1      -4.398   3.049 -21.966  0.00  0.00    +0.236 N 
ATOM     13  H   UNL     1      -5.413   3.142 -21.939  0.00  0.00    +0.203 HD
ATOM     14  C   UNL     1      -5.653   3.153 -21.881  0.00  0.00    +0.190 C 
ATOM     15  C   UNL     1      -3.642   2.756 -20.921  0.00  0.00    +0.132 C 
ATOM     16  C   UNL     1      -2.355   2.680 -21.155  0.00  0.00    +0.064 C 
ATOM     17  C   UNL     1      -2.034   2.897 -22.333  0.00  0.00    +0.023 C 
ATOM     18  C   UNL     1      -0.930   3.010 -23.379  0.00  0.00    +0.095 C 
ATOM     19  C   UNL     1      -1.351   3.348 -24.792  0.00  0.00    +0.198 C 
ATOM     20  O   UNL     1      -2.394   3.788 -26.404  0.00  0.00    -0.289 OA
ENDROOT
BRANCH   1  22
ATOM     21  C   UNL     1      -3.274   3.481 -27.542  0.00  0.00    +0.277 C 
ATOM     22  O   UNL     1      -3.495   3.841 -26.146  0.00  0.00    -0.492 OA
ENDBRANCH   1  22
BRANCH  10  23
ATOM     23  O   UNL     1       0.580   2.591 -22.087  0.00  0.00    -0.503 OA
ATOM     24  H   UNL     1       1.449   2.489 -22.421  0.00  0.00    +0.292 HD
ENDBRANCH  10  23
BRANCH   9  25
ATOM     25  O   UNL     1       1.807   2.726 -23.294  0.00  0.00    -0.491 OA
ATOM     26  C   UNL     1       2.843   2.788 -23.969  0.00  0.00    +0.277 C 
ENDBRANCH   9  25
TORSDOF 3
ENDMDL
