MODEL 1
REMARK VINA RESULT:   -10.324      0.000      0.000
REMARK INTER + INTRA:         -10.324
REMARK INTER:                 -10.324
REMARK INTRA:                   0.000
REMARK UNBOUND:                 0.000
REMARK  Name = CC1=CCC[C@@]23O[C@@H]2[C@@H](OC3=O)c2c(C)coc2C1                      ZINC000822218737
REMARK  2 active torsions:
REMARK  status: ('A' for Active; 'I' for Inactive)
REMARK    1  A    between atoms: C_1  and  C_2
REMARK    2  A    between atoms: C_14  and  C_15
REMARK                            x       y       z     vdW  Elec       q    Type
REMARK                         _______ _______ _______ _____ _____    ______ ____
ROOT
ATOM      1  C   UNL     1      -3.341   2.306 -20.999  0.00  0.00    +0.039 C 
ATOM      2  C   UNL     1      -3.212   2.844 -22.164  0.00  0.00    -0.069 C 
ATOM      3  C   UNL     1      -4.508   2.809 -21.635  0.00  0.00    -0.027 C 
ATOM      4  C   UNL     1      -5.606   3.386 -22.449  0.00  0.00    +0.030 C 
ATOM      5  C   UNL     1      -5.264   3.920 -23.680  0.00  0.00    +0.053 C 
ATOM      6  C   UNL     1      -4.132   3.757 -23.740  0.00  0.00    +0.196 C 
ATOM      7  O   UNL     1      -4.317   3.230 -22.579  0.00  0.00    -0.349 OA
ATOM      8  C   UNL     1      -3.691   4.220 -24.859  0.00  0.00    +0.343 C 
ATOM      9  O   UNL     1      -4.398   4.781 -25.778  0.00  0.00    -0.247 OA
ATOM     10  O   UNL     1      -2.416   4.022 -24.896  0.00  0.00    -0.452 OA
ATOM     11  C   UNL     1      -2.070   3.437 -23.802  0.00  0.00    +0.242 C 
ATOM     12  C   UNL     1      -1.103   3.106 -23.452  0.00  0.00    +0.039 A 
ATOM     13  C   UNL     1       0.040   3.195 -24.042  0.00  0.00    -0.006 A 
ATOM     14  C   UNL     1       0.931   2.674 -23.270  0.00  0.00    +0.199 A 
ATOM     15  O   UNL     1       0.336   2.260 -22.201  0.00  0.00    -0.467 OA
ATOM     16  C   UNL     1       0.244   3.720 -25.205  0.00  0.00    +0.047 C 
ATOM     17  C   UNL     1      -0.917   2.526 -22.311  0.00  0.00    +0.116 A 
ATOM     18  C   UNL     1      -3.136   3.274 -23.087  0.00  0.00    +0.208 C 
ATOM     19  C   UNL     1      -2.058   2.359 -21.563  0.00  0.00    +0.105 C 
ENDROOT
TORSDOF 0
ENDMDL
