MODEL 1
REMARK VINA RESULT:    -9.474      0.000      0.000
REMARK INTER + INTRA:         -10.286
REMARK INTER:                 -10.085
REMARK INTRA:                  -0.202
REMARK UNBOUND:                 0.295
REMARK  Name = CC[N@+]1(C)CCc2cc3c(c4c2[C@H]1Cc1ccc(OC)cc1-4)OCO3                   ZINC000249692479
REMARK  5 active torsions:
REMARK  status: ('A' for Active; 'I' for Inactive)
REMARK    1  A    between atoms: C_1  and  C_2
REMARK    2  A    between atoms: C_2  and  N_3
REMARK    3  A    between atoms: N_3  and  C_4
REMARK    4  A    between atoms: C_18  and  O_19
REMARK    5  A    between atoms: O_19  and  C_20
REMARK                            x       y       z     vdW  Elec       q    Type
REMARK                         _______ _______ _______ _____ _____    ______ ____
ROOT
ATOM      1  N   UNL     1       0.972   2.108 -22.275  0.00  0.00    +0.247 N 
ATOM      2  C   UNL     1       1.755   2.210 -23.306  0.00  0.00    +0.138 C 
ATOM      3  C   UNL     1       1.271   2.572 -24.457  0.00  0.00    +0.086 C 
ATOM      4  C   UNL     1       0.003   2.833 -24.576  0.00  0.00    -0.030 A 
ATOM      5  C   UNL     1      -0.480   3.195 -25.727  0.00  0.00    +0.054 A 
ATOM      6  C   UNL     1      -1.748   3.456 -25.847  0.00  0.00    +0.167 A 
ATOM      7  C   UNL     1      -2.533   3.354 -24.814  0.00  0.00    +0.174 A 
ATOM      8  O   UNL     1      -3.737   3.665 -25.192  0.00  0.00    -0.452 OA
ATOM      9  C   UNL     1      -3.697   3.958 -26.459  0.00  0.00    +0.466 C 
ATOM     10  C   UNL     1      -2.048   2.992 -23.663  0.00  0.00    +0.037 A 
ATOM     11  C   UNL     1      -2.833   2.890 -22.631  0.00  0.00    -0.007 A 
ATOM     12  C   UNL     1      -4.101   3.151 -22.750  0.00  0.00    +0.054 A 
ATOM     13  C   UNL     1      -4.884   3.049 -21.718  0.00  0.00    +0.121 A 
ATOM     14  C   UNL     1      -4.401   2.687 -20.568  0.00  0.00    +0.046 A 
ATOM     15  C   UNL     1      -3.133   2.427 -20.448  0.00  0.00    +0.008 A 
ATOM     16  C   UNL     1      -2.349   2.528 -21.480  0.00  0.00    -0.034 A 
ATOM     17  C   UNL     1      -1.081   2.267 -21.361  0.00  0.00    +0.095 C 
ATOM     18  O   UNL     1      -2.468   3.829 -26.863  0.00  0.00    -0.453 OA
ATOM     19  C   UNL     1      -0.781   2.731 -23.545  0.00  0.00    +0.015 A 
ATOM     20  C   UNL     1       0.580   1.890 -21.054  0.00  0.00    +0.193 C 
ATOM     21  C   UNL     1      -0.297   2.369 -22.394  0.00  0.00    +0.102 C 
ENDROOT
BRANCH   1  23
ATOM     22  C   UNL     1       2.677   0.654 -22.065  0.00  0.00    +0.060 C 
ATOM     23  C   UNL     1       2.103   1.772 -21.732  0.00  0.00    +0.130 C 
ENDBRANCH   1  23
BRANCH  13  24
ATOM     24  O   UNL     1      -6.153   3.310 -21.837  0.00  0.00    -0.495 OA
ATOM     25  C   UNL     1      -7.027   2.356 -21.714  0.00  0.00    +0.277 C 
ENDBRANCH  13  24
TORSDOF 2
ENDMDL
