MODEL 1
REMARK VINA RESULT:    -8.639      0.000      0.000
REMARK INTER + INTRA:         -15.950
REMARK INTER:                 -14.669
REMARK INTRA:                  -1.281
REMARK UNBOUND:                -1.251
REMARK  Name = CCCCCCCCCCCC1=C(O)C(=O)C=C(Nc2c(Cl)cccc2Cl)C1=O                      ZINC000100392807
REMARK  13 active torsions:
REMARK  status: ('A' for Active; 'I' for Inactive)
REMARK    1  A    between atoms: C_1  and  C_2
REMARK    2  A    between atoms: C_2  and  C_3
REMARK    3  A    between atoms: C_3  and  C_4
REMARK    4  A    between atoms: C_4  and  C_5
REMARK    5  A    between atoms: C_5  and  C_6
REMARK    6  A    between atoms: C_6  and  C_7
REMARK    7  A    between atoms: C_7  and  C_8
REMARK    8  A    between atoms: C_8  and  C_9
REMARK    9  A    between atoms: C_9  and  C_10
REMARK   10  A    between atoms: C_10  and  C_11
REMARK   11  A    between atoms: C_11  and  C_12
REMARK   12  A    between atoms: C_18  and  N_19
REMARK   13  A    between atoms: N_19  and  C_20
REMARK                            x       y       z     vdW  Elec       q    Type
REMARK                         _______ _______ _______ _____ _____    ______ ____
ROOT
ATOM      1  C   UNL     1      -0.887   3.649 -22.618  0.00  0.00    -0.008 C 
ATOM      2  C   UNL     1      -0.253   4.675 -23.104  0.00  0.00    +0.228 C 
ATOM      3  C   UNL     1       0.991   4.558 -23.465  0.00  0.00    +0.227 C 
ATOM      4  C   UNL     1       1.601   3.417 -23.338  0.00  0.00    +0.077 C 
ATOM      5  C   UNL     1       0.967   2.392 -22.852  0.00  0.00    +0.022 C 
ATOM      6  O   UNL     1       1.625   5.584 -23.951  0.00  0.00    -0.284 OA
ATOM      7  O   UNL     1      -0.862   5.816 -23.231  0.00  0.00    -0.284 OA
ATOM      8  C   UNL     1      -0.278   2.508 -22.492  0.00  0.00    -0.112 C 
ATOM      9  O   UNL     1      -0.912   1.482 -22.006  0.00  0.00    -0.828 OA
ENDROOT
BRANCH   5  10
ATOM     10  N   UNL     1       1.576   1.251 -22.726  0.00  0.00    -0.313 N 
ATOM     11  H   UNL     1       1.129   0.420 -23.006  0.00  0.00    +0.152 HD
BRANCH  10  12
ATOM     12  C   UNL     1       2.777   1.207 -22.230  0.00  0.00    +0.068 A 
ATOM     13  C   UNL     1       3.801   1.064 -23.017  0.00  0.00    +0.063 A 
ATOM     14  C   UNL     1       5.002   1.021 -22.521  0.00  0.00    +0.022 A 
ATOM     15  C   UNL     1       5.178   1.119 -21.237  0.00  0.00    +0.003 A 
ATOM     16  C   UNL     1       4.154   1.261 -20.449  0.00  0.00    +0.022 A 
ATOM     17 CL   UNL     1       3.624   0.966 -24.302  0.00  0.00    -0.082 Cl
ATOM     18  C   UNL     1       2.954   1.305 -20.945  0.00  0.00    +0.063 A 
ATOM     19 CL   UNL     1       1.929   1.448 -20.157  0.00  0.00    -0.082 Cl
ENDBRANCH  10  12
ENDBRANCH   5  10
BRANCH   1  20
ATOM     20  C   UNL     1      -2.130   3.765 -22.258  0.00  0.00    +0.038 C 
BRANCH  20  21
ATOM     21  C   UNL     1      -2.430   3.954 -21.009  0.00  0.00    +0.005 C 
BRANCH  21  22
ATOM     22  C   UNL     1      -3.594   3.592 -20.556  0.00  0.00    +0.000 C 
BRANCH  22  23
ATOM     23  C   UNL     1      -4.199   2.561 -21.065  0.00  0.00    +0.000 C 
BRANCH  23  24
ATOM     24  C   UNL     1      -5.382   2.695 -21.588  0.00  0.00    +0.000 C 
BRANCH  24  25
ATOM     25  C   UNL     1      -5.610   3.644 -22.447  0.00  0.00    +0.000 C 
BRANCH  25  26
ATOM     26  C   UNL     1      -5.307   3.475 -23.699  0.00  0.00    -0.000 C 
BRANCH  26  27
ATOM     27  C   UNL     1      -5.118   4.506 -24.468  0.00  0.00    -0.000 C 
BRANCH  27  28
ATOM     28  C   UNL     1      -4.014   4.620 -25.145  0.00  0.00    -0.000 C 
BRANCH  28  30
ATOM     29  C   UNL     1      -2.331   3.376 -25.975  0.00  0.00    +0.004 C 
ATOM     30  C   UNL     1      -3.602   3.635 -25.887  0.00  0.00    -0.003 C 
ENDBRANCH  28  30
ENDBRANCH  27  28
ENDBRANCH  26  27
ENDBRANCH  25  26
ENDBRANCH  24  25
ENDBRANCH  23  24
ENDBRANCH  22  23
ENDBRANCH  21  22
ENDBRANCH  20  21
ENDBRANCH   1  20
TORSDOF 12
ENDMDL
