MODEL 1
REMARK VINA RESULT:   -10.774      0.000      0.000
REMARK INTER + INTRA:         -11.522
REMARK INTER:                 -11.381
REMARK INTRA:                  -0.140
REMARK UNBOUND:                -0.118
REMARK  Name = COc1ccc2c(c1)[C@]13CCN[C@@H](C2)[C@H]1CCC(=O)C3                      ZINC000100392454
REMARK  2 active torsions:
REMARK  status: ('A' for Active; 'I' for Inactive)
REMARK    1  A    between atoms: C_1  and  O_2
REMARK    2  A    between atoms: O_2  and  C_3
REMARK                            x       y       z     vdW  Elec       q    Type
REMARK                         _______ _______ _______ _____ _____    ______ ____
ROOT
ATOM      1  C   UNL     1      -4.149   3.972 -25.002  0.00  0.00    +0.120 A 
ATOM      2  C   UNL     1      -5.235   4.091 -24.364  0.00  0.00    +0.046 A 
ATOM      3  C   UNL     1      -5.281   3.717 -23.157  0.00  0.00    +0.008 A 
ATOM      4  C   UNL     1      -4.077   3.160 -22.541  0.00  0.00    -0.038 A 
ATOM      5  C   UNL     1      -3.200   3.086 -23.126  0.00  0.00    -0.033 A 
ATOM      6  C   UNL     1      -2.332   2.763 -22.927  0.00  0.00    +0.015 C 
ATOM      7  C   UNL     1      -3.824   3.378 -23.455  0.00  0.00    +0.063 C 
ATOM      8  C   UNL     1      -4.994   3.423 -22.510  0.00  0.00    +0.130 C 
ATOM      9  N   UNL     1      -4.837   3.017 -21.390  0.00  0.00    +0.230 N 
ATOM     10  H   UNL     1      -4.933   3.865 -20.832  0.00  0.00    +0.202 HD
ATOM     11  H   UNL     1      -5.517   2.267 -21.258  0.00  0.00    +0.202 HD
ATOM     12  C   UNL     1      -3.447   2.448 -20.911  0.00  0.00    +0.071 C 
ATOM     13  C   UNL     1      -1.286   2.685 -23.658  0.00  0.00    +0.086 C 
ATOM     14  C   UNL     1      -0.186   2.198 -23.161  0.00  0.00    +0.134 C 
ATOM     15  O   UNL     1       0.872   2.119 -23.900  0.00  0.00    -0.297 OA
ATOM     16  C   UNL     1      -0.142   1.780 -21.902  0.00  0.00    +0.075 C 
ATOM     17  C   UNL     1      -1.196   1.844 -21.122  0.00  0.00    +0.017 C 
ATOM     18  C   UNL     1      -2.287   2.314 -21.572  0.00  0.00    +0.049 C 
ATOM     19  C   UNL     1      -4.160   2.818 -21.400  0.00  0.00    +0.090 C 
ATOM     20  C   UNL     1      -3.121   3.471 -24.398  0.00  0.00    +0.050 A 
ENDROOT
BRANCH   1  22
ATOM     21  C   UNL     1      -3.306   3.647 -27.111  0.00  0.00    +0.277 C 
ATOM     22  O   UNL     1      -3.989   4.332 -26.269  0.00  0.00    -0.495 OA
ENDBRANCH   1  22
TORSDOF 1
ENDMDL
