MODEL 1
REMARK VINA RESULT:   -11.226      0.000      0.000
REMARK INTER + INTRA:         -12.026
REMARK INTER:                 -11.892
REMARK INTRA:                  -0.134
REMARK UNBOUND:                -0.144
REMARK  Name = COc1ccc2c3c1O[C@@H]1C=CC=C4[C@@H](C2)N(C)CC[C@]431                   ZINC000253505392
REMARK  3 active torsions:
REMARK  status: ('A' for Active; 'I' for Inactive)
REMARK    1  A    between atoms: C_1  and  O_2
REMARK    2  A    between atoms: O_2  and  C_3
REMARK    3  A    between atoms: N_17  and  C_18
REMARK                            x       y       z     vdW  Elec       q    Type
REMARK                         _______ _______ _______ _____ _____    ______ ____
ROOT
ATOM      1  C   UNL     1       0.502   2.628 -23.206  0.00  0.00    +0.162 A 
ATOM      2  C   UNL     1       0.429   2.063 -22.080  0.00  0.00    +0.050 A 
ATOM      3  C   UNL     1      -0.668   1.951 -21.499  0.00  0.00    +0.008 A 
ATOM      4  C   UNL     1      -1.702   2.401 -22.035  0.00  0.00    -0.034 A 
ATOM      5  C   UNL     1      -1.654   2.968 -23.155  0.00  0.00    +0.016 A 
ATOM      6  C   UNL     1      -2.688   3.415 -23.684  0.00  0.00    +0.071 C 
ATOM      7  C   UNL     1      -3.797   3.964 -24.386  0.00  0.00    +0.071 C 
ATOM      8  C   UNL     1      -5.049   3.852 -23.755  0.00  0.00    +0.133 C 
ATOM      9  N   UNL     1      -5.092   3.216 -22.501  0.00  0.00    +0.239 N 
ATOM     10  H   UNL     1      -5.974   3.110 -22.001  0.00  0.00    +0.204 HD
ATOM     11  C   UNL     1      -6.162   3.077 -21.875  0.00  0.00    +0.191 C 
ATOM     12  C   UNL     1      -3.859   2.740 -21.980  0.00  0.00    +0.096 C 
ATOM     13  C   UNL     1      -3.788   3.305 -23.106  0.00  0.00    -0.007 C 
ATOM     14  C   UNL     1      -4.836   3.759 -23.644  0.00  0.00    +0.006 C 
ATOM     15  C   UNL     1      -4.770   4.319 -24.756  0.00  0.00    -0.000 C 
ATOM     16  C   UNL     1      -3.665   4.436 -25.350  0.00  0.00    +0.018 C 
ATOM     17  C   UNL     1      -2.630   3.985 -24.815  0.00  0.00    +0.212 C 
ATOM     18  O   UNL     1      -1.140   3.788 -24.923  0.00  0.00    -0.480 OA
ATOM     19  C   UNL     1      -2.825   2.290 -21.446  0.00  0.00    +0.094 C 
ATOM     20  C   UNL     1      -0.547   3.082 -23.744  0.00  0.00    +0.167 A 
ENDROOT
BRANCH   1  22
ATOM     21  C   UNL     1       2.439   3.573 -23.384  0.00  0.00    +0.277 C 
ATOM     22  O   UNL     1       1.602   2.737 -23.784  0.00  0.00    -0.491 OA
ENDBRANCH   1  22
TORSDOF 1
ENDMDL
