MODEL 1
REMARK VINA RESULT:   -12.113      0.000      0.000
REMARK INTER + INTRA:         -12.467
REMARK INTER:                 -12.467
REMARK INTRA:                   0.000
REMARK UNBOUND:                 0.000
REMARK  Name = C[C@]12CC[C@@H]3[C@@H](CC(=O)[C@H]4CC(=O)CC[C@@]43C)[C@H]1CC[C@@H]2O ZINC000253505265
REMARK  3 active torsions:
REMARK  status: ('A' for Active; 'I' for Inactive)
REMARK    1  A    between atoms: C_1  and  C_2
REMARK    2  A    between atoms: C_16  and  C_17
REMARK    3  A    between atoms: C_21  and  O_22
REMARK                            x       y       z     vdW  Elec       q    Type
REMARK                         _______ _______ _______ _____ _____    ______ ____
ROOT
ATOM      1  C   UNL     1      -4.927   3.107 -21.931  0.00  0.00    +0.014 C 
ATOM      2  C   UNL     1      -4.014   3.291 -22.839  0.00  0.00    -0.003 C 
ATOM      3  C   UNL     1      -3.574   2.731 -21.752  0.00  0.00    +0.010 C 
ATOM      4  C   UNL     1      -2.318   2.409 -21.649  0.00  0.00    +0.005 C 
ATOM      5  C   UNL     1      -1.504   2.648 -22.634  0.00  0.00    -0.001 C 
ATOM      6  C   UNL     1      -1.944   3.208 -23.721  0.00  0.00    +0.003 C 
ATOM      7  C   UNL     1      -1.130   3.446 -24.706  0.00  0.00    +0.078 C 
ATOM      8  C   UNL     1       0.125   3.125 -24.604  0.00  0.00    +0.138 C 
ATOM      9  C   UNL     1       0.566   2.565 -23.516  0.00  0.00    +0.068 C 
ATOM     10  C   UNL     1       1.821   2.243 -23.414  0.00  0.00    +0.086 C 
ATOM     11  C   UNL     1       2.262   1.683 -22.327  0.00  0.00    +0.134 C 
ATOM     12  C   UNL     1       1.448   1.444 -21.342  0.00  0.00    +0.075 C 
ATOM     13  C   UNL     1       0.193   1.766 -21.444  0.00  0.00    +0.015 C 
ATOM     14  O   UNL     1       3.518   1.361 -22.224  0.00  0.00    -0.297 OA
ATOM     15  O   UNL     1       0.940   3.363 -25.588  0.00  0.00    -0.297 OA
ATOM     16  C   UNL     1      -0.249   2.326 -22.532  0.00  0.00    -0.019 C 
ATOM     17  C   UNL     1      -1.063   2.088 -21.547  0.00  0.00    +0.012 C 
ATOM     18  C   UNL     1      -5.198   3.701 -23.188  0.00  0.00    +0.121 C 
ATOM     19  C   UNL     1      -5.114   4.194 -24.388  0.00  0.00    +0.032 C 
ATOM     20  C   UNL     1      -3.880   4.087 -24.781  0.00  0.00    +0.007 C 
ATOM     21  C   UNL     1      -3.200   3.530 -23.824  0.00  0.00    +0.001 C 
ENDROOT
BRANCH  18  22
ATOM     22  O   UNL     1      -6.276   3.632 -22.464  0.00  0.00    -0.391 OA
ATOM     23  H   UNL     1      -6.104   3.085 -21.681  0.00  0.00    +0.210 HD
ENDBRANCH  18  22
TORSDOF 1
ENDMDL
