MODEL 1
REMARK VINA RESULT:   -11.177      0.000      0.000
REMARK INTER + INTRA:         -12.421
REMARK INTER:                 -12.312
REMARK INTRA:                  -0.110
REMARK UNBOUND:                 0.063
REMARK  Name = ZINC000032275646
REMARK  4 active torsions:
REMARK  status: ('A' for Active; 'I' for Inactive)
REMARK    1  A    between atoms: C_1  and  C_2
REMARK    2  A    between atoms: C_2  and  C_3
REMARK    3  A    between atoms: C_14  and  O_15
REMARK    4  A    between atoms: O_15  and  C_16
REMARK                            x       y       z     vdW  Elec       q    Type
REMARK                         _______ _______ _______ _____ _____    ______ ____
ROOT
ATOM      1  C   UNL     1      -3.569   3.666 -24.230  0.00  0.00    +0.011 C 
ATOM      2  C   UNL     1      -4.832   3.921 -24.258  0.00  0.00    +0.017 C 
ATOM      3  C   UNL     1      -5.560   3.690 -23.201  0.00  0.00    +0.052 C 
ATOM      4  C   UNL     1      -5.022   3.210 -22.132  0.00  0.00    +0.131 C 
ATOM      5  N   UNL     1      -3.758   2.955 -22.104  0.00  0.00    +0.236 N 
ATOM      6  H   UNL     1      -4.554   2.886 -21.471  0.00  0.00    +0.203 HD
ATOM      7  C   UNL     1      -2.738   2.514 -21.412  0.00  0.00    +0.136 C 
ATOM      8  C   UNL     1      -1.474   2.322 -21.563  0.00  0.00    +0.088 C 
ATOM      9  C   UNL     1      -0.557   2.467 -22.481  0.00  0.00    -0.014 A 
ATOM     10  C   UNL     1      -0.449   2.875 -23.701  0.00  0.00    +0.020 A 
ATOM     11  C   UNL     1      -1.182   3.353 -24.655  0.00  0.00    +0.054 C 
ATOM     12  N   UNL     1       0.802   2.754 -24.046  0.00  0.00    -0.355 N 
ATOM     13  H   UNL     1       1.182   2.989 -24.923  0.00  0.00    +0.166 HD
ATOM     14  C   UNL     1       1.457   2.277 -23.051  0.00  0.00    +0.089 A 
ATOM     15  C   UNL     1       2.718   1.980 -22.902  0.00  0.00    +0.144 A 
ATOM     16  C   UNL     1       3.145   1.499 -21.769  0.00  0.00    +0.048 A 
ATOM     17  C   UNL     1       2.312   1.313 -20.784  0.00  0.00    +0.004 A 
ATOM     18  C   UNL     1       1.050   1.610 -20.933  0.00  0.00    +0.010 A 
ATOM     19  C   UNL     1       0.624   2.092 -22.066  0.00  0.00    +0.007 A 
ATOM     20  C   UNL     1      -3.016   3.178 -23.146  0.00  0.00    +0.138 C 
ATOM     21  C   UNL     1      -2.431   3.667 -24.861  0.00  0.00    +0.018 C 
ENDROOT
BRANCH   1  23
ATOM     22  C   UNL     1      -4.087   3.314 -26.396  0.00  0.00    +0.004 C 
ATOM     23  C   UNL     1      -3.816   4.132 -25.419  0.00  0.00    +0.009 C 
ENDBRANCH   1  23
BRANCH  15  24
ATOM     24  O   UNL     1       3.551   2.165 -23.888  0.00  0.00    -0.493 OA
ATOM     25  C   UNL     1       4.588   2.939 -23.728  0.00  0.00    +0.277 C 
ENDBRANCH  15  24
TORSDOF 2
ENDMDL
