MODEL 1
REMARK VINA RESULT:    -9.596      0.000      0.000
REMARK INTER + INTRA:         -17.605
REMARK INTER:                 -15.931
REMARK INTRA:                  -1.674
REMARK UNBOUND:                -0.715
REMARK  Name = CCCCCCCCCCCC1=C(O)C(=O)C=C(Nc2cccc(C(=O)O)c2)C1=O                    ZINC000100393412
REMARK  14 active torsions:
REMARK  status: ('A' for Active; 'I' for Inactive)
REMARK    1  A    between atoms: C_1  and  C_2
REMARK    2  A    between atoms: C_2  and  C_3
REMARK    3  A    between atoms: C_3  and  C_4
REMARK    4  A    between atoms: C_4  and  C_5
REMARK    5  A    between atoms: C_5  and  C_6
REMARK    6  A    between atoms: C_6  and  C_7
REMARK    7  A    between atoms: C_7  and  C_8
REMARK    8  A    between atoms: C_8  and  C_9
REMARK    9  A    between atoms: C_9  and  C_10
REMARK   10  A    between atoms: C_10  and  C_11
REMARK   11  A    between atoms: C_11  and  C_12
REMARK   12  A    between atoms: C_18  and  N_19
REMARK   13  A    between atoms: N_19  and  C_20
REMARK   14  A    between atoms: C_24  and  C_25
REMARK                            x       y       z     vdW  Elec       q    Type
REMARK                         _______ _______ _______ _____ _____    ______ ____
ROOT
ATOM      1  C   UNL     1      -0.550   2.933 -22.734  0.00  0.00    -0.008 C 
ATOM      2  C   UNL     1      -0.268   4.152 -23.084  0.00  0.00    +0.228 C 
ATOM      3  C   UNL     1       0.925   4.446 -23.508  0.00  0.00    +0.227 C 
ATOM      4  C   UNL     1       1.837   3.522 -23.581  0.00  0.00    +0.077 C 
ATOM      5  C   UNL     1       1.554   2.303 -23.230  0.00  0.00    +0.022 C 
ATOM      6  O   UNL     1       1.208   5.667 -23.859  0.00  0.00    -0.284 OA
ATOM      7  O   UNL     1      -1.178   5.078 -23.012  0.00  0.00    -0.284 OA
ATOM      8  C   UNL     1       0.360   2.008 -22.806  0.00  0.00    -0.112 C 
ATOM      9  O   UNL     1       0.078   0.789 -22.455  0.00  0.00    -0.828 OA
ENDROOT
BRANCH   5  10
ATOM     10  N   UNL     1       2.464   1.378 -23.302  0.00  0.00    -0.315 N 
ATOM     11  H   UNL     1       2.438   0.717 -24.032  0.00  0.00    +0.152 HD
BRANCH  10  12
ATOM     12  C   UNL     1       3.409   1.325 -22.412  0.00  0.00    +0.032 A 
ATOM     13  C   UNL     1       3.434   0.356 -21.546  0.00  0.00    +0.023 A 
ATOM     14  C   UNL     1       4.380   0.303 -20.656  0.00  0.00    +0.002 A 
ATOM     15  C   UNL     1       5.301   1.221 -20.630  0.00  0.00    +0.010 A 
ATOM     16  C   UNL     1       5.276   2.191 -21.496  0.00  0.00    -0.001 A 
ATOM     17  C   UNL     1       4.330   2.243 -22.387  0.00  0.00    +0.033 A 
BRANCH  16  18
ATOM     18  C   UNL     1       6.196   3.108 -21.471  0.00  0.00    +0.072 C 
ATOM     19  O   UNL     1       6.820   3.432 -22.564  0.00  0.00    -0.545 OA
ATOM     20  O   UNL     1       6.492   3.702 -20.352  0.00  0.00    -0.545 OA
ENDBRANCH  16  18
ENDBRANCH  10  12
ENDBRANCH   5  10
BRANCH   1  21
ATOM     21  C   UNL     1      -1.743   2.638 -22.310  0.00  0.00    +0.038 C 
BRANCH  21  22
ATOM     22  C   UNL     1      -2.068   2.865 -21.071  0.00  0.00    +0.005 C 
BRANCH  22  23
ATOM     23  C   UNL     1      -3.276   3.241 -20.774  0.00  0.00    +0.000 C 
BRANCH  23  24
ATOM     24  C   UNL     1      -4.275   2.433 -20.972  0.00  0.00    +0.000 C 
BRANCH  24  25
ATOM     25  C   UNL     1      -5.300   2.826 -21.669  0.00  0.00    +0.000 C 
BRANCH  25  26
ATOM     26  C   UNL     1      -5.161   3.765 -22.557  0.00  0.00    +0.000 C 
BRANCH  26  27
ATOM     27  C   UNL     1      -5.200   3.473 -23.823  0.00  0.00    -0.000 C 
BRANCH  27  28
ATOM     28  C   UNL     1      -4.831   4.355 -24.704  0.00  0.00    -0.000 C 
BRANCH  28  29
ATOM     29  C   UNL     1      -3.574   4.476 -25.016  0.00  0.00    -0.000 C 
BRANCH  29  31
ATOM     30  C   UNL     1      -3.144   3.550 -27.022  0.00  0.00    +0.004 C 
ATOM     31  C   UNL     1      -2.991   3.560 -25.731  0.00  0.00    -0.003 C 
ENDBRANCH  29  31
ENDBRANCH  28  29
ENDBRANCH  27  28
ENDBRANCH  26  27
ENDBRANCH  25  26
ENDBRANCH  24  25
ENDBRANCH  23  24
ENDBRANCH  22  23
ENDBRANCH  21  22
ENDBRANCH   1  21
TORSDOF 13
ENDMDL
