MODEL 1
REMARK VINA RESULT:    -8.759      0.000      0.000
REMARK INTER + INTRA:          -8.212
REMARK INTER:                 -11.462
REMARK INTRA:                   3.249
REMARK UNBOUND:                 3.618
REMARK  Name = ZINC000000199438
REMARK  11 active torsions:
REMARK  status: ('A' for Active; 'I' for Inactive)
REMARK    1  A    between atoms: C_1  and  O_2
REMARK    2  A    between atoms: O_2  and  C_3
REMARK    3  A    between atoms: C_12  and  C_13
REMARK    4  A    between atoms: C_12  and  O_19
REMARK    5  A    between atoms: C_13  and  C_14
REMARK    6  A    between atoms: C_14  and  C_15
REMARK    7  A    between atoms: C_15  and  C_16
REMARK    8  A    between atoms: C_15  and  C_17
REMARK    9  A    between atoms: C_15  and  O_18
REMARK   10  A    between atoms: O_19  and  C_20
REMARK   11  A    between atoms: C_21  and  O_22
REMARK                            x       y       z     vdW  Elec       q    Type
REMARK                         _______ _______ _______ _____ _____    ______ ____
ROOT
ATOM      1  C   UNL     1       3.448   2.317 -23.254  0.00  0.00    +0.137 A 
ATOM      2  C   UNL     1       2.267   2.779 -23.537  0.00  0.00    +0.019 A 
ATOM      3  C   UNL     1       1.257   2.480 -22.775  0.00  0.00    +0.086 A 
ATOM      4  C   UNL     1       0.073   2.942 -23.057  0.00  0.00    +0.137 C 
ATOM      5  C   UNL     1      -0.095   3.699 -24.099  0.00  0.00    +0.153 C 
ATOM      6  C   UNL     1       0.914   3.997 -24.861  0.00  0.00    +0.039 C 
ATOM      7  N   UNL     1       1.426   1.723 -21.734  0.00  0.00    -0.214 NA
ATOM      8  C   UNL     1       2.609   1.263 -21.454  0.00  0.00    +0.231 A 
ATOM      9  O   UNL     1       3.038   0.501 -20.490  0.00  0.00    -0.445 OA
ATOM     10  C   UNL     1       4.315   0.329 -20.657  0.00  0.00    +0.198 A 
ATOM     11  C   UNL     1       4.676   0.982 -21.721  0.00  0.00    +0.055 A 
ATOM     12  C   UNL     1       2.096   3.535 -24.577  0.00  0.00    +0.043 C 
ATOM     13  C   UNL     1       3.620   1.559 -22.212  0.00  0.00    +0.082 A 
ENDROOT
BRANCH   5  14
ATOM     14  O   UNL     1      -1.278   4.160 -24.381  0.00  0.00    -0.389 OA
ATOM     15  H   UNL     1      -1.657   4.580 -23.593  0.00  0.00    +0.210 HD
ENDBRANCH   5  14
BRANCH   4  16
ATOM     16  O   UNL     1      -0.181   2.240 -21.958  0.00  0.00    -0.368 OA
ATOM     17  C   UNL     1      -0.860   1.132 -22.006  0.00  0.00    +0.195 C 
ENDBRANCH   4  16
BRANCH   1  19
ATOM     18  C   UNL     1       5.354   3.462 -23.604  0.00  0.00    +0.277 C 
ATOM     19  O   UNL     1       4.460   2.614 -24.015  0.00  0.00    -0.494 OA
ENDBRANCH   1  19
BRANCH   4  20
ATOM     20  C   UNL     1      -1.209   3.175 -22.976  0.00  0.00    +0.047 C 
BRANCH  20  21
ATOM     21  C   UNL     1      -1.670   3.942 -22.057  0.00  0.00    +0.037 C 
BRANCH  21  22
ATOM     22  C   UNL     1      -2.833   3.727 -21.530  0.00  0.00    +0.061 C 
ATOM     23  C   UNL     1      -2.972   3.773 -20.238  0.00  0.00    +0.041 C 
ATOM     24  C   UNL     1      -4.095   3.454 -21.655  0.00  0.00    +0.041 C 
BRANCH  22  25
ATOM     25  O   UNL     1      -3.342   3.551 -22.710  0.00  0.00    -0.389 OA
ATOM     26  H   UNL     1      -4.245   3.207 -22.625  0.00  0.00    +0.210 HD
ENDBRANCH  22  25
ENDBRANCH  21  22
ENDBRANCH  20  21
ENDBRANCH   4  20
TORSDOF 7
ENDMDL
