MODEL 1
REMARK VINA RESULT:   -11.091      0.000      0.000
REMARK INTER + INTRA:         -12.628
REMARK INTER:                 -12.766
REMARK INTRA:                   0.138
REMARK UNBOUND:                 0.084
REMARK  Name = CC[C@]1(O)CC[C@@H]2[C@@H]3CC=C4C[C@H](O)CC[C@]4(C)[C@@H]3CC[C@@]21C  ZINC000253504217
REMARK  6 active torsions:
REMARK  status: ('A' for Active; 'I' for Inactive)
REMARK    1  A    between atoms: C_1  and  C_2
REMARK    2  A    between atoms: C_2  and  C_3
REMARK    3  A    between atoms: C_3  and  O_4
REMARK    4  A    between atoms: C_13  and  O_14
REMARK    5  A    between atoms: C_17  and  C_18
REMARK    6  A    between atoms: C_22  and  C_23
REMARK                            x       y       z     vdW  Elec       q    Type
REMARK                         _______ _______ _______ _____ _____    ______ ____
ROOT
ATOM      1  C   UNL     1      -4.380   3.279 -22.590  0.00  0.00    +0.071 C 
ATOM      2  C   UNL     1      -4.438   2.774 -21.381  0.00  0.00    +0.035 C 
ATOM      3  C   UNL     1      -3.238   2.346 -21.065  0.00  0.00    +0.007 C 
ATOM      4  C   UNL     1      -2.440   2.588 -22.076  0.00  0.00    +0.001 C 
ATOM      5  C   UNL     1      -1.164   2.356 -22.258  0.00  0.00    +0.000 C 
ATOM      6  C   UNL     1      -0.462   1.778 -21.310  0.00  0.00    +0.031 C 
ATOM      7  C   UNL     1       0.816   1.546 -21.491  0.00  0.00    -0.027 C 
ATOM      8  C   UNL     1       1.393   1.890 -22.616  0.00  0.00    -0.065 C 
ATOM      9  C   UNL     1       2.671   1.658 -22.798  0.00  0.00    +0.062 C 
ATOM     10  C   UNL     1       3.248   2.002 -23.923  0.00  0.00    +0.119 C 
ATOM     11  C   UNL     1       2.549   2.580 -24.872  0.00  0.00    +0.032 C 
ATOM     12  C   UNL     1       1.268   2.812 -24.689  0.00  0.00    +0.014 C 
ATOM     13  C   UNL     1       0.692   2.468 -23.564  0.00  0.00    -0.008 C 
ATOM     14  C   UNL     1      -0.010   3.046 -24.511  0.00  0.00    +0.016 C 
ATOM     15  C   UNL     1      -0.586   2.701 -23.384  0.00  0.00    +0.003 C 
ATOM     16  C   UNL     1      -1.289   3.279 -24.331  0.00  0.00    +0.005 C 
ATOM     17  C   UNL     1      -2.567   3.510 -24.149  0.00  0.00    +0.010 C 
ATOM     18  C   UNL     1      -3.144   3.166 -23.024  0.00  0.00    -0.000 C 
ATOM     19  C   UNL     1      -3.870   3.732 -23.930  0.00  0.00    +0.014 C 
ENDROOT
BRANCH   1  21
ATOM     20  C   UNL     1      -6.385   2.626 -21.716  0.00  0.00    +0.007 C 
ATOM     21  C   UNL     1      -5.662   3.494 -22.364  0.00  0.00    +0.032 C 
ENDBRANCH   1  21
BRANCH  10  22
ATOM     22  O   UNL     1       4.528   1.770 -24.104  0.00  0.00    -0.391 OA
ATOM     23  H   UNL     1       4.851   2.299 -24.850  0.00  0.00    +0.210 HD
ENDBRANCH  10  22
BRANCH   1  24
ATOM     24  O   UNL     1      -4.663   3.725 -23.465  0.00  0.00    -0.388 OA
ATOM     25  H   UNL     1      -4.385   4.654 -23.459  0.00  0.00    +0.210 HD
ENDBRANCH   1  24
TORSDOF 3
ENDMDL
