MODEL 1
REMARK VINA RESULT:   -11.025      0.000      0.000
REMARK INTER + INTRA:         -12.079
REMARK INTER:                 -11.962
REMARK INTRA:                  -0.117
REMARK UNBOUND:                -0.087
REMARK  Name = COc1ccc2c3c1O[C@@H]1[C@@H](O)C=C[C@H]4[C@@H](C2)N(C=O)CC[C@]314      ZINC000253503932
REMARK  3 active torsions:
REMARK  status: ('A' for Active; 'I' for Inactive)
REMARK    1  A    between atoms: C_1  and  O_2
REMARK    2  A    between atoms: O_2  and  C_3
REMARK    3  A    between atoms: C_11  and  O_12
REMARK                            x       y       z     vdW  Elec       q    Type
REMARK                         _______ _______ _______ _____ _____    ______ ____
ROOT
ATOM      1  C   UNL     1       0.884   2.647 -23.933  0.00  0.00    +0.162 A 
ATOM      2  C   UNL     1       1.025   2.176 -22.767  0.00  0.00    +0.050 A 
ATOM      3  C   UNL     1       0.040   2.067 -22.004  0.00  0.00    +0.008 A 
ATOM      4  C   UNL     1      -1.093   2.427 -22.397  0.00  0.00    -0.038 A 
ATOM      5  C   UNL     1      -1.256   2.898 -23.553  0.00  0.00    +0.012 A 
ATOM      6  C   UNL     1      -2.389   3.256 -23.939  0.00  0.00    +0.049 C 
ATOM      7  C   UNL     1      -3.628   3.696 -24.490  0.00  0.00    +0.035 C 
ATOM      8  C   UNL     1      -4.758   3.585 -23.653  0.00  0.00    +0.109 C 
ATOM      9  N   UNL     1      -4.563   3.056 -22.360  0.00  0.00    -0.300 N 
ATOM     10  C   UNL     1      -5.514   2.919 -21.542  0.00  0.00    +0.328 C 
ATOM     11  O   UNL     1      -6.680   3.255 -21.856  0.00  0.00    -0.279 OA
ATOM     12  C   UNL     1      -3.234   2.677 -22.014  0.00  0.00    +0.088 C 
ATOM     13  C   UNL     1      -3.377   3.148 -23.179  0.00  0.00    +0.046 C 
ATOM     14  C   UNL     1      -4.524   3.511 -23.571  0.00  0.00    -0.022 C 
ATOM     15  C   UNL     1      -4.668   3.977 -24.723  0.00  0.00    +0.004 C 
ATOM     16  C   UNL     1      -3.678   4.091 -25.500  0.00  0.00    +0.178 C 
ATOM     17  C   UNL     1      -2.545   3.731 -25.107  0.00  0.00    +0.217 C 
ATOM     18  O   UNL     1      -1.079   3.588 -25.445  0.00  0.00    -0.481 OA
ATOM     19  C   UNL     1      -2.101   2.318 -21.623  0.00  0.00    +0.058 C 
ATOM     20  C   UNL     1      -0.264   3.010 -24.326  0.00  0.00    +0.167 A 
ENDROOT
BRANCH   1  22
ATOM     21  C   UNL     1       2.730   1.844 -24.737  0.00  0.00    +0.277 C 
ATOM     22  O   UNL     1       1.872   2.754 -24.692  0.00  0.00    -0.491 OA
ENDBRANCH   1  22
BRANCH  16  23
ATOM     23  O   UNL     1      -3.829   4.557 -26.649  0.00  0.00    -0.384 OA
ATOM     24  H   UNL     1      -4.283   5.414 -26.594  0.00  0.00    +0.210 HD
ENDBRANCH  16  23
TORSDOF 2
ENDMDL
