MODEL 1
REMARK VINA RESULT:    -6.709      0.000      0.000
REMARK INTER + INTRA:          -8.919
REMARK INTER:                  -8.446
REMARK INTRA:                  -0.473
REMARK UNBOUND:                -0.445
REMARK  Name = ZINC000014817799
REMARK  8 active torsions:
REMARK  status: ('A' for Active; 'I' for Inactive)
REMARK    1  A    between atoms: C_1  and  C_2
REMARK    2  A    between atoms: C_3  and  C_4
REMARK    3  A    between atoms: C_4  and  C_6
REMARK    4  A    between atoms: C_7  and  O_8
REMARK    5  A    between atoms: C_10  and  O_11
REMARK    6  A    between atoms: O_11  and  C_12
REMARK    7  A    between atoms: C_14  and  O_15
REMARK    8  A    between atoms: O_15  and  C_16
REMARK                            x       y       z     vdW  Elec       q    Type
REMARK                         _______ _______ _______ _____ _____    ______ ____
ROOT
ATOM      1  C   UNL     1       0.604   3.558 -23.137  0.00  0.00    +0.105 A 
ATOM      2  C   UNL     1       0.856   4.819 -23.331  0.00  0.00    +0.135 A 
ATOM      3  C   UNL     1       2.086   5.240 -23.359  0.00  0.00    +0.092 A 
ATOM      4  C   UNL     1       3.064   4.400 -23.194  0.00  0.00    +0.127 A 
ATOM      5  C   UNL     1       2.813   3.139 -23.001  0.00  0.00    +0.092 A 
ATOM      6  C   UNL     1       1.583   2.718 -22.972  0.00  0.00    +0.138 A 
ENDROOT
BRANCH   1   7
ATOM      7  C   UNL     1      -0.625   3.138 -23.108  0.00  0.00    +0.193 C 
ATOM      8  O   UNL     1      -1.252   2.887 -24.219  0.00  0.00    -0.287 OA
BRANCH   7  11
ATOM      9  C   UNL     1      -2.879   3.509 -20.535  0.00  0.00    +0.035 C 
ATOM     10  C   UNL     1      -2.276   3.678 -21.674  0.00  0.00    -0.026 C 
ATOM     11  C   UNL     1      -1.228   2.967 -21.968  0.00  0.00    +0.047 C 
ENDBRANCH   7  11
ENDBRANCH   1   7
BRANCH   4  12
ATOM     12  O   UNL     1       4.293   4.820 -23.223  0.00  0.00    -0.495 OA
ATOM     13  C   UNL     1       5.274   3.967 -23.183  0.00  0.00    +0.277 C 
ENDBRANCH   4  12
BRANCH   2  14
ATOM     14  O   UNL     1      -0.123   5.659 -23.495  0.00  0.00    -0.506 OA
ATOM     15  H   UNL     1       0.055   6.546 -23.737  0.00  0.00    +0.292 HD
ENDBRANCH   2  14
BRANCH   6  16
ATOM     16  O   UNL     1       1.332   1.458 -22.778  0.00  0.00    -0.494 OA
ATOM     17  C   UNL     1       2.283   0.656 -22.402  0.00  0.00    +0.277 C 
ENDBRANCH   6  16
TORSDOF 5
ENDMDL
