MODEL 1
REMARK VINA RESULT:    -9.488      0.000      0.000
REMARK INTER + INTRA:         -10.320
REMARK INTER:                 -10.320
REMARK INTRA:                   0.000
REMARK UNBOUND:                 0.000
REMARK  Name = ZINC000004104722
REMARK  6 active torsions:
REMARK  status: ('A' for Active; 'I' for Inactive)
REMARK    1  A    between atoms: C_1  and  C_2
REMARK    2  A    between atoms: C_2  and  C_3
REMARK    3  A    between atoms: C_6  and  C_7
REMARK    4  A    between atoms: C_6  and  O_8
REMARK    5  A    between atoms: C_11  and  C_12
REMARK    6  A    between atoms: C_13  and  O_14
REMARK                            x       y       z     vdW  Elec       q    Type
REMARK                         _______ _______ _______ _____ _____    ______ ____
ROOT
ATOM      1  C   UNL     1      -0.268   1.881 -21.320  0.00  0.00    +0.011 C 
ATOM      2  C   UNL     1      -0.998   2.293 -22.313  0.00  0.00    -0.028 C 
ATOM      3  C   UNL     1      -2.032   2.727 -22.972  0.00  0.00    +0.005 C 
ATOM      4  C   UNL     1      -2.949   3.157 -23.787  0.00  0.00    +0.033 C 
ATOM      5  C   UNL     1      -2.745   3.352 -25.056  0.00  0.00    +0.067 C 
ATOM      6  C   UNL     1      -3.856   3.781 -25.578  0.00  0.00    +0.035 C 
ATOM      7  C   UNL     1      -4.745   3.850 -24.633  0.00  0.00    +0.012 C 
ATOM      8  C   UNL     1      -2.290   3.463 -26.268  0.00  0.00    +0.041 C 
ATOM      9  C   UNL     1      -4.184   3.465 -23.525  0.00  0.00    -0.000 C 
ATOM     10  C   UNL     1      -4.809   3.418 -22.386  0.00  0.00    +0.121 C 
ATOM     11  C   UNL     1      -4.351   3.052 -21.226  0.00  0.00    +0.032 C 
ATOM     12  C   UNL     1      -3.156   2.642 -20.919  0.00  0.00    +0.007 C 
ATOM     13  C   UNL     1      -5.434   3.822 -23.492  0.00  0.00    +0.014 C 
ATOM     14  C   UNL     1      -0.126   2.232 -23.275  0.00  0.00    +0.011 C 
ATOM     15  C   UNL     1      -2.124   2.498 -21.696  0.00  0.00    -0.001 C 
ENDROOT
BRANCH   5  16
ATOM     16  O   UNL     1      -1.540   2.947 -24.786  0.00  0.00    -0.389 OA
ATOM     17  H   UNL     1      -1.425   2.891 -23.824  0.00  0.00    +0.210 HD
ENDBRANCH   5  16
BRANCH  10  18
ATOM     18  O   UNL     1      -6.056   3.786 -22.410  0.00  0.00    -0.391 OA
ATOM     19  H   UNL     1      -6.612   3.027 -22.645  0.00  0.00    +0.210 HD
ENDBRANCH  10  18
TORSDOF 2
ENDMDL
