MODEL 1
REMARK VINA RESULT:    -9.597      0.000      0.000
REMARK INTER + INTRA:         -13.110
REMARK INTER:                 -12.207
REMARK INTRA:                  -0.902
REMARK UNBOUND:                -0.146
REMARK  Name = ZINC000012371281
REMARK  10 active torsions:
REMARK  status: ('A' for Active; 'I' for Inactive)
REMARK    1  A    between atoms: C_1  and  O_2
REMARK    2  A    between atoms: O_2  and  C_3
REMARK    3  A    between atoms: C_6  and  C_7
REMARK    4  A    between atoms: C_11  and  C_12
REMARK    5  A    between atoms: C_15  and  O_16
REMARK    6  A    between atoms: O_16  and  C_17
REMARK    7  A    between atoms: C_18  and  O_19
REMARK    8  A    between atoms: O_19  and  C_20
REMARK    9  A    between atoms: C_26  and  O_27
REMARK   10  A    between atoms: O_27  and  C_28
REMARK                            x       y       z     vdW  Elec       q    Type
REMARK                         _______ _______ _______ _____ _____    ______ ____
ROOT
ATOM      1  C   UNL     1       2.255   4.203 -23.286  0.00  0.00    +0.154 C 
ATOM      2  O   UNL     1       1.576   5.224 -23.719  0.00  0.00    -0.371 OA
ATOM      3  C   UNL     1       0.315   4.986 -23.513  0.00  0.00    +0.167 C 
ATOM      4  C   UNL     1       0.213   3.817 -22.953  0.00  0.00    +0.056 C 
ATOM      5  C   UNL     1      -0.629   2.947 -22.479  0.00  0.00    +0.154 C 
ATOM      6  O   UNL     1       0.050   1.927 -22.047  0.00  0.00    -0.371 OA
ATOM      7  C   UNL     1       1.310   2.165 -22.253  0.00  0.00    +0.167 C 
ATOM      8  C   UNL     1       1.412   3.334 -22.813  0.00  0.00    +0.056 C 
ENDROOT
BRANCH   5   9
ATOM      9  C   UNL     1      -1.922   3.076 -22.445  0.00  0.00    -0.015 A 
ATOM     10  C   UNL     1      -2.552   3.002 -21.310  0.00  0.00    +0.010 A 
ATOM     11  C   UNL     1      -3.846   3.131 -21.276  0.00  0.00    +0.050 A 
ATOM     12  C   UNL     1      -4.508   3.335 -22.376  0.00  0.00    +0.162 A 
ATOM     13  C   UNL     1      -3.877   3.409 -23.511  0.00  0.00    +0.162 A 
ATOM     14  C   UNL     1      -2.584   3.279 -23.545  0.00  0.00    +0.055 A 
BRANCH  13  15
ATOM     15  O   UNL     1      -4.539   3.612 -24.611  0.00  0.00    -0.491 OA
ATOM     16  C   UNL     1      -3.960   3.428 -25.761  0.00  0.00    +0.277 C 
ENDBRANCH  13  15
BRANCH  12  17
ATOM     17  O   UNL     1      -5.801   3.464 -22.342  0.00  0.00    -0.491 OA
ATOM     18  C   UNL     1      -6.522   2.612 -21.674  0.00  0.00    +0.277 C 
ENDBRANCH  12  17
ENDBRANCH   5   9
BRANCH   1  22
ATOM     19  C   UNL     1       6.133   3.816 -23.390  0.00  0.00    +0.162 A 
ATOM     20  C   UNL     1       5.372   2.841 -23.789  0.00  0.00    +0.050 A 
ATOM     21  C   UNL     1       4.078   2.970 -23.755  0.00  0.00    +0.010 A 
ATOM     22  C   UNL     1       3.547   4.074 -23.321  0.00  0.00    -0.015 A 
ATOM     23  C   UNL     1       4.309   5.049 -22.922  0.00  0.00    +0.055 A 
ATOM     24  C   UNL     1       5.602   4.921 -22.956  0.00  0.00    +0.162 A 
BRANCH  19  26
ATOM     25  C   UNL     1       8.030   3.489 -24.559  0.00  0.00    +0.277 C 
ATOM     26  O   UNL     1       7.427   3.687 -23.424  0.00  0.00    -0.491 OA
ENDBRANCH  19  26
BRANCH  24  27
ATOM     27  O   UNL     1       6.363   5.896 -22.556  0.00  0.00    -0.491 OA
ATOM     28  C   UNL     1       5.888   6.804 -21.755  0.00  0.00    +0.277 C 
ENDBRANCH  24  27
ENDBRANCH   1  22
TORSDOF 6
ENDMDL
