MODEL 1
REMARK VINA RESULT:    -9.370      0.000      0.000
REMARK INTER + INTRA:         -10.629
REMARK INTER:                 -10.504
REMARK INTRA:                  -0.124
REMARK UNBOUND:                 0.111
REMARK  Name = ZINC000018825330
REMARK  4 active torsions:
REMARK  status: ('A' for Active; 'I' for Inactive)
REMARK    1  A    between atoms: C_3  and  C_4
REMARK    2  A    between atoms: C_7  and  O_8
REMARK    3  A    between atoms: C_15  and  O_16
REMARK    4  A    between atoms: C_18  and  O_19
REMARK                            x       y       z     vdW  Elec       q    Type
REMARK                         _______ _______ _______ _____ _____    ______ ____
ROOT
ATOM      1  O   UNL     1      -0.474   4.973 -23.119  0.00  0.00    -0.286 OA
ATOM      2  C   UNL     1      -0.022   3.760 -22.982  0.00  0.00    +0.204 A 
ATOM      3  C   UNL     1      -0.841   2.789 -22.703  0.00  0.00    +0.064 A 
ATOM      4  C   UNL     1      -0.390   1.578 -22.566  0.00  0.00    +0.208 A 
ATOM      5  O   UNL     1       0.881   1.338 -22.707  0.00  0.00    -0.462 OA
ATOM      6  C   UNL     1       1.699   2.309 -22.985  0.00  0.00    +0.145 A 
ATOM      7  C   UNL     1       2.968   2.068 -23.126  0.00  0.00    +0.092 A 
ATOM      8  C   UNL     1       3.787   3.040 -23.404  0.00  0.00    +0.124 A 
ATOM      9  C   UNL     1       3.336   4.251 -23.541  0.00  0.00    +0.091 A 
ATOM     10  C   UNL     1       2.065   4.491 -23.400  0.00  0.00    +0.135 A 
ATOM     11  C   UNL     1       1.247   3.520 -23.122  0.00  0.00    +0.106 A 
ENDROOT
BRANCH   3  12
ATOM     12  C   UNL     1      -2.111   3.030 -22.563  0.00  0.00    -0.011 A 
ATOM     13  C   UNL     1      -2.863   3.182 -23.612  0.00  0.00    +0.012 A 
ATOM     14  C   UNL     1      -4.133   3.423 -23.473  0.00  0.00    +0.046 A 
ATOM     15  C   UNL     1      -4.651   3.513 -22.284  0.00  0.00    +0.117 A 
ATOM     16  C   UNL     1      -3.898   3.361 -21.234  0.00  0.00    +0.046 A 
ATOM     17  C   UNL     1      -2.628   3.120 -21.374  0.00  0.00    +0.012 A 
BRANCH  15  18
ATOM     18  O   UNL     1      -5.920   3.754 -22.144  0.00  0.00    -0.507 OA
ATOM     19  H   UNL     1      -6.496   3.076 -21.852  0.00  0.00    +0.292 HD
ENDBRANCH  15  18
ENDBRANCH   3  12
BRANCH  10  20
ATOM     20  O   UNL     1       1.614   5.703 -23.538  0.00  0.00    -0.506 OA
ATOM     21  H   UNL     1       2.127   6.346 -23.985  0.00  0.00    +0.292 HD
ENDBRANCH  10  20
BRANCH   8  22
ATOM     22  O   UNL     1       5.057   2.799 -23.545  0.00  0.00    -0.507 OA
ATOM     23  H   UNL     1       5.682   3.481 -23.396  0.00  0.00    +0.292 HD
ENDBRANCH   8  22
TORSDOF 4
ENDMDL
