MODEL 1
REMARK VINA RESULT:   -10.087      0.000      0.000
REMARK INTER + INTRA:         -10.087
REMARK INTER:                 -10.087
REMARK INTRA:                   0.000
REMARK UNBOUND:                 0.000
REMARK  Name = ZINC000003897049
REMARK  1 active torsions:
REMARK  status: ('A' for Active; 'I' for Inactive)
REMARK    1  A    between atoms: C_8  and  C_9
REMARK                            x       y       z     vdW  Elec       q    Type
REMARK                         _______ _______ _______ _____ _____    ______ ____
ROOT
ATOM      1  C   UNL     1       0.467   1.497 -21.061  0.00  0.00    +0.020 C 
ATOM      2  C   UNL     1       0.125   2.021 -22.200  0.00  0.00    +0.036 C 
ATOM      3  C   UNL     1       0.915   2.241 -23.208  0.00  0.00    +0.335 C 
ATOM      4  O   UNL     1       0.211   2.772 -24.163  0.00  0.00    -0.457 OA
ATOM      5  C   UNL     1      -1.015   2.880 -23.744  0.00  0.00    +0.185 C 
ATOM      6  C   UNL     1      -2.090   3.342 -24.311  0.00  0.00    +0.052 C 
ATOM      7  C   UNL     1      -3.219   3.340 -23.666  0.00  0.00    -0.022 C 
ATOM      8  C   UNL     1      -4.293   3.801 -24.233  0.00  0.00    +0.007 C 
ATOM      9  C   UNL     1      -5.421   3.798 -23.587  0.00  0.00    +0.005 C 
ATOM     10  C   UNL     1      -5.474   3.334 -22.374  0.00  0.00    +0.030 C 
ATOM     11  C   UNL     1      -4.400   2.872 -21.806  0.00  0.00    -0.073 C 
ATOM     12  C   UNL     1      -4.453   2.408 -20.593  0.00  0.00    +0.008 C 
ATOM     13  C   UNL     1      -3.165   3.804 -24.879  0.00  0.00    +0.012 C 
ATOM     14  C   UNL     1      -3.271   2.875 -22.452  0.00  0.00    +0.021 C 
ATOM     15  C   UNL     1      -2.196   2.413 -21.885  0.00  0.00    +0.020 C 
ATOM     16  O   UNL     1       2.187   1.976 -23.254  0.00  0.00    -0.245 OA
ATOM     17  C   UNL     1      -1.069   2.416 -22.531  0.00  0.00    +0.067 C 
ENDROOT
TORSDOF 0
ENDMDL
