MODEL 1
REMARK VINA RESULT:   -10.326      0.000      0.000
REMARK INTER + INTRA:         -10.326
REMARK INTER:                 -10.326
REMARK INTRA:                   0.000
REMARK UNBOUND:                 0.000
REMARK  Name = C[C@@H]1CC[C@@H]2[C@@H](C)C(=O)O[C@@H]3O[C@]4(C)CC[C@H]1[C@]32OO4    ZINC000100065755
REMARK  3 active torsions:
REMARK  status: ('A' for Active; 'I' for Inactive)
REMARK    1  A    between atoms: C_1  and  C_2
REMARK    2  A    between atoms: C_6  and  C_7
REMARK    3  A    between atoms: C_13  and  C_14
REMARK                            x       y       z     vdW  Elec       q    Type
REMARK                         _______ _______ _______ _____ _____    ______ ____
ROOT
ATOM      1  C   UNL     1      -5.725   3.390 -22.119  0.00  0.00    +0.008 C 
ATOM      2  C   UNL     1      -4.460   3.052 -22.105  0.00  0.00    -0.008 C 
ATOM      3  C   UNL     1      -3.889   2.698 -20.980  0.00  0.00    +0.004 C 
ATOM      4  C   UNL     1      -2.608   2.355 -20.966  0.00  0.00    +0.008 C 
ATOM      5  C   UNL     1      -1.913   2.371 -22.076  0.00  0.00    +0.044 C 
ATOM      6  C   UNL     1      -0.647   2.032 -22.062  0.00  0.00    +0.101 C 
ATOM      7  C   UNL     1       0.062   2.044 -23.172  0.00  0.00    +0.313 C 
ATOM      8  O   UNL     1      -0.523   2.404 -24.312  0.00  0.00    -0.432 OA
ATOM      9  C   UNL     1      -1.788   2.742 -24.327  0.00  0.00    +0.349 C 
ATOM     10  O   UNL     1      -2.059   3.039 -25.573  0.00  0.00    -0.305 OA
ATOM     11  C   UNL     1      -3.220   3.437 -26.075  0.00  0.00    +0.204 C 
ATOM     12  C   UNL     1      -4.351   3.623 -25.442  0.00  0.00    +0.068 C 
ATOM     13  C   UNL     1      -4.609   3.460 -24.153  0.00  0.00    +0.012 C 
ATOM     14  C   UNL     1      -3.237   3.676 -27.379  0.00  0.00    +0.077 C 
ATOM     15  O   UNL     1      -3.681   3.365 -24.994  0.00  0.00    -0.199 OA
ATOM     16  O   UNL     1      -3.404   3.090 -23.872  0.00  0.00    -0.218 OA
ATOM     17  O   UNL     1       1.334   1.703 -23.153  0.00  0.00    -0.250 OA
ATOM     18  C   UNL     1      -0.083   1.680 -20.933  0.00  0.00    +0.019 C 
ATOM     19  C   UNL     1      -2.484   2.725 -23.201  0.00  0.00    +0.173 C 
ATOM     20  C   UNL     1      -3.765   3.067 -23.215  0.00  0.00    +0.034 C 
ENDROOT
TORSDOF 0
ENDMDL
