MODEL 1
REMARK VINA RESULT:   -10.348      0.000      0.000
REMARK INTER + INTRA:         -10.650
REMARK INTER:                 -10.650
REMARK INTRA:                   0.000
REMARK UNBOUND:                 0.000
REMARK  Name = ZINC000071325820
REMARK  4 active torsions:
REMARK  status: ('A' for Active; 'I' for Inactive)
REMARK    1  A    between atoms: C_1  and  C_2
REMARK    2  A    between atoms: C_6  and  C_7
REMARK    3  A    between atoms: C_6  and  O_8
REMARK    4  A    between atoms: C_14  and  C_15
REMARK                            x       y       z     vdW  Elec       q    Type
REMARK                         _______ _______ _______ _____ _____    ______ ____
ROOT
ATOM      1  C   UNL     1      -5.762   3.387 -22.130  0.00  0.00    +0.039 C 
ATOM      2  C   UNL     1      -4.519   3.121 -22.401  0.00  0.00    -0.073 C 
ATOM      3  C   UNL     1      -4.164   3.284 -23.641  0.00  0.00    -0.061 C 
ATOM      4  C   UNL     1      -4.977   3.685 -24.572  0.00  0.00    +0.034 C 
ATOM      5  C   UNL     1      -4.314   3.743 -25.688  0.00  0.00    +0.039 C 
ATOM      6  C   UNL     1      -3.090   3.376 -25.447  0.00  0.00    +0.073 C 
ATOM      7  C   UNL     1      -2.919   3.593 -26.718  0.00  0.00    +0.042 C 
ATOM      8  C   UNL     1      -2.997   3.092 -24.182  0.00  0.00    +0.087 C 
ATOM      9  C   UNL     1      -1.897   2.692 -23.616  0.00  0.00    +0.190 C 
ATOM     10  O   UNL     1      -0.778   2.534 -24.259  0.00  0.00    -0.460 OA
ATOM     11  C   UNL     1       0.118   2.127 -23.409  0.00  0.00    +0.311 C 
ATOM     12  C   UNL     1      -0.447   2.034 -22.242  0.00  0.00    +0.101 C 
ATOM     13  C   UNL     1       0.132   1.658 -21.141  0.00  0.00    +0.019 C 
ATOM     14  O   UNL     1       1.362   1.861 -23.679  0.00  0.00    -0.251 OA
ATOM     15  C   UNL     1      -1.693   2.383 -22.370  0.00  0.00    +0.044 C 
ATOM     16  C   UNL     1      -2.537   2.399 -21.382  0.00  0.00    +0.012 C 
ATOM     17  C   UNL     1      -3.794   2.727 -21.395  0.00  0.00    +0.031 C 
ENDROOT
BRANCH   6  18
ATOM     18  O   UNL     1      -1.830   3.055 -25.472  0.00  0.00    -0.388 OA
ATOM     19  H   UNL     1      -1.524   2.879 -24.569  0.00  0.00    +0.210 HD
ENDBRANCH   6  18
TORSDOF 1
ENDMDL
