MODEL 1
REMARK VINA RESULT:   -10.975      0.000      0.000
REMARK INTER + INTRA:         -11.617
REMARK INTER:                 -11.617
REMARK INTRA:                   0.000
REMARK UNBOUND:                 0.000
REMARK  Name = ZINC000004521752
REMARK  3 active torsions:
REMARK  status: ('A' for Active; 'I' for Inactive)
REMARK    1  A    between atoms: C_1  and  C_2
REMARK    2  A    between atoms: C_9  and  O_10
REMARK    3  A    between atoms: C_19  and  O_20
REMARK                            x       y       z     vdW  Elec       q    Type
REMARK                         _______ _______ _______ _____ _____    ______ ____
ROOT
ATOM      1  C   UNL     1      -4.537   3.821 -23.911  0.00  0.00    +0.014 C 
ATOM      2  C   UNL     1      -3.688   3.277 -23.091  0.00  0.00    -0.003 C 
ATOM      3  C   UNL     1      -3.178   3.598 -24.243  0.00  0.00    +0.010 C 
ATOM      4  C   UNL     1      -1.923   3.367 -24.486  0.00  0.00    +0.009 C 
ATOM      5  C   UNL     1      -1.176   2.814 -23.576  0.00  0.00    +0.023 C 
ATOM      6  C   UNL     1       0.080   2.582 -23.818  0.00  0.00    -0.041 A 
ATOM      7  C   UNL     1       0.589   2.903 -24.970  0.00  0.00    +0.008 A 
ATOM      8  C   UNL     1       1.845   2.672 -25.213  0.00  0.00    +0.046 A 
ATOM      9  C   UNL     1       2.593   2.119 -24.303  0.00  0.00    +0.117 A 
ATOM     10  C   UNL     1       2.082   1.798 -23.151  0.00  0.00    +0.049 A 
ATOM     11  C   UNL     1       0.826   2.030 -22.909  0.00  0.00    -0.040 A 
ATOM     12  C   UNL     1       0.316   1.709 -21.756  0.00  0.00    +0.036 C 
ATOM     13  C   UNL     1      -0.940   1.940 -21.514  0.00  0.00    +0.009 C 
ATOM     14  C   UNL     1      -1.686   2.493 -22.423  0.00  0.00    +0.000 C 
ATOM     15  C   UNL     1      -4.888   3.399 -22.606  0.00  0.00    +0.121 C 
ATOM     16  C   UNL     1      -4.884   2.922 -21.397  0.00  0.00    +0.032 C 
ATOM     17  C   UNL     1      -3.680   2.505 -21.134  0.00  0.00    +0.007 C 
ATOM     18  C   UNL     1      -2.942   2.725 -22.181  0.00  0.00    +0.001 C 
ENDROOT
BRANCH   9  19
ATOM     19  O   UNL     1       3.848   1.887 -24.546  0.00  0.00    -0.507 OA
ATOM     20  H   UNL     1       4.277   2.326 -25.253  0.00  0.00    +0.292 HD
ENDBRANCH   9  19
BRANCH  15  21
ATOM     21  O   UNL     1      -5.913   3.909 -23.222  0.00  0.00    -0.391 OA
ATOM     22  H   UNL     1      -5.853   3.709 -24.170  0.00  0.00    +0.210 HD
ENDBRANCH  15  21
TORSDOF 2
ENDMDL
