MODEL 1
REMARK VINA RESULT:    -7.974      0.000      0.000
REMARK INTER + INTRA:         -10.810
REMARK INTER:                  -9.856
REMARK INTRA:                  -0.955
REMARK UNBOUND:                -0.738
REMARK  Name = ZINC000000487423
REMARK  6 active torsions:
REMARK  status: ('A' for Active; 'I' for Inactive)
REMARK    1  A    between atoms: C_2  and  C_3
REMARK    2  A    between atoms: C_2  and  C_11
REMARK    3  A    between atoms: C_3  and  C_4
REMARK    4  A    between atoms: C_7  and  O_8
REMARK    5  A    between atoms: C_14  and  O_15
REMARK    6  A    between atoms: C_17  and  O_18
REMARK                            x       y       z     vdW  Elec       q    Type
REMARK                         _______ _______ _______ _____ _____    ______ ____
ROOT
ATOM      1  O   UNL     1      -1.398   3.022 -25.474  0.00  0.00    -0.292 OA
ATOM      2  C   UNL     1      -1.081   3.766 -24.457  0.00  0.00    +0.171 C 
ENDROOT
BRANCH   2   3
ATOM      3  C   UNL     1       0.104   3.675 -23.929  0.00  0.00    +0.059 A 
ATOM      4  C   UNL     1       0.899   4.704 -23.934  0.00  0.00    +0.018 A 
ATOM      5  C   UNL     1       2.084   4.612 -23.406  0.00  0.00    +0.046 A 
ATOM      6  C   UNL     1       2.473   3.492 -22.873  0.00  0.00    +0.120 A 
ATOM      7  C   UNL     1       1.678   2.464 -22.868  0.00  0.00    +0.091 A 
ATOM      8  C   UNL     1       0.494   2.555 -23.396  0.00  0.00    +0.131 A 
BRANCH   6   9
ATOM      9  O   UNL     1       3.657   3.401 -22.345  0.00  0.00    -0.507 OA
ATOM     10  H   UNL     1       4.041   2.560 -22.198  0.00  0.00    +0.292 HD
ENDBRANCH   6   9
BRANCH   8  11
ATOM     11  O   UNL     1      -0.301   1.526 -23.391  0.00  0.00    -0.506 OA
ATOM     12  H   UNL     1      -1.064   1.521 -23.935  0.00  0.00    +0.292 HD
ENDBRANCH   8  11
ENDBRANCH   2   3
BRANCH   2  13
ATOM     13  C   UNL     1      -1.947   4.602 -23.968  0.00  0.00    +0.114 C 
BRANCH  13  14
ATOM     14  C   UNL     1      -3.035   4.159 -23.411  0.00  0.00    -0.040 A 
ATOM     15  C   UNL     1      -3.001   3.690 -22.199  0.00  0.00    +0.007 A 
ATOM     16  C   UNL     1      -4.089   3.246 -21.643  0.00  0.00    +0.045 A 
ATOM     17  C   UNL     1      -5.212   3.271 -22.298  0.00  0.00    +0.117 A 
ATOM     18  C   UNL     1      -5.245   3.740 -23.510  0.00  0.00    +0.045 A 
ATOM     19  C   UNL     1      -4.158   4.184 -24.067  0.00  0.00    +0.007 A 
BRANCH  17  20
ATOM     20  O   UNL     1      -6.299   2.828 -21.742  0.00  0.00    -0.507 OA
ATOM     21  H   UNL     1      -6.610   3.213 -20.946  0.00  0.00    +0.292 HD
ENDBRANCH  17  20
ENDBRANCH  13  14
ENDBRANCH   2  13
TORSDOF 6
ENDMDL
