MODEL 1
REMARK VINA RESULT:    -6.631      0.000      0.000
REMARK INTER + INTRA:          -8.957
REMARK INTER:                  -8.423
REMARK INTRA:                  -0.534
REMARK UNBOUND:                -0.388
REMARK  Name = ZINC000000899863
REMARK  7 active torsions:
REMARK  status: ('A' for Active; 'I' for Inactive)
REMARK    1  A    between atoms: C_1  and  C_2
REMARK    2  A    between atoms: C_2  and  O_3
REMARK    3  A    between atoms: O_3  and  C_4
REMARK    4  A    between atoms: C_4  and  C_6
REMARK    5  A    between atoms: C_7  and  C_8
REMARK    6  A    between atoms: C_11  and  O_12
REMARK    7  A    between atoms: O_12  and  C_13
REMARK                            x       y       z     vdW  Elec       q    Type
REMARK                         _______ _______ _______ _____ _____    ______ ____
ROOT
ATOM      1  C   UNL     1      -1.445   2.667 -22.349  0.00  0.00    -0.025 A 
ATOM      2  C   UNL     1      -1.828   2.910 -21.131  0.00  0.00    +0.011 A 
ATOM      3  C   UNL     1      -3.052   3.276 -20.895  0.00  0.00    +0.046 A 
ATOM      4  C   UNL     1      -3.894   3.399 -21.878  0.00  0.00    +0.120 A 
ATOM      5  C   UNL     1      -3.512   3.156 -23.096  0.00  0.00    +0.046 A 
ATOM      6  C   UNL     1      -2.287   2.790 -23.332  0.00  0.00    +0.011 A 
ENDROOT
BRANCH   1   8
ATOM      7  C   UNL     1       0.385   1.491 -21.768  0.00  0.00    +0.092 C 
ATOM      8  C   UNL     1      -0.220   2.301 -22.585  0.00  0.00    +0.015 C 
BRANCH   7   9
ATOM      9  C   UNL     1       1.610   1.125 -22.004  0.00  0.00    +0.332 C 
ATOM     10  O   UNL     1       2.440   0.960 -21.017  0.00  0.00    -0.246 OA
BRANCH   9  11
ATOM     11  O   UNL     1       2.005   0.924 -23.226  0.00  0.00    -0.462 OA
BRANCH  11  13
ATOM     12  C   UNL     1       3.639   2.186 -24.125  0.00  0.00    +0.048 C 
ATOM     13  C   UNL     1       3.255   1.090 -23.541  0.00  0.00    +0.229 C 
ENDBRANCH  11  13
ENDBRANCH   9  11
ENDBRANCH   7   9
ENDBRANCH   1   8
BRANCH   4  14
ATOM     14  O   UNL     1      -5.120   3.765 -21.642  0.00  0.00    -0.495 OA
ATOM     15  C   UNL     1      -6.109   3.020 -22.037  0.00  0.00    +0.277 C 
ENDBRANCH   4  14
TORSDOF 5
ENDMDL
