MODEL 1
REMARK VINA RESULT:   -11.359      0.000      0.000
REMARK INTER + INTRA:         -12.023
REMARK INTER:                 -12.023
REMARK INTRA:                   0.000
REMARK UNBOUND:                 0.000
REMARK  Name = ZINC000003902440
REMARK  3 active torsions:
REMARK  status: ('A' for Active; 'I' for Inactive)
REMARK    1  A    between atoms: C_1  and  C_2
REMARK    2  A    between atoms: C_9  and  O_10
REMARK    3  A    between atoms: C_20  and  O_21
REMARK                            x       y       z     vdW  Elec       q    Type
REMARK                         _______ _______ _______ _____ _____    ______ ____
ROOT
ATOM      1  C   UNL     1      -4.514   3.837 -23.858  0.00  0.00    +0.014 C 
ATOM      2  C   UNL     1      -3.668   3.264 -23.053  0.00  0.00    -0.003 C 
ATOM      3  C   UNL     1      -3.157   3.610 -24.198  0.00  0.00    +0.010 C 
ATOM      4  C   UNL     1      -1.903   3.374 -24.447  0.00  0.00    +0.009 C 
ATOM      5  C   UNL     1      -1.161   2.791 -23.553  0.00  0.00    +0.023 C 
ATOM      6  C   UNL     1       0.093   2.555 -23.803  0.00  0.00    -0.040 A 
ATOM      7  C   UNL     1       0.603   2.901 -24.947  0.00  0.00    +0.008 A 
ATOM      8  C   UNL     1       1.858   2.664 -25.197  0.00  0.00    +0.047 A 
ATOM      9  C   UNL     1       2.599   2.082 -24.302  0.00  0.00    +0.131 A 
ATOM     10  C   UNL     1       2.088   1.736 -23.159  0.00  0.00    +0.063 A 
ATOM     11 BR   UNL     1       2.831   1.153 -22.264  0.00  0.00    -0.046 Br
ATOM     12  C   UNL     1       0.835   1.972 -22.908  0.00  0.00    -0.026 A 
ATOM     13  C   UNL     1       0.323   1.626 -21.764  0.00  0.00    +0.037 C 
ATOM     14  C   UNL     1      -0.930   1.863 -21.515  0.00  0.00    +0.009 C 
ATOM     15  C   UNL     1      -1.673   2.445 -22.409  0.00  0.00    +0.000 C 
ATOM     16  C   UNL     1      -4.867   3.384 -22.564  0.00  0.00    +0.121 C 
ATOM     17  C   UNL     1      -4.865   2.876 -21.367  0.00  0.00    +0.032 C 
ATOM     18  C   UNL     1      -3.666   2.442 -21.118  0.00  0.00    +0.007 C 
ATOM     19  C   UNL     1      -2.926   2.682 -22.159  0.00  0.00    +0.001 C 
ENDROOT
BRANCH   9  20
ATOM     20  O   UNL     1       3.854   1.845 -24.552  0.00  0.00    -0.506 OA
ATOM     21  H   UNL     1       4.251   1.054 -24.246  0.00  0.00    +0.292 HD
ENDBRANCH   9  20
BRANCH  16  22
ATOM     22  O   UNL     1      -5.887   3.919 -23.166  0.00  0.00    -0.391 OA
ATOM     23  H   UNL     1      -6.023   4.821 -22.835  0.00  0.00    +0.210 HD
ENDBRANCH  16  22
TORSDOF 2
ENDMDL
