MODEL 1
REMARK VINA RESULT:   -11.686      0.000      0.000
REMARK INTER + INTRA:         -12.711
REMARK INTER:                 -12.711
REMARK INTRA:                   0.000
REMARK UNBOUND:                 0.000
REMARK  Name = C[C@@]12CCC[C@H]1[C@@H]1CC(=O)[C@@]3(O)C[C@@H](O)CC[C@]3(C)[C@H]1CC2 ZINC000118913924
REMARK  4 active torsions:
REMARK  status: ('A' for Active; 'I' for Inactive)
REMARK    1  A    between atoms: C_1  and  C_2
REMARK    2  A    between atoms: C_11  and  O_12
REMARK    3  A    between atoms: C_14  and  O_15
REMARK    4  A    between atoms: C_18  and  C_19
REMARK                            x       y       z     vdW  Elec       q    Type
REMARK                         _______ _______ _______ _____ _____    ______ ____
ROOT
ATOM      1  C   UNL     1      -5.140   4.123 -24.151  0.00  0.00    +0.011 C 
ATOM      2  C   UNL     1      -4.340   3.533 -23.314  0.00  0.00    -0.029 C 
ATOM      3  C   UNL     1      -5.574   3.594 -22.912  0.00  0.00    +0.007 C 
ATOM      4  C   UNL     1      -5.644   3.023 -21.746  0.00  0.00    +0.001 C 
ATOM      5  C   UNL     1      -4.454   2.610 -21.428  0.00  0.00    +0.004 C 
ATOM      6  C   UNL     1      -3.756   3.952 -24.397  0.00  0.00    +0.007 C 
ATOM      7  C   UNL     1      -2.481   3.764 -24.564  0.00  0.00    +0.005 C 
ATOM      8  C   UNL     1      -1.789   3.156 -23.647  0.00  0.00    +0.002 C 
ATOM      9  C   UNL     1      -0.513   2.967 -23.814  0.00  0.00    +0.007 C 
ATOM     10  C   UNL     1      -1.205   3.575 -24.731  0.00  0.00    +0.015 C 
ATOM     11  C   UNL     1       0.070   3.387 -24.897  0.00  0.00    +0.012 C 
ATOM     12  C   UNL     1       1.345   3.198 -25.063  0.00  0.00    +0.032 C 
ATOM     13  C   UNL     1       2.038   2.590 -24.146  0.00  0.00    +0.118 C 
ATOM     14  C   UNL     1       1.455   2.171 -23.063  0.00  0.00    +0.074 C 
ATOM     15  C   UNL     1       0.179   2.359 -22.896  0.00  0.00    +0.131 C 
ATOM     16  C   UNL     1      -0.404   1.940 -21.813  0.00  0.00    +0.165 C 
ATOM     17  O   UNL     1       0.288   1.331 -20.896  0.00  0.00    -0.294 OA
ATOM     18  C   UNL     1      -1.680   2.128 -21.647  0.00  0.00    +0.081 C 
ATOM     19  C   UNL     1      -2.372   2.736 -22.564  0.00  0.00    +0.004 C 
ATOM     20  C   UNL     1      -3.648   2.925 -22.397  0.00  0.00    -0.001 C 
ENDROOT
BRANCH  13  21
ATOM     21  O   UNL     1       3.313   2.402 -24.312  0.00  0.00    -0.392 OA
ATOM     22  H   UNL     1       3.489   2.177 -25.240  0.00  0.00    +0.210 HD
ENDBRANCH  13  21
BRANCH  15  23
ATOM     23  O   UNL     1       0.871   1.751 -21.979  0.00  0.00    -0.380 OA
ATOM     24  H   UNL     1       1.547   1.197 -22.399  0.00  0.00    +0.211 HD
ENDBRANCH  15  23
TORSDOF 2
ENDMDL
