MODEL 1
REMARK VINA RESULT:    -7.959      0.000      0.000
REMARK INTER + INTRA:          -7.959
REMARK INTER:                  -7.959
REMARK INTRA:                   0.000
REMARK UNBOUND:                 0.000
REMARK  Name = ZINC000004104922
REMARK  1 active torsions:
REMARK  status: ('A' for Active; 'I' for Inactive)
REMARK    1  A    between atoms: C_1  and  C_2
REMARK                            x       y       z     vdW  Elec       q    Type
REMARK                         _______ _______ _______ _____ _____    ______ ____
ROOT
ATOM      1  C   UNL     1      -4.114   4.021 -25.197  0.00  0.00    +0.066 C 
ATOM      2  C   UNL     1      -4.263   3.636 -23.964  0.00  0.00    +0.040 C 
ATOM      3  N   UNL     1      -5.418   3.754 -23.381  0.00  0.00    -0.288 NA
ATOM      4  C   UNL     1      -5.567   3.369 -22.148  0.00  0.00    +0.146 C 
ATOM      5  C   UNL     1      -4.560   2.866 -21.499  0.00  0.00    +0.059 C 
ATOM      6  C   UNL     1      -3.404   2.748 -22.082  0.00  0.00    -0.033 A 
ATOM      7  C   UNL     1      -2.396   2.246 -21.432  0.00  0.00    +0.054 A 
ATOM      8  C   UNL     1      -1.240   2.128 -22.015  0.00  0.00    +0.167 A 
ATOM      9  C   UNL     1      -1.092   2.513 -23.248  0.00  0.00    +0.167 A 
ATOM     10  O   UNL     1       0.142   2.291 -23.591  0.00  0.00    -0.453 OA
ATOM     11  C   UNL     1       0.756   1.769 -22.571  0.00  0.00    +0.466 C 
ATOM     12  C   UNL     1      -2.099   3.015 -23.897  0.00  0.00    +0.059 A 
ATOM     13  O   UNL     1      -0.098   1.668 -21.597  0.00  0.00    -0.453 OA
ATOM     14  C   UNL     1      -3.255   3.133 -23.314  0.00  0.00    +0.002 A 
ENDROOT
TORSDOF 0
ENDMDL
