MODEL 1
REMARK VINA RESULT:   -11.392      0.000      0.000
REMARK INTER + INTRA:         -12.661
REMARK INTER:                 -12.775
REMARK INTRA:                   0.114
REMARK UNBOUND:                 0.062
REMARK  Name = CC[C@]1(O)CC[C@@H]2[C@@H]3CC(=O)C4=CC(=O)CC[C@]4(C)[C@H]3CC[C@@]21C  ZINC000253505652
REMARK  5 active torsions:
REMARK  status: ('A' for Active; 'I' for Inactive)
REMARK    1  A    between atoms: C_1  and  C_2
REMARK    2  A    between atoms: C_2  and  C_3
REMARK    3  A    between atoms: C_3  and  O_4
REMARK    4  A    between atoms: C_18  and  C_19
REMARK    5  A    between atoms: C_23  and  C_24
REMARK                            x       y       z     vdW  Elec       q    Type
REMARK                         _______ _______ _______ _____ _____    ______ ____
ROOT
ATOM      1  C   UNL     1      -4.682   3.266 -22.523  0.00  0.00    +0.071 C 
ATOM      2  C   UNL     1      -4.659   2.744 -21.322  0.00  0.00    +0.035 C 
ATOM      3  C   UNL     1      -3.429   2.361 -21.072  0.00  0.00    +0.007 C 
ATOM      4  C   UNL     1      -2.693   2.645 -22.116  0.00  0.00    +0.002 C 
ATOM      5  C   UNL     1      -1.421   2.466 -22.366  0.00  0.00    +0.004 C 
ATOM      6  C   UNL     1      -0.650   1.905 -21.462  0.00  0.00    +0.083 C 
ATOM      7  C   UNL     1       0.625   1.725 -21.710  0.00  0.00    +0.160 C 
ATOM      8  C   UNL     1       1.130   2.105 -22.856  0.00  0.00    +0.004 C 
ATOM      9  C   UNL     1       2.406   1.925 -23.105  0.00  0.00    +0.053 C 
ATOM     10  C   UNL     1       2.911   2.305 -24.252  0.00  0.00    +0.157 C 
ATOM     11  C   UNL     1       2.143   2.867 -25.157  0.00  0.00    +0.080 C 
ATOM     12  C   UNL     1       0.867   3.045 -24.907  0.00  0.00    +0.019 C 
ATOM     13  O   UNL     1       4.188   2.125 -24.499  0.00  0.00    -0.293 OA
ATOM     14  C   UNL     1       0.361   2.666 -23.760  0.00  0.00    -0.000 C 
ATOM     15  C   UNL     1      -0.408   3.227 -24.662  0.00  0.00    +0.016 C 
ATOM     16  O   UNL     1       1.394   1.164 -20.807  0.00  0.00    -0.292 OA
ATOM     17  C   UNL     1      -0.914   2.846 -23.514  0.00  0.00    +0.003 C 
ATOM     18  C   UNL     1      -1.685   3.407 -24.416  0.00  0.00    +0.005 C 
ATOM     19  C   UNL     1      -2.960   3.586 -24.167  0.00  0.00    +0.010 C 
ATOM     20  C   UNL     1      -3.464   3.206 -23.020  0.00  0.00    -0.000 C 
ATOM     21  C   UNL     1      -4.258   3.754 -23.880  0.00  0.00    +0.014 C 
ENDROOT
BRANCH   1  23
ATOM     22  C   UNL     1      -6.636   2.486 -21.644  0.00  0.00    +0.007 C 
ATOM     23  C   UNL     1      -5.957   3.427 -22.233  0.00  0.00    +0.032 C 
ENDBRANCH   1  23
BRANCH   1  24
ATOM     24  O   UNL     1      -5.024   3.710 -23.377  0.00  0.00    -0.388 OA
ATOM     25  H   UNL     1      -4.456   4.464 -23.600  0.00  0.00    +0.210 HD
ENDBRANCH   1  24
TORSDOF 2
ENDMDL
