MODEL 1
REMARK VINA RESULT:   -11.453      0.000      0.000
REMARK INTER + INTRA:          -9.267
REMARK INTER:                 -12.944
REMARK INTRA:                   3.677
REMARK UNBOUND:                 4.194
REMARK  Name = COc1ccc2c3c1OC1=C[C@H](C(C)(C)O)C=C4[C@@H](C2)N(C)CC[C@]143          ZINC000096316429
REMARK  7 active torsions:
REMARK  status: ('A' for Active; 'I' for Inactive)
REMARK    1  A    between atoms: C_1  and  O_2
REMARK    2  A    between atoms: O_2  and  C_3
REMARK    3  A    between atoms: C_12  and  C_13
REMARK    4  A    between atoms: C_13  and  C_14
REMARK    5  A    between atoms: C_13  and  C_15
REMARK    6  A    between atoms: C_13  and  O_16
REMARK    7  A    between atoms: N_21  and  C_22
REMARK                            x       y       z     vdW  Elec       q    Type
REMARK                         _______ _______ _______ _____ _____    ______ ____
ROOT
ATOM      1  C   UNL     1      -4.546   3.415 -22.441  0.00  0.00    +0.162 A 
ATOM      2  C   UNL     1      -4.790   3.916 -23.579  0.00  0.00    +0.050 A 
ATOM      3  C   UNL     1      -3.889   3.993 -24.448  0.00  0.00    +0.008 A 
ATOM      4  C   UNL     1      -2.735   3.568 -24.186  0.00  0.00    -0.034 A 
ATOM      5  C   UNL     1      -2.470   3.065 -23.059  0.00  0.00    +0.020 A 
ATOM      6  C   UNL     1      -1.318   2.644 -22.805  0.00  0.00    +0.088 C 
ATOM      7  C   UNL     1      -0.046   2.132 -22.399  0.00  0.00    +0.075 C 
ATOM      8  C   UNL     1       0.992   2.204 -23.358  0.00  0.00    +0.133 C 
ATOM      9  N   UNL     1       0.683   2.770 -24.617  0.00  0.00    +0.239 N 
ATOM     10  H   UNL     1       1.394   2.846 -25.344  0.00  0.00    +0.204 HD
ATOM     11  C   UNL     1       1.545   2.871 -25.522  0.00  0.00    +0.191 C 
ATOM     12  C   UNL     1      -0.660   3.221 -24.810  0.00  0.00    +0.096 C 
ATOM     13  C   UNL     1      -0.412   2.719 -23.672  0.00  0.00    -0.007 C 
ATOM     14  C   UNL     1       0.752   2.292 -23.410  0.00  0.00    -0.011 C 
ATOM     15  C   UNL     1       1.002   1.793 -22.285  0.00  0.00    +0.069 C 
ATOM     16  C   UNL     1       0.093   1.715 -21.405  0.00  0.00    +0.026 C 
ATOM     17  C   UNL     1      -1.060   2.136 -21.660  0.00  0.00    +0.117 C 
ATOM     18  O   UNL     1      -2.473   2.346 -21.166  0.00  0.00    -0.455 OA
ATOM     19  C   UNL     1      -1.812   3.644 -25.068  0.00  0.00    +0.094 C 
ATOM     20  C   UNL     1      -3.379   2.987 -22.181  0.00  0.00    +0.174 A 
ENDROOT
BRANCH  15  21
ATOM     21  C   UNL     1       2.158   1.371 -22.030  0.00  0.00    +0.070 C 
ATOM     22  C   UNL     1       2.960   2.086 -21.381  0.00  0.00    +0.042 C 
ATOM     23  C   UNL     1       3.029   0.470 -22.111  0.00  0.00    +0.042 C 
BRANCH  21  24
ATOM     24  O   UNL     1       1.902   0.301 -22.633  0.00  0.00    -0.388 OA
ATOM     25  H   UNL     1       2.091  -0.451 -22.051  0.00  0.00    +0.210 HD
ENDBRANCH  21  24
ENDBRANCH  15  21
BRANCH   1  27
ATOM     26  C   UNL     1      -6.473   2.645 -21.792  0.00  0.00    +0.277 C 
ATOM     27  O   UNL     1      -5.452   3.341 -21.575  0.00  0.00    -0.491 OA
ENDBRANCH   1  27
TORSDOF 3
ENDMDL
