MODEL 1
REMARK VINA RESULT:   -11.798      0.000      0.000
REMARK INTER + INTRA:         -12.142
REMARK INTER:                 -12.142
REMARK INTRA:                   0.000
REMARK UNBOUND:                 0.000
REMARK  Name = ZINC000006482817
REMARK  3 active torsions:
REMARK  status: ('A' for Active; 'I' for Inactive)
REMARK    1  A    between atoms: C_1  and  C_2
REMARK    2  A    between atoms: C_15  and  C_16
REMARK    3  A    between atoms: C_20  and  O_21
REMARK                            x       y       z     vdW  Elec       q    Type
REMARK                         _______ _______ _______ _____ _____    ______ ____
ROOT
ATOM      1  C   UNL     1      -4.907   3.107 -21.931  0.00  0.00    +0.014 C 
ATOM      2  C   UNL     1      -3.985   3.291 -22.828  0.00  0.00    -0.003 C 
ATOM      3  C   UNL     1      -3.559   2.719 -21.742  0.00  0.00    +0.010 C 
ATOM      4  C   UNL     1      -2.306   2.387 -21.631  0.00  0.00    +0.005 C 
ATOM      5  C   UNL     1      -1.481   2.628 -22.606  0.00  0.00    +0.002 C 
ATOM      6  C   UNL     1      -1.908   3.200 -23.692  0.00  0.00    -0.003 C 
ATOM      7  C   UNL     1      -1.083   3.441 -24.668  0.00  0.00    +0.008 C 
ATOM      8  C   UNL     1       0.170   3.109 -24.556  0.00  0.00    +0.032 C 
ATOM      9  C   UNL     1       0.596   2.537 -23.470  0.00  0.00    -0.060 C 
ATOM     10  C   UNL     1       1.848   2.205 -23.359  0.00  0.00    +0.046 C 
ATOM     11  C   UNL     1       2.275   1.633 -22.273  0.00  0.00    +0.156 C 
ATOM     12  C   UNL     1       1.450   1.392 -21.297  0.00  0.00    +0.080 C 
ATOM     13  C   UNL     1       0.198   1.724 -21.408  0.00  0.00    +0.019 C 
ATOM     14  O   UNL     1       3.527   1.301 -22.161  0.00  0.00    -0.293 OA
ATOM     15  C   UNL     1      -0.229   2.296 -22.495  0.00  0.00    -0.007 C 
ATOM     16  C   UNL     1      -1.054   2.056 -21.520  0.00  0.00    +0.016 C 
ATOM     17  C   UNL     1      -5.162   3.714 -23.185  0.00  0.00    +0.121 C 
ATOM     18  C   UNL     1      -5.064   4.215 -24.380  0.00  0.00    +0.032 C 
ATOM     19  C   UNL     1      -3.827   4.103 -24.763  0.00  0.00    +0.007 C 
ATOM     20  C   UNL     1      -3.160   3.532 -23.804  0.00  0.00    +0.001 C 
ENDROOT
BRANCH  17  21
ATOM     21  O   UNL     1      -6.247   3.646 -22.471  0.00  0.00    -0.391 OA
ATOM     22  H   UNL     1      -6.577   4.541 -22.300  0.00  0.00    +0.210 HD
ENDBRANCH  17  21
TORSDOF 1
ENDMDL
