MODEL 1
REMARK VINA RESULT:    -8.426      0.000      0.000
REMARK INTER + INTRA:         -10.787
REMARK INTER:                 -10.429
REMARK INTRA:                  -0.358
REMARK UNBOUND:                -0.145
REMARK  Name = ZINC000000113310
REMARK  8 active torsions:
REMARK  status: ('A' for Active; 'I' for Inactive)
REMARK    1  A    between atoms: C_1  and  O_2
REMARK    2  A    between atoms: O_2  and  C_3
REMARK    3  A    between atoms: C_12  and  O_13
REMARK    4  A    between atoms: C_14  and  O_15
REMARK    5  A    between atoms: O_15  and  C_16
REMARK    6  A    between atoms: C_16  and  C_17
REMARK    7  A    between atoms: C_18  and  C_19
REMARK    8  A    between atoms: C_18  and  C_20
REMARK                            x       y       z     vdW  Elec       q    Type
REMARK                         _______ _______ _______ _____ _____    ______ ____
ROOT
ATOM      1  C   UNL     1      -0.225   2.150 -22.221  0.00  0.00    +0.166 A 
ATOM      2  C   UNL     1      -1.243   2.331 -21.434  0.00  0.00    +0.061 A 
ATOM      3  C   UNL     1      -2.385   2.711 -21.925  0.00  0.00    +0.025 A 
ATOM      4  C   UNL     1      -3.404   2.892 -21.138  0.00  0.00    +0.019 A 
ATOM      5  C   UNL     1      -4.545   3.272 -21.629  0.00  0.00    +0.092 A 
ATOM      6  C   UNL     1      -4.669   3.471 -22.908  0.00  0.00    +0.337 A 
ATOM      7  O   UNL     1      -3.650   3.290 -23.695  0.00  0.00    -0.418 OA
ATOM      8  O   UNL     1      -5.811   3.851 -23.399  0.00  0.00    -0.245 OA
ATOM      9  C   UNL     1      -2.508   2.910 -23.204  0.00  0.00    +0.184 A 
ATOM     10  C   UNL     1      -1.490   2.729 -23.991  0.00  0.00    +0.206 A 
ATOM     11  C   UNL     1      -0.349   2.349 -23.500  0.00  0.00    +0.208 A 
ENDROOT
BRANCH   1  13
ATOM     12  C   UNL     1       1.033   1.541 -20.456  0.00  0.00    +0.277 C 
ATOM     13  O   UNL     1       0.918   1.770 -21.730  0.00  0.00    -0.491 OA
ENDBRANCH   1  13
BRANCH  10  14
ATOM     14  O   UNL     1      -1.614   2.928 -25.270  0.00  0.00    -0.501 OA
ATOM     15  H   UNL     1      -2.037   3.703 -25.585  0.00  0.00    +0.292 HD
ENDBRANCH  10  14
BRANCH  11  16
ATOM     16  O   UNL     1       0.670   2.168 -24.288  0.00  0.00    -0.481 OA
BRANCH  16  17
ATOM     17  C   UNL     1       1.386   3.184 -24.668  0.00  0.00    +0.257 C 
BRANCH  17  18
ATOM     18  C   UNL     1       2.608   3.313 -24.244  0.00  0.00    +0.012 C 
ATOM     19  C   UNL     1       2.942   4.345 -23.526  0.00  0.00    -0.076 C 
ATOM     20  C   UNL     1       2.054   5.247 -23.234  0.00  0.00    +0.038 C 
ATOM     21  C   UNL     1       4.164   4.473 -23.102  0.00  0.00    +0.038 C 
ENDBRANCH  17  18
ENDBRANCH  16  17
ENDBRANCH  11  16
TORSDOF 5
ENDMDL
