MODEL 1
REMARK VINA RESULT:    -9.000      0.000      0.000
REMARK INTER + INTRA:         -10.216
REMARK INTER:                 -10.022
REMARK INTRA:                  -0.194
REMARK UNBOUND:                -0.163
REMARK  Name = ZINC000005497781
REMARK  4 active torsions:
REMARK  status: ('A' for Active; 'I' for Inactive)
REMARK    1  A    between atoms: C_1  and  O_2
REMARK    2  A    between atoms: O_2  and  C_3
REMARK    3  A    between atoms: C_3  and  C_5
REMARK    4  A    between atoms: C_16  and  C_17
REMARK                            x       y       z     vdW  Elec       q    Type
REMARK                         _______ _______ _______ _____ _____    ______ ____
ROOT
ATOM      1  C   UNL     1       0.416   2.021 -22.137  0.00  0.00    +0.218 C 
ATOM      2  C   UNL     1      -0.816   2.054 -21.717  0.00  0.00    +0.076 C 
ATOM      3  C   UNL     1      -1.732   2.631 -22.432  0.00  0.00    -0.011 A 
ATOM      4  C   UNL     1      -1.424   3.177 -23.569  0.00  0.00    +0.064 A 
ATOM      5  C   UNL     1      -0.192   3.147 -23.992  0.00  0.00    +0.057 C 
ATOM      6  C   UNL     1       0.117   3.694 -25.129  0.00  0.00    +0.067 C 
ATOM      7  N   UNL     1      -2.507   3.682 -24.083  0.00  0.00    -0.353 N 
ATOM      8  H   UNL     1      -2.573   4.158 -24.942  0.00  0.00    +0.166 HD
ATOM      9  C   UNL     1      -3.486   3.446 -23.263  0.00  0.00    +0.047 A 
ATOM     10  C   UNL     1      -4.752   3.738 -23.312  0.00  0.00    +0.026 A 
ATOM     11  C   UNL     1      -5.540   3.382 -22.343  0.00  0.00    +0.002 A 
ATOM     12  C   UNL     1      -5.062   2.732 -21.322  0.00  0.00    +0.001 A 
ATOM     13  C   UNL     1      -3.797   2.440 -21.271  0.00  0.00    +0.010 A 
ATOM     14  C   UNL     1      -3.009   2.796 -22.242  0.00  0.00    +0.004 A 
ATOM     15  N   UNL     1       0.724   2.569 -23.275  0.00  0.00    -0.272 NA
ENDROOT
BRANCH   1  16
ATOM     16  C   UNL     1       1.333   1.444 -21.422  0.00  0.00    +0.332 C 
ATOM     17  O   UNL     1       1.213   1.393 -20.128  0.00  0.00    -0.248 OA
BRANCH  16  19
ATOM     18  C   UNL     1       3.438   0.652 -21.302  0.00  0.00    +0.280 C 
ATOM     19  O   UNL     1       2.371   0.916 -21.999  0.00  0.00    -0.466 OA
ENDBRANCH  16  19
ENDBRANCH   1  16
TORSDOF 2
ENDMDL
