MODEL 1
REMARK VINA RESULT:   -10.630      0.000      0.000
REMARK INTER + INTRA:         -10.940
REMARK INTER:                 -10.940
REMARK INTRA:                   0.000
REMARK UNBOUND:                 0.000
REMARK  Name = C=C1C(=O)O[C@@H]2C=C(C)[C@@H](O)CC=C(C)CC[C@@H]12                    ZINC001081701743
REMARK  3 active torsions:
REMARK  status: ('A' for Active; 'I' for Inactive)
REMARK    1  A    between atoms: C_8  and  C_9
REMARK    2  A    between atoms: C_10  and  O_11
REMARK    3  A    between atoms: C_14  and  C_15
REMARK                            x       y       z     vdW  Elec       q    Type
REMARK                         _______ _______ _______ _____ _____    ______ ____
ROOT
ATOM      1  C   UNL     1       0.550   1.506 -21.132  0.00  0.00    +0.020 C 
ATOM      2  C   UNL     1      -0.183   1.945 -22.112  0.00  0.00    +0.036 C 
ATOM      3  C   UNL     1       0.209   2.118 -23.339  0.00  0.00    +0.336 C 
ATOM      4  O   UNL     1      -0.803   2.568 -24.022  0.00  0.00    -0.453 OA
ATOM      5  C   UNL     1      -1.818   2.673 -23.217  0.00  0.00    +0.207 C 
ATOM      6  C   UNL     1      -3.041   3.069 -23.406  0.00  0.00    +0.019 C 
ATOM      7  C   UNL     1      -3.424   3.455 -24.587  0.00  0.00    -0.045 C 
ATOM      8  C   UNL     1      -4.646   3.851 -24.779  0.00  0.00    +0.144 C 
ATOM      9  C   UNL     1      -5.488   3.863 -23.787  0.00  0.00    +0.063 C 
ATOM     10  C   UNL     1      -5.106   3.478 -22.606  0.00  0.00    -0.025 C 
ATOM     11  C   UNL     1      -3.883   3.081 -22.417  0.00  0.00    -0.076 C 
ATOM     12  C   UNL     1      -3.500   2.696 -21.235  0.00  0.00    +0.031 C 
ATOM     13  C   UNL     1      -2.275   2.300 -21.046  0.00  0.00    +0.016 C 
ATOM     14  C   UNL     1      -4.723   3.092 -21.424  0.00  0.00    +0.039 C 
ATOM     15  C   UNL     1      -2.581   3.443 -25.579  0.00  0.00    +0.041 C 
ATOM     16  O   UNL     1       1.399   1.883 -23.802  0.00  0.00    -0.245 OA
ATOM     17  C   UNL     1      -1.435   2.288 -22.036  0.00  0.00    +0.070 C 
ENDROOT
BRANCH   8  18
ATOM     18  O   UNL     1      -5.029   4.236 -25.960  0.00  0.00    -0.387 OA
ATOM     19  H   UNL     1      -5.788   3.704 -26.244  0.00  0.00    +0.210 HD
ENDBRANCH   8  18
TORSDOF 1
ENDMDL
