MODEL 1
REMARK VINA RESULT:   -11.286      0.000      0.000
REMARK INTER + INTRA:         -12.042
REMARK INTER:                 -11.892
REMARK INTRA:                  -0.150
REMARK UNBOUND:                -0.096
REMARK  Name = COc1ccc2c3c1O[C@@]1(C)C(=O)C=C[C@@H]4[C@@H](C2)N(C)CC[C@]341         ZINC000100393555
REMARK  4 active torsions:
REMARK  status: ('A' for Active; 'I' for Inactive)
REMARK    1  A    between atoms: C_1  and  O_2
REMARK    2  A    between atoms: O_2  and  C_3
REMARK    3  A    between atoms: C_10  and  C_11
REMARK    4  A    between atoms: N_19  and  C_20
REMARK                            x       y       z     vdW  Elec       q    Type
REMARK                         _______ _______ _______ _____ _____    ______ ____
ROOT
ATOM      1  C   UNL     1       0.764   2.241 -23.223  0.00  0.00    +0.162 A 
ATOM      2  C   UNL     1       0.721   1.907 -22.004  0.00  0.00    +0.050 A 
ATOM      3  C   UNL     1      -0.358   1.949 -21.370  0.00  0.00    +0.008 A 
ATOM      4  C   UNL     1      -1.406   2.326 -21.947  0.00  0.00    -0.034 A 
ATOM      5  C   UNL     1      -1.384   2.663 -23.161  0.00  0.00    +0.013 A 
ATOM      6  C   UNL     1      -2.430   3.039 -23.733  0.00  0.00    +0.062 C 
ATOM      7  C   UNL     1      -3.555   3.482 -24.488  0.00  0.00    +0.067 C 
ATOM      8  C   UNL     1      -4.786   3.540 -23.800  0.00  0.00    +0.132 C 
ATOM      9  N   UNL     1      -4.794   3.159 -22.443  0.00  0.00    +0.236 N 
ATOM     10  H   UNL     1      -5.655   3.181 -21.896  0.00  0.00    +0.203 HD
ATOM     11  C   UNL     1      -5.843   3.182 -21.761  0.00  0.00    +0.190 C 
ATOM     12  C   UNL     1      -3.549   2.747 -21.882  0.00  0.00    +0.076 C 
ATOM     13  C   UNL     1      -3.511   3.082 -23.102  0.00  0.00    +0.076 C 
ATOM     14  C   UNL     1      -4.567   3.462 -23.682  0.00  0.00    -0.013 C 
ATOM     15  C   UNL     1      -4.536   3.796 -24.889  0.00  0.00    +0.046 C 
ATOM     16  C   UNL     1      -3.449   3.755 -25.533  0.00  0.00    +0.200 C 
ATOM     17  O   UNL     1      -3.420   4.089 -26.739  0.00  0.00    -0.288 OA
ATOM     18  C   UNL     1      -2.401   3.379 -24.961  0.00  0.00    +0.180 C 
ATOM     19  C   UNL     1      -2.084   3.647 -26.142  0.00  0.00    +0.065 C 
ATOM     20  O   UNL     1      -0.921   3.109 -25.078  0.00  0.00    -0.473 OA
ATOM     21  C   UNL     1      -2.505   2.370 -21.306  0.00  0.00    +0.090 C 
ATOM     22  C   UNL     1      -0.297   2.622 -23.803  0.00  0.00    +0.167 A 
ENDROOT
BRANCH   1  24
ATOM     23  C   UNL     1       2.578   3.209 -23.912  0.00  0.00    +0.277 C 
ATOM     24  O   UNL     1       1.844   2.197 -23.852  0.00  0.00    -0.491 OA
ENDBRANCH   1  24
TORSDOF 1
ENDMDL
