MODEL 1
REMARK VINA RESULT:   -10.086      0.000      0.000
REMARK INTER + INTRA:         -10.086
REMARK INTER:                 -10.086
REMARK INTRA:                   0.000
REMARK UNBOUND:                 0.000
REMARK  Name = ZINC000004832999
REMARK  2 active torsions:
REMARK  status: ('A' for Active; 'I' for Inactive)
REMARK    1  A    between atoms: C_8  and  C_9
REMARK    2  A    between atoms: C_13  and  C_14
REMARK                            x       y       z     vdW  Elec       q    Type
REMARK                         _______ _______ _______ _____ _____    ______ ____
ROOT
ATOM      1  C   UNL     1       0.474   1.503 -21.122  0.00  0.00    +0.020 C 
ATOM      2  C   UNL     1       0.130   2.034 -22.257  0.00  0.00    +0.040 C 
ATOM      3  C   UNL     1       0.917   2.254 -23.267  0.00  0.00    +0.336 C 
ATOM      4  O   UNL     1       0.212   2.794 -24.216  0.00  0.00    -0.457 OA
ATOM      5  C   UNL     1      -1.012   2.906 -23.792  0.00  0.00    +0.189 C 
ATOM      6  C   UNL     1      -2.087   3.376 -24.353  0.00  0.00    +0.056 C 
ATOM      7  C   UNL     1      -3.213   3.377 -23.703  0.00  0.00    -0.007 C 
ATOM      8  C   UNL     1      -4.287   3.846 -24.263  0.00  0.00    +0.011 C 
ATOM      9  C   UNL     1      -5.412   3.846 -23.612  0.00  0.00    +0.001 C 
ATOM     10  C   UNL     1      -5.463   3.376 -22.401  0.00  0.00    +0.007 C 
ATOM     11  C   UNL     1      -4.388   2.906 -21.840  0.00  0.00    +0.012 C 
ATOM     12  C   UNL     1      -4.439   2.437 -20.629  0.00  0.00    +0.012 C 
ATOM     13  C   UNL     1      -3.162   3.846 -24.914  0.00  0.00    +0.016 C 
ATOM     14  C   UNL     1      -3.262   2.906 -22.491  0.00  0.00    -0.064 C 
ATOM     15  C   UNL     1      -2.188   2.437 -21.930  0.00  0.00    -0.015 C 
ATOM     16  O   UNL     1       2.188   1.983 -23.320  0.00  0.00    -0.245 OA
ATOM     17  C   UNL     1      -1.063   2.437 -22.581  0.00  0.00    +0.089 C 
ENDROOT
TORSDOF 0
ENDMDL
