MODEL 1
REMARK VINA RESULT:    -9.358      0.000      0.000
REMARK INTER + INTRA:         -16.654
REMARK INTER:                 -14.002
REMARK INTRA:                  -2.652
REMARK UNBOUND:                -0.731
REMARK  Name = ZINC000085340896
REMARK  14 active torsions:
REMARK  status: ('A' for Active; 'I' for Inactive)
REMARK    1  A    between atoms: C_1  and  C_2
REMARK    2  A    between atoms: C_2  and  C_3
REMARK    3  A    between atoms: C_3  and  C_4
REMARK    4  A    between atoms: C_4  and  C_5
REMARK    5  A    between atoms: C_5  and  C_6
REMARK    6  A    between atoms: C_6  and  C_7
REMARK    7  A    between atoms: C_7  and  C_8
REMARK    8  A    between atoms: C_8  and  C_9
REMARK    9  A    between atoms: C_9  and  C_10
REMARK   10  A    between atoms: C_10  and  C_11
REMARK   11  A    between atoms: C_11  and  C_12
REMARK   12  A    between atoms: C_13  and  O_14
REMARK   13  A    between atoms: C_15  and  O_16
REMARK   14  A    between atoms: C_22  and  C_23
REMARK                            x       y       z     vdW  Elec       q    Type
REMARK                         _______ _______ _______ _____ _____    ______ ____
ROOT
ATOM      1  C   UNL     1       2.984   3.369 -24.125  0.00  0.00    +0.025 A 
ATOM      2  C   UNL     1       3.883   4.140 -23.592  0.00  0.00    +0.164 A 
ATOM      3  C   UNL     1       3.534   5.257 -23.024  0.00  0.00    +0.161 A 
ATOM      4  C   UNL     1       2.279   5.601 -22.990  0.00  0.00    +0.079 A 
ATOM      5  C   UNL     1       1.379   4.831 -23.522  0.00  0.00    +0.094 A 
ATOM      6  N   UNL     1       0.126   5.176 -23.488  0.00  0.00    -0.243 NA
ATOM      7  C   UNL     1      -0.776   4.407 -24.020  0.00  0.00    +0.090 A 
ATOM      8  C   UNL     1      -2.028   4.753 -23.985  0.00  0.00    +0.039 A 
ATOM      9  C   UNL     1      -2.931   3.984 -24.517  0.00  0.00    -0.001 A 
ATOM     10  C   UNL     1      -2.580   2.868 -25.085  0.00  0.00    +0.012 A 
ATOM     11  C   UNL     1      -1.328   2.521 -25.120  0.00  0.00    +0.030 A 
ATOM     12  C   UNL     1      -0.425   3.292 -24.587  0.00  0.00    +0.090 A 
ATOM     13  N   UNL     1       0.828   2.945 -24.623  0.00  0.00    -0.243 NA
ATOM     14  C   UNL     1       1.729   3.715 -24.090  0.00  0.00    +0.097 A 
ENDROOT
BRANCH   9  15
ATOM     15  C   UNL     1      -4.183   4.330 -24.482  0.00  0.00    +0.072 C 
ATOM     16  O   UNL     1      -4.943   3.921 -23.510  0.00  0.00    -0.545 OA
ATOM     17  O   UNL     1      -4.675   5.085 -25.419  0.00  0.00    -0.545 OA
ENDBRANCH   9  15
BRANCH   2  18
ATOM     18  O   UNL     1       5.137   3.795 -23.626  0.00  0.00    -0.503 OA
ATOM     19  H   UNL     1       5.384   2.908 -23.452  0.00  0.00    +0.292 HD
ENDBRANCH   2  18
BRANCH   3  20
ATOM     20  O   UNL     1       4.434   6.026 -22.491  0.00  0.00    -0.503 OA
ATOM     21  H   UNL     1       4.856   6.682 -23.011  0.00  0.00    +0.292 HD
ENDBRANCH   3  20
BRANCH   1  22
ATOM     22  C   UNL     1       3.333   2.254 -24.692  0.00  0.00    +0.041 C 
BRANCH  22  23
ATOM     23  C   UNL     1       3.077   1.119 -24.112  0.00  0.00    +0.005 C 
BRANCH  23  24
ATOM     24  C   UNL     1       3.542   0.876 -22.922  0.00  0.00    +0.000 C 
BRANCH  24  25
ATOM     25  C   UNL     1       2.730   0.554 -21.960  0.00  0.00    +0.000 C 
BRANCH  25  26
ATOM     26  C   UNL     1       2.332   1.459 -21.114  0.00  0.00    +0.000 C 
BRANCH  26  27
ATOM     27  C   UNL     1       1.080   1.808 -21.076  0.00  0.00    +0.000 C 
BRANCH  27  28
ATOM     28  C   UNL     1       0.194   1.121 -21.734  0.00  0.00    -0.000 C 
BRANCH  28  29
ATOM     29  C   UNL     1      -1.072   1.375 -21.578  0.00  0.00    -0.000 C 
BRANCH  29  30
ATOM     30  C   UNL     1      -1.451   2.529 -21.118  0.00  0.00    -0.000 C 
BRANCH  30  32
ATOM     31  C   UNL     1      -3.096   3.915 -20.452  0.00  0.00    +0.004 C 
ATOM     32  C   UNL     1      -2.717   2.794 -20.990  0.00  0.00    -0.003 C 
ENDBRANCH  30  32
ENDBRANCH  29  30
ENDBRANCH  28  29
ENDBRANCH  27  28
ENDBRANCH  26  27
ENDBRANCH  25  26
ENDBRANCH  24  25
ENDBRANCH  23  24
ENDBRANCH  22  23
ENDBRANCH   1  22
TORSDOF 13
ENDMDL
