MODEL 1
REMARK VINA RESULT:   -12.112      0.000      0.000
REMARK INTER + INTRA:         -12.466
REMARK INTER:                 -12.466
REMARK INTRA:                   0.000
REMARK UNBOUND:                 0.000
REMARK  Name = C[C@]12CC[C@@H]3[C@H](CC(=O)[C@H]4CC(=O)CC[C@@]43C)[C@H]1CC[C@@H]2O  ZINC000247661703
REMARK  3 active torsions:
REMARK  status: ('A' for Active; 'I' for Inactive)
REMARK    1  A    between atoms: C_1  and  C_2
REMARK    2  A    between atoms: C_16  and  C_17
REMARK    3  A    between atoms: C_21  and  O_22
REMARK                            x       y       z     vdW  Elec       q    Type
REMARK                         _______ _______ _______ _____ _____    ______ ____
ROOT
ATOM      1  C   UNL     1      -4.931   3.136 -21.939  0.00  0.00    +0.014 C 
ATOM      2  C   UNL     1      -4.005   3.331 -22.830  0.00  0.00    -0.003 C 
ATOM      3  C   UNL     1      -3.583   2.752 -21.746  0.00  0.00    +0.010 C 
ATOM      4  C   UNL     1      -2.329   2.424 -21.630  0.00  0.00    +0.005 C 
ATOM      5  C   UNL     1      -1.500   2.676 -22.599  0.00  0.00    -0.001 C 
ATOM      6  C   UNL     1      -1.923   3.254 -23.683  0.00  0.00    +0.003 C 
ATOM      7  C   UNL     1      -1.093   3.506 -24.652  0.00  0.00    +0.078 C 
ATOM      8  C   UNL     1       0.159   3.178 -24.537  0.00  0.00    +0.138 C 
ATOM      9  C   UNL     1       0.583   2.599 -23.452  0.00  0.00    +0.068 C 
ATOM     10  C   UNL     1       1.835   2.272 -23.336  0.00  0.00    +0.086 C 
ATOM     11  C   UNL     1       2.258   1.693 -22.252  0.00  0.00    +0.134 C 
ATOM     12  C   UNL     1       1.428   1.442 -21.283  0.00  0.00    +0.075 C 
ATOM     13  C   UNL     1       0.176   1.769 -21.398  0.00  0.00    +0.015 C 
ATOM     14  O   UNL     1       3.511   1.365 -22.136  0.00  0.00    -0.297 OA
ATOM     15  O   UNL     1       0.989   3.429 -25.505  0.00  0.00    -0.297 OA
ATOM     16  C   UNL     1      -0.248   2.348 -22.483  0.00  0.00    -0.019 C 
ATOM     17  C   UNL     1      -1.077   2.097 -21.514  0.00  0.00    +0.012 C 
ATOM     18  C   UNL     1      -5.182   3.751 -23.190  0.00  0.00    +0.121 C 
ATOM     19  C   UNL     1      -5.079   4.262 -24.381  0.00  0.00    +0.032 C 
ATOM     20  C   UNL     1      -3.840   4.157 -24.757  0.00  0.00    +0.007 C 
ATOM     21  C   UNL     1      -3.176   3.582 -23.799  0.00  0.00    +0.001 C 
ENDROOT
BRANCH  18  22
ATOM     22  O   UNL     1      -6.271   3.674 -22.483  0.00  0.00    -0.391 OA
ATOM     23  H   UNL     1      -7.020   3.994 -23.009  0.00  0.00    +0.210 HD
ENDBRANCH  18  22
TORSDOF 1
ENDMDL
