MODEL 1
REMARK VINA RESULT:    -9.556      0.000      0.000
REMARK INTER + INTRA:         -16.112
REMARK INTER:                 -13.646
REMARK INTRA:                  -2.467
REMARK UNBOUND:                -0.690
REMARK  Name = ZINC000085340995
REMARK  13 active torsions:
REMARK  status: ('A' for Active; 'I' for Inactive)
REMARK    1  A    between atoms: C_1  and  C_2
REMARK    2  A    between atoms: C_2  and  C_3
REMARK    3  A    between atoms: C_3  and  C_4
REMARK    4  A    between atoms: C_4  and  C_5
REMARK    5  A    between atoms: C_5  and  C_6
REMARK    6  A    between atoms: C_6  and  C_7
REMARK    7  A    between atoms: C_7  and  C_8
REMARK    8  A    between atoms: C_8  and  C_9
REMARK    9  A    between atoms: C_9  and  C_10
REMARK   10  A    between atoms: C_10  and  C_11
REMARK   11  A    between atoms: C_11  and  C_12
REMARK   12  A    between atoms: C_18  and  C_19
REMARK   13  A    between atoms: C_25  and  O_26
REMARK                            x       y       z     vdW  Elec       q    Type
REMARK                         _______ _______ _______ _____ _____    ______ ____
ROOT
ATOM      1  C   UNL     1       2.772   3.262 -23.997  0.00  0.00    +0.047 A 
ATOM      2  C   UNL     1       1.538   3.679 -24.046  0.00  0.00    +0.161 A 
ATOM      3  O   UNL     1       0.612   2.911 -24.536  0.00  0.00    -0.451 OA
ATOM      4  C   UNL     1      -0.618   3.330 -24.584  0.00  0.00    +0.154 A 
ATOM      5  C   UNL     1      -1.547   2.562 -25.076  0.00  0.00    +0.049 A 
ATOM      6  C   UNL     1      -2.777   2.981 -25.123  0.00  0.00    +0.007 A 
ATOM      7  C   UNL     1      -3.080   4.165 -24.681  0.00  0.00    -0.048 A 
ATOM      8  C   UNL     1      -2.150   4.931 -24.190  0.00  0.00    +0.034 A 
ATOM      9  C   UNL     1      -4.309   4.582 -24.729  0.00  0.00    +0.044 C 
ATOM     10  C   UNL     1      -0.921   4.514 -24.142  0.00  0.00    +0.107 A 
ATOM     11  N   UNL     1       0.007   5.280 -23.652  0.00  0.00    -0.240 NA
ATOM     12  C   UNL     1       1.236   4.864 -23.603  0.00  0.00    +0.111 A 
ATOM     13  C   UNL     1       2.163   5.631 -23.113  0.00  0.00    +0.080 A 
ATOM     14  C   UNL     1       3.395   5.215 -23.063  0.00  0.00    +0.166 A 
ATOM     15  C   UNL     1       3.696   4.030 -23.506  0.00  0.00    +0.227 A 
ATOM     16  O   UNL     1       4.928   3.614 -23.457  0.00  0.00    -0.284 OA
ENDROOT
BRANCH  14  17
ATOM     17  O   UNL     1       4.320   5.982 -22.573  0.00  0.00    -0.503 OA
ATOM     18  H   UNL     1       4.228   6.914 -22.615  0.00  0.00    +0.292 HD
ENDBRANCH  14  17
BRANCH   1  19
ATOM     19  C   UNL     1       3.073   2.078 -24.439  0.00  0.00    +0.043 C 
BRANCH  19  20
ATOM     20  C   UNL     1       3.404   1.136 -23.606  0.00  0.00    +0.005 C 
BRANCH  20  21
ATOM     21  C   UNL     1       2.502   0.599 -22.838  0.00  0.00    +0.000 C 
BRANCH  21  22
ATOM     22  C   UNL     1       2.491   0.866 -21.565  0.00  0.00    +0.000 C 
BRANCH  22  23
ATOM     23  C   UNL     1       1.501   1.534 -21.051  0.00  0.00    +0.000 C 
BRANCH  23  24
ATOM     24  C   UNL     1       0.299   1.384 -21.524  0.00  0.00    +0.000 C 
BRANCH  24  25
ATOM     25  C   UNL     1      -0.625   2.251 -21.237  0.00  0.00    -0.000 C 
BRANCH  25  26
ATOM     26  C   UNL     1      -1.875   1.964 -21.451  0.00  0.00    -0.000 C 
BRANCH  26  27
ATOM     27  C   UNL     1      -2.800   2.832 -21.162  0.00  0.00    -0.000 C 
BRANCH  27  29
ATOM     28  C   UNL     1      -4.983   2.977 -21.690  0.00  0.00    +0.004 C 
ATOM     29  C   UNL     1      -4.027   2.440 -20.992  0.00  0.00    -0.003 C 
ENDBRANCH  27  29
ENDBRANCH  26  27
ENDBRANCH  25  26
ENDBRANCH  24  25
ENDBRANCH  23  24
ENDBRANCH  22  23
ENDBRANCH  21  22
ENDBRANCH  20  21
ENDBRANCH  19  20
ENDBRANCH   1  19
TORSDOF 11
ENDMDL
