MODEL 1
REMARK VINA RESULT:   -11.900      0.000      0.000
REMARK INTER + INTRA:         -12.149
REMARK INTER:                 -12.260
REMARK INTRA:                   0.111
REMARK UNBOUND:                 2.533
REMARK  Name = ZINC000019535046
REMARK  8 active torsions:
REMARK  status: ('A' for Active; 'I' for Inactive)
REMARK    1  A    between atoms: C_1  and  O_2
REMARK    2  A    between atoms: O_2  and  C_3
REMARK    3  A    between atoms: C_8  and  O_9
REMARK    4  A    between atoms: O_9  and  C_10
REMARK    5  A    between atoms: C_16  and  O_17
REMARK    6  A    between atoms: O_17  and  C_18
REMARK    7  A    between atoms: C_19  and  O_20
REMARK    8  A    between atoms: O_20  and  C_21
REMARK                            x       y       z     vdW  Elec       q    Type
REMARK                         _______ _______ _______ _____ _____    ______ ____
ROOT
ATOM      1  C   UNL     1       3.891   2.581 -23.066  0.00  0.00    +0.162 A 
ATOM      2  C   UNL     1       3.343   3.113 -24.118  0.00  0.00    +0.053 A 
ATOM      3  C   UNL     1       2.055   3.284 -24.164  0.00  0.00    -0.030 A 
ATOM      4  C   UNL     1       1.315   2.923 -23.158  0.00  0.00    +0.008 A 
ATOM      5  C   UNL     1       0.027   3.094 -23.204  0.00  0.00    +0.100 C 
ATOM      6  C   UNL     1      -0.713   2.732 -22.198  0.00  0.00    +0.095 C 
ATOM      7  C   UNL     1      -2.001   2.903 -22.244  0.00  0.00    -0.030 A 
ATOM      8  C   UNL     1      -2.741   2.541 -21.238  0.00  0.00    +0.008 A 
ATOM      9  C   UNL     1      -4.028   2.712 -21.284  0.00  0.00    +0.050 A 
ATOM     10  C   UNL     1      -4.577   3.245 -22.336  0.00  0.00    +0.162 A 
ATOM     11  C   UNL     1      -3.836   3.606 -23.342  0.00  0.00    +0.170 A 
ATOM     12  C   UNL     1      -2.549   3.435 -23.296  0.00  0.00    +0.046 A 
ATOM     13  C   UNL     1      -1.808   3.797 -24.302  0.00  0.00    +0.172 C 
ATOM     14  N   UNL     1      -0.521   3.626 -24.256  0.00  0.00    +0.244 N 
ATOM     15  H   UNL     1      -1.041   3.320 -23.434  0.00  0.00    +0.204 HD
ATOM     16  C   UNL     1       0.219   3.987 -25.262  0.00  0.00    +0.137 C 
ATOM     17  C   UNL     1       1.863   2.390 -22.106  0.00  0.00    +0.058 A 
ATOM     18  C   UNL     1       1.507   3.816 -25.216  0.00  0.00    +0.086 C 
ATOM     19  C   UNL     1       3.151   2.219 -22.061  0.00  0.00    +0.162 A 
ENDROOT
BRANCH   1  21
ATOM     20  C   UNL     1       5.973   3.310 -23.521  0.00  0.00    +0.277 C 
ATOM     21  O   UNL     1       5.179   2.410 -23.020  0.00  0.00    -0.491 OA
ENDBRANCH   1  21
BRANCH  11  22
ATOM     22  O   UNL     1      -4.384   4.138 -24.394  0.00  0.00    -0.491 OA
ATOM     23  C   UNL     1      -4.807   3.380 -25.361  0.00  0.00    +0.277 C 
ENDBRANCH  11  22
BRANCH  10  24
ATOM     24  O   UNL     1      -5.864   3.415 -22.382  0.00  0.00    -0.491 OA
ATOM     25  C   UNL     1      -6.645   2.663 -21.666  0.00  0.00    +0.277 C 
ENDBRANCH  10  24
BRANCH  19  26
ATOM     26  O   UNL     1       3.699   1.687 -21.008  0.00  0.00    -0.491 OA
ATOM     27  C   UNL     1       3.720   0.395 -20.870  0.00  0.00    +0.277 C 
ENDBRANCH  19  26
TORSDOF 4
ENDMDL
