MODEL 1
REMARK VINA RESULT:    -8.713      0.000      0.000
REMARK INTER + INTRA:         -11.292
REMARK INTER:                 -10.984
REMARK INTRA:                  -0.308
REMARK UNBOUND:                -0.287
REMARK  Name = CN1[C@H]2CC[C@H]1CC(OC(=O)[C@@H](O)c1ccccc1)C2                       ZINC000100025275
REMARK  6 active torsions:
REMARK  status: ('A' for Active; 'I' for Inactive)
REMARK    1  A    between atoms: C_1  and  N_2
REMARK    2  A    between atoms: C_8  and  O_9
REMARK    3  A    between atoms: O_9  and  C_10
REMARK    4  A    between atoms: C_10  and  C_12
REMARK    5  A    between atoms: C_12  and  O_13
REMARK    6  A    between atoms: C_12  and  C_14
REMARK                            x       y       z     vdW  Elec       q    Type
REMARK                         _______ _______ _______ _____ _____    ______ ____
ROOT
ATOM      1  O   UNL     1      -0.853   3.586 -22.676  0.00  0.00    -0.459 OA
ENDROOT
BRANCH   1   9
ATOM      2  C   UNL     1      -3.102   3.548 -22.792  0.00  0.00    +0.191 C 
ATOM      3  N   UNL     1      -3.858   3.536 -22.832  0.00  0.00    +0.238 N 
ATOM      4  H   UNL     1      -4.877   3.519 -22.886  0.00  0.00    +0.204 HD
ATOM      5  C   UNL     1      -4.157   3.786 -23.739  0.00  0.00    +0.068 C 
ATOM      6  C   UNL     1      -5.500   3.699 -23.580  0.00  0.00    +0.060 C 
ATOM      7  C   UNL     1      -5.565   3.319 -22.263  0.00  0.00    +0.060 C 
ATOM      8  C   UNL     1      -3.004   3.929 -24.108  0.00  0.00    +0.099 C 
ATOM      9  C   UNL     1      -2.130   3.564 -22.739  0.00  0.00    +0.187 C 
ATOM     10  C   UNL     1      -3.133   3.169 -21.472  0.00  0.00    +0.099 C 
ATOM     11  C   UNL     1      -4.243   3.274 -21.961  0.00  0.00    +0.068 C 
ENDBRANCH   1   9
BRANCH   1  12
ATOM     12  C   UNL     1      -0.206   2.629 -23.264  0.00  0.00    +0.341 C 
ATOM     13  O   UNL     1      -0.394   1.345 -22.879  0.00  0.00    -0.248 OA
BRANCH  12  14
ATOM     14  C   UNL     1       0.621   2.925 -24.223  0.00  0.00    +0.253 C 
BRANCH  14  15
ATOM     15  C   UNL     1       1.904   3.126 -23.960  0.00  0.00    -0.008 A 
ATOM     16  C   UNL     1       2.341   4.303 -23.458  0.00  0.00    +0.007 A 
ATOM     17  C   UNL     1       3.655   4.482 -23.198  0.00  0.00    +0.000 A 
ATOM     18  C   UNL     1       4.535   3.485 -23.439  0.00  0.00    +0.000 A 
ATOM     19  C   UNL     1       4.097   2.307 -23.942  0.00  0.00    +0.000 A 
ATOM     20  C   UNL     1       2.785   2.128 -24.202  0.00  0.00    +0.007 A 
ENDBRANCH  14  15
BRANCH  14  21
ATOM     21  O   UNL     1       0.161   3.028 -25.492  0.00  0.00    -0.376 OA
ATOM     22  H   UNL     1      -0.790   3.225 -25.476  0.00  0.00    +0.211 HD
ENDBRANCH  14  21
ENDBRANCH  12  14
ENDBRANCH   1  12
TORSDOF 5
ENDMDL
