MODEL 1
REMARK VINA RESULT:    -8.192      0.000      0.000
REMARK INTER + INTRA:          -8.671
REMARK INTER:                  -8.671
REMARK INTRA:                   0.000
REMARK UNBOUND:                 0.000
REMARK  Name = ZINC000000338165
REMARK  4 active torsions:
REMARK  status: ('A' for Active; 'I' for Inactive)
REMARK    1  A    between atoms: C_1  and  C_2
REMARK    2  A    between atoms: C_2  and  C_3
REMARK    3  A    between atoms: C_8  and  O_9
REMARK    4  A    between atoms: C_11  and  O_12
REMARK                            x       y       z     vdW  Elec       q    Type
REMARK                         _______ _______ _______ _____ _____    ______ ____
ROOT
ATOM      1  C   UNL     1       0.135   2.250 -22.938  0.00  0.00    +0.056 C 
ATOM      2  C   UNL     1      -1.002   2.326 -22.315  0.00  0.00    +0.112 C 
ATOM      3  C   UNL     1      -1.882   2.229 -21.363  0.00  0.00    +0.127 C 
ATOM      4  C   UNL     1      -3.110   2.605 -21.572  0.00  0.00    +0.174 C 
ATOM      5  C   UNL     1      -3.456   3.078 -22.732  0.00  0.00    +0.101 A 
ATOM      6  C   UNL     1      -4.682   3.454 -22.941  0.00  0.00    +0.134 A 
ATOM      7  C   UNL     1      -5.029   3.928 -24.101  0.00  0.00    +0.091 A 
ATOM      8  C   UNL     1      -4.149   4.025 -25.052  0.00  0.00    +0.124 A 
ATOM      9  C   UNL     1      -2.921   3.649 -24.843  0.00  0.00    +0.092 A 
ATOM     10  C   UNL     1      -2.575   3.176 -23.684  0.00  0.00    +0.139 A 
ATOM     11  O   UNL     1      -3.991   2.508 -20.620  0.00  0.00    -0.292 OA
ATOM     12  C   UNL     1      -0.261   1.826 -21.371  0.00  0.00    +0.056 C 
ATOM     13  O   UNL     1      -1.349   2.800 -23.475  0.00  0.00    -0.485 OA
ENDROOT
BRANCH   8  14
ATOM     14  O   UNL     1      -4.495   4.498 -26.212  0.00  0.00    -0.507 OA
ATOM     15  H   UNL     1      -4.524   5.425 -26.351  0.00  0.00    +0.292 HD
ENDBRANCH   8  14
BRANCH   6  16
ATOM     16  O   UNL     1      -5.563   3.357 -21.989  0.00  0.00    -0.506 OA
ATOM     17  H   UNL     1      -5.726   2.528 -21.584  0.00  0.00    +0.292 HD
ENDBRANCH   6  16
TORSDOF 2
ENDMDL
