MODEL 1
REMARK VINA RESULT:   -10.126      0.000      0.000
REMARK INTER + INTRA:          -5.618
REMARK INTER:                 -12.694
REMARK INTRA:                   7.076
REMARK UNBOUND:                 6.876
REMARK  Name = CC[C@H]1C[C@@H]2CN3CCc4c([nH]c5ccc(OC)cc45)[C@](C(=O)OC)(C2)[C@H]13  ZINC000100392804
REMARK  7 active torsions:
REMARK  status: ('A' for Active; 'I' for Inactive)
REMARK    1  A    between atoms: C_1  and  C_2
REMARK    2  A    between atoms: C_2  and  C_3
REMARK    3  A    between atoms: C_16  and  O_17
REMARK    4  A    between atoms: O_17  and  C_18
REMARK    5  A    between atoms: C_21  and  C_22
REMARK    6  A    between atoms: C_22  and  O_24
REMARK    7  A    between atoms: O_24  and  C_25
REMARK                            x       y       z     vdW  Elec       q    Type
REMARK                         _______ _______ _______ _____ _____    ______ ____
ROOT
ATOM      1  C   UNL     1      -3.672   3.824 -25.013  0.00  0.00    +0.039 C 
ATOM      2  C   UNL     1      -4.982   4.123 -24.834  0.00  0.00    +0.017 C 
ATOM      3  C   UNL     1      -5.523   3.922 -23.397  0.00  0.00    +0.037 C 
ATOM      4  C   UNL     1      -4.566   3.610 -23.138  0.00  0.00    +0.135 C 
ATOM      5  N   UNL     1      -3.933   3.653 -24.014  0.00  0.00    +0.239 N 
ATOM      6  H   UNL     1      -4.871   3.960 -24.274  0.00  0.00    +0.204 HD
ATOM      7  C   UNL     1      -3.877   3.754 -24.496  0.00  0.00    +0.136 C 
ATOM      8  C   UNL     1      -2.390   3.428 -24.761  0.00  0.00    +0.088 C 
ATOM      9  C   UNL     1      -1.529   2.903 -23.499  0.00  0.00    -0.013 A 
ATOM     10  C   UNL     1      -2.248   2.805 -22.300  0.00  0.00    +0.043 A 
ATOM     11  C   UNL     1      -3.231   3.137 -22.617  0.00  0.00    +0.150 C 
ATOM     12  N   UNL     1      -1.381   2.353 -21.354  0.00  0.00    -0.357 N 
ATOM     13  H   UNL     1      -1.590   2.182 -20.407  0.00  0.00    +0.166 HD
ATOM     14  C   UNL     1      -0.143   2.177 -21.969  0.00  0.00    +0.047 A 
ATOM     15  C   UNL     1       1.070   1.748 -21.500  0.00  0.00    +0.030 A 
ATOM     16  C   UNL     1       2.144   1.670 -22.351  0.00  0.00    +0.047 A 
ATOM     17  C   UNL     1       2.009   2.019 -23.666  0.00  0.00    +0.121 A 
ATOM     18  C   UNL     1       0.802   2.445 -24.130  0.00  0.00    +0.056 A 
ATOM     19  C   UNL     1      -0.268   2.522 -23.284  0.00  0.00    +0.007 A 
ATOM     20  C   UNL     1      -4.636   3.426 -22.289  0.00  0.00    +0.038 C 
ATOM     21  C   UNL     1      -2.960   3.327 -23.709  0.00  0.00    +0.091 C 
ENDROOT
BRANCH   1  23
ATOM     22  C   UNL     1      -3.353   3.236 -27.229  0.00  0.00    +0.004 C 
ATOM     23  C   UNL     1      -3.302   4.008 -26.193  0.00  0.00    +0.006 C 
ENDBRANCH   1  23
BRANCH  11  24
ATOM     24  C   UNL     1      -3.410   2.933 -21.566  0.00  0.00    +0.324 C 
ATOM     25  O   UNL     1      -3.702   1.921 -21.337  0.00  0.00    -0.250 OA
BRANCH  24  26
ATOM     26  O   UNL     1      -3.281   3.857 -20.629  0.00  0.00    -0.467 OA
ATOM     27  C   UNL     1      -3.448   3.486 -19.343  0.00  0.00    +0.280 C 
ENDBRANCH  24  26
ENDBRANCH  11  24
BRANCH  17  28
ATOM     28  O   UNL     1       3.050   1.959 -24.552  0.00  0.00    -0.495 OA
ATOM     29  C   UNL     1       4.303   2.220 -24.143  0.00  0.00    +0.277 C 
ENDBRANCH  17  28
TORSDOF 4
ENDMDL
