MODEL 1
REMARK VINA RESULT:   -10.989      0.000      0.000
REMARK INTER + INTRA:          -8.483
REMARK INTER:                 -11.837
REMARK INTRA:                   3.354
REMARK UNBOUND:                 3.470
REMARK  Name = ZINC000003947415
REMARK  4 active torsions:
REMARK  status: ('A' for Active; 'I' for Inactive)
REMARK    1  A    between atoms: C_1  and  C_2
REMARK    2  A    between atoms: C_2  and  C_3
REMARK    3  A    between atoms: C_9  and  C_10
REMARK    4  A    between atoms: C_13  and  O_14
REMARK                            x       y       z     vdW  Elec       q    Type
REMARK                         _______ _______ _______ _____ _____    ______ ____
ROOT
ATOM      1  C   UNL     1      -5.586   4.047 -24.084  0.00  0.00    +0.017 C 
ATOM      2  C   UNL     1      -4.435   3.630 -23.648  0.00  0.00    +0.011 C 
ATOM      3  C   UNL     1      -5.173   3.468 -22.593  0.00  0.00    +0.013 C 
ATOM      4  C   UNL     1      -4.647   2.992 -21.509  0.00  0.00    +0.002 C 
ATOM      5  C   UNL     1      -3.384   2.679 -21.479  0.00  0.00    +0.011 C 
ATOM      6  C   UNL     1      -2.649   2.842 -22.536  0.00  0.00    -0.003 C 
ATOM      7  C   UNL     1      -1.387   2.529 -22.507  0.00  0.00    -0.035 A 
ATOM      8  C   UNL     1      -0.863   2.053 -21.421  0.00  0.00    +0.049 A 
ATOM      9  C   UNL     1       0.398   1.742 -21.398  0.00  0.00    +0.117 A 
ATOM     10  C   UNL     1       1.133   1.906 -22.456  0.00  0.00    +0.045 A 
ATOM     11  C   UNL     1       0.604   2.381 -23.538  0.00  0.00    +0.007 A 
ATOM     12  C   UNL     1      -0.658   2.694 -23.566  0.00  0.00    -0.043 A 
ATOM     13  C   UNL     1      -1.184   3.170 -24.650  0.00  0.00    +0.036 C 
ATOM     14  C   UNL     1      -2.443   3.481 -24.675  0.00  0.00    +0.010 C 
ATOM     15  C   UNL     1      -2.124   2.365 -21.447  0.00  0.00    +0.016 C 
ATOM     16  C   UNL     1      -3.172   3.318 -23.623  0.00  0.00    +0.011 C 
ENDROOT
BRANCH   2  17
ATOM     17  C   UNL     1      -4.129   3.963 -24.911  0.00  0.00    +0.048 C 
ATOM     18  O   UNL     1      -3.746   5.167 -25.217  0.00  0.00    -0.549 OA
ATOM     19  O   UNL     1      -4.215   3.068 -25.849  0.00  0.00    -0.549 OA
ENDBRANCH   2  17
BRANCH   9  20
ATOM     20  O   UNL     1       0.927   1.265 -20.311  0.00  0.00    -0.507 OA
ATOM     21  H   UNL     1       0.402   0.774 -19.710  0.00  0.00    +0.292 HD
ENDBRANCH   9  20
TORSDOF 2
ENDMDL
