MODEL 1
REMARK VINA RESULT:    -8.459      0.000      0.000
REMARK INTER + INTRA:          -8.174
REMARK INTER:                 -11.424
REMARK INTRA:                   3.250
REMARK UNBOUND:                 3.253
REMARK  Name = ZINC000000199418
REMARK  11 active torsions:
REMARK  status: ('A' for Active; 'I' for Inactive)
REMARK    1  A    between atoms: C_1  and  O_2
REMARK    2  A    between atoms: O_2  and  C_3
REMARK    3  A    between atoms: C_12  and  C_13
REMARK    4  A    between atoms: C_12  and  O_19
REMARK    5  A    between atoms: C_13  and  C_14
REMARK    6  A    between atoms: C_14  and  C_15
REMARK    7  A    between atoms: C_15  and  C_16
REMARK    8  A    between atoms: C_15  and  C_17
REMARK    9  A    between atoms: C_15  and  O_18
REMARK   10  A    between atoms: O_19  and  C_20
REMARK   11  A    between atoms: C_21  and  O_22
REMARK                            x       y       z     vdW  Elec       q    Type
REMARK                         _______ _______ _______ _____ _____    ______ ____
ROOT
ATOM      1  C   UNL     1       3.437   2.326 -23.254  0.00  0.00    +0.137 A 
ATOM      2  C   UNL     1       2.250   2.774 -23.535  0.00  0.00    +0.019 A 
ATOM      3  C   UNL     1       1.248   2.474 -22.764  0.00  0.00    +0.086 A 
ATOM      4  C   UNL     1       0.058   2.921 -23.043  0.00  0.00    +0.137 C 
ATOM      5  C   UNL     1      -0.124   3.665 -24.092  0.00  0.00    +0.153 C 
ATOM      6  C   UNL     1       0.877   3.965 -24.863  0.00  0.00    +0.039 C 
ATOM      7  N   UNL     1       1.431   1.730 -21.715  0.00  0.00    -0.214 NA
ATOM      8  C   UNL     1       2.619   1.285 -21.438  0.00  0.00    +0.231 A 
ATOM      9  O   UNL     1       3.062   0.537 -20.468  0.00  0.00    -0.445 OA
ATOM     10  C   UNL     1       4.340   0.375 -20.642  0.00  0.00    +0.198 A 
ATOM     11  C   UNL     1       4.688   1.020 -21.715  0.00  0.00    +0.055 A 
ATOM     12  C   UNL     1       2.065   3.517 -24.582  0.00  0.00    +0.043 C 
ATOM     13  C   UNL     1       3.623   1.581 -22.205  0.00  0.00    +0.082 A 
ENDROOT
BRANCH   5  14
ATOM     14  O   UNL     1      -1.313   4.112 -24.371  0.00  0.00    -0.389 OA
ATOM     15  H   UNL     1      -1.258   4.736 -25.111  0.00  0.00    +0.210 HD
ENDBRANCH   5  14
BRANCH   4  16
ATOM     16  O   UNL     1      -0.182   2.229 -21.934  0.00  0.00    -0.368 OA
ATOM     17  C   UNL     1      -0.869   1.125 -21.963  0.00  0.00    +0.195 C 
ENDBRANCH   4  16
BRANCH   1  19
ATOM     18  C   UNL     1       5.336   3.478 -23.625  0.00  0.00    +0.277 C 
ATOM     19  O   UNL     1       4.442   2.625 -24.025  0.00  0.00    -0.494 OA
ENDBRANCH   1  19
BRANCH   4  20
ATOM     20  C   UNL     1      -1.226   3.143 -22.956  0.00  0.00    +0.047 C 
BRANCH  20  21
ATOM     21  C   UNL     1      -1.687   3.928 -22.052  0.00  0.00    +0.037 C 
BRANCH  21  22
ATOM     22  C   UNL     1      -2.837   3.708 -21.500  0.00  0.00    +0.061 C 
ATOM     23  C   UNL     1      -2.947   3.750 -20.205  0.00  0.00    +0.041 C 
ATOM     24  C   UNL     1      -4.100   3.430 -21.597  0.00  0.00    +0.041 C 
BRANCH  22  25
ATOM     25  O   UNL     1      -3.371   3.533 -22.668  0.00  0.00    -0.389 OA
ATOM     26  H   UNL     1      -3.576   4.395 -23.063  0.00  0.00    +0.210 HD
ENDBRANCH  22  25
ENDBRANCH  21  22
ENDBRANCH  20  21
ENDBRANCH   4  20
TORSDOF 7
ENDMDL
