MODEL 1
REMARK VINA RESULT:    -7.390      0.000      0.000
REMARK INTER + INTRA:         -10.421
REMARK INTER:                 -10.114
REMARK INTRA:                  -0.307
REMARK UNBOUND:                -0.871
REMARK  Name = ZINC000008382455
REMARK  5 active torsions:
REMARK  status: ('A' for Active; 'I' for Inactive)
REMARK    1  A    between atoms: C_11  and  O_12
REMARK    2  A    between atoms: O_12  and  C_13
REMARK    3  A    between atoms: C_13  and  C_14
REMARK    4  A    between atoms: N_23  and  C_24
REMARK    5  A    between atoms: C_24  and  C_25
REMARK                            x       y       z     vdW  Elec       q    Type
REMARK                         _______ _______ _______ _____ _____    ______ ____
ROOT
ATOM      1  O   UNL     1       1.942   1.075 -24.406  0.00  0.00    -0.270 OA
ATOM      2  C   UNL     1       2.079   2.313 -24.035  0.00  0.00    +0.248 C 
ATOM      3  C   UNL     1       1.052   3.110 -24.036  0.00  0.00    +0.044 A 
ATOM      4  C   UNL     1      -0.112   2.668 -24.409  0.00  0.00    +0.063 A 
ATOM      5  C   UNL     1      -1.139   3.464 -24.411  0.00  0.00    +0.167 A 
ATOM      6  C   UNL     1      -1.002   4.704 -24.040  0.00  0.00    +0.167 A 
ATOM      7  O   UNL     1      -2.163   5.281 -24.131  0.00  0.00    -0.453 OA
ATOM      8  C   UNL     1      -3.019   4.399 -24.558  0.00  0.00    +0.466 C 
ATOM      9  C   UNL     1       0.162   5.145 -23.668  0.00  0.00    +0.054 A 
ATOM     10  O   UNL     1      -2.386   3.276 -24.731  0.00  0.00    -0.453 OA
ATOM     11  C   UNL     1       1.189   4.349 -23.665  0.00  0.00    -0.027 A 
ATOM     12  C   UNL     1       2.354   4.790 -23.293  0.00  0.00    +0.043 C 
ATOM     13  C   UNL     1       2.490   6.029 -22.922  0.00  0.00    +0.041 C 
ATOM     14  C   UNL     1       3.655   6.470 -22.550  0.00  0.00    +0.119 C 
ATOM     15  C   UNL     1       4.683   5.674 -22.548  0.00  0.00    +0.033 C 
ATOM     16  C   UNL     1       4.546   4.435 -22.919  0.00  0.00    +0.025 C 
ATOM     17  C   UNL     1       3.381   3.994 -23.291  0.00  0.00    +0.084 C 
ATOM     18  N   UNL     1       3.244   2.755 -23.662  0.00  0.00    -0.290 N 
ENDROOT
BRANCH  14  19
ATOM     19  O   UNL     1       3.792   7.709 -22.179  0.00  0.00    -0.372 OA
BRANCH  19  20
ATOM     20  C   UNL     1       4.924   8.119 -21.688  0.00  0.00    +0.195 C 
BRANCH  20  21
ATOM     21  C   UNL     1       5.117   9.385 -21.469  0.00  0.00    -0.022 A 
ATOM     22  C   UNL     1       6.186   9.968 -21.926  0.00  0.00    +0.006 A 
ATOM     23  C   UNL     1       6.378  11.236 -21.707  0.00  0.00    +0.000 A 
ATOM     24  C   UNL     1       5.503  11.919 -21.031  0.00  0.00    +0.000 A 
ATOM     25  C   UNL     1       4.434  11.336 -20.574  0.00  0.00    +0.000 A 
ATOM     26  C   UNL     1       4.242  10.068 -20.793  0.00  0.00    +0.006 A 
ENDBRANCH  20  21
ENDBRANCH  19  20
ENDBRANCH  14  19
BRANCH  18  27
ATOM     27  C   UNL     1       4.271   1.958 -23.660  0.00  0.00    +0.143 C 
BRANCH  27  28
ATOM     28  C   UNL     1       4.553   1.263 -22.600  0.00  0.00    -0.030 A 
ATOM     29  C   UNL     1       3.616   0.970 -21.748  0.00  0.00    +0.005 A 
ATOM     30  C   UNL     1       3.898   0.273 -20.686  0.00  0.00    +0.000 A 
ATOM     31  C   UNL     1       5.116  -0.129 -20.477  0.00  0.00    +0.000 A 
ATOM     32  C   UNL     1       6.053   0.164 -21.329  0.00  0.00    +0.000 A 
ATOM     33  C   UNL     1       5.771   0.860 -22.391  0.00  0.00    +0.005 A 
ENDBRANCH  27  28
ENDBRANCH  18  27
TORSDOF 5
ENDMDL
