MODEL 1
REMARK VINA RESULT:    -9.778      0.000      0.000
REMARK INTER + INTRA:         -10.485
REMARK INTER:                 -10.358
REMARK INTRA:                  -0.127
REMARK UNBOUND:                -0.135
REMARK  Name = ZINC000071404300
REMARK  3 active torsions:
REMARK  status: ('A' for Active; 'I' for Inactive)
REMARK    1  A    between atoms: C_1  and  O_2
REMARK    2  A    between atoms: O_2  and  C_3
REMARK    3  A    between atoms: C_5  and  C_6
REMARK                            x       y       z     vdW  Elec       q    Type
REMARK                         _______ _______ _______ _____ _____    ______ ____
ROOT
ATOM      1  C   UNL     1      -0.597   3.255 -23.923  0.00  0.00    +0.145 A 
ATOM      2  C   UNL     1       0.336   2.680 -23.225  0.00  0.00    +0.051 A 
ATOM      3  C   UNL     1       0.041   2.092 -22.104  0.00  0.00    -0.046 A 
ATOM      4  C   UNL     1      -1.188   2.078 -21.681  0.00  0.00    +0.014 A 
ATOM      5  C   UNL     1      -2.122   2.653 -22.380  0.00  0.00    +0.012 A 
ATOM      6  C   UNL     1      -3.401   2.779 -22.185  0.00  0.00    +0.008 A 
ATOM      7  C   UNL     1      -4.179   2.373 -21.225  0.00  0.00    +0.010 A 
ATOM      8  C   UNL     1      -5.452   2.634 -21.267  0.00  0.00    +0.001 A 
ATOM      9  C   UNL     1      -5.947   3.300 -22.267  0.00  0.00    +0.002 A 
ATOM     10  C   UNL     1      -5.170   3.706 -23.227  0.00  0.00    +0.027 A 
ATOM     11  C   UNL     1      -3.896   3.445 -23.185  0.00  0.00    +0.057 A 
ATOM     12  N   UNL     1      -2.923   3.731 -23.999  0.00  0.00    -0.279 N 
ATOM     13  C   UNL     1      -3.027   4.390 -25.114  0.00  0.00    +0.348 C 
ATOM     14  O   UNL     1      -4.188   4.829 -25.503  0.00  0.00    -0.276 OA
ATOM     15  C   UNL     1       0.975   1.517 -21.405  0.00  0.00    +0.044 C 
ATOM     16  C   UNL     1      -1.826   3.241 -23.501  0.00  0.00    +0.099 A 
ENDROOT
BRANCH   1  18
ATOM     17  C   UNL     1       0.938   4.109 -25.331  0.00  0.00    +0.277 C 
ATOM     18  O   UNL     1      -0.301   3.843 -25.045  0.00  0.00    -0.493 OA
ENDBRANCH   1  18
TORSDOF 1
ENDMDL
