MODEL 1
REMARK VINA RESULT:   -10.386      0.000      0.000
REMARK INTER + INTRA:         -11.716
REMARK INTER:                 -11.613
REMARK INTRA:                  -0.104
REMARK UNBOUND:                -0.116
REMARK  Name = COc1ccc2c(c1O)[C@@]13CC=CC=C1[C@H](C2)N(C)CC3                        ZINC000100393386
REMARK  4 active torsions:
REMARK  status: ('A' for Active; 'I' for Inactive)
REMARK    1  A    between atoms: C_1  and  O_2
REMARK    2  A    between atoms: O_2  and  C_3
REMARK    3  A    between atoms: C_8  and  O_9
REMARK    4  A    between atoms: N_18  and  C_19
REMARK                            x       y       z     vdW  Elec       q    Type
REMARK                         _______ _______ _______ _____ _____    ______ ____
ROOT
ATOM      1  C   UNL     1       0.521   2.374 -23.543  0.00  0.00    +0.162 A 
ATOM      2  C   UNL     1       0.590   1.976 -22.291  0.00  0.00    +0.050 A 
ATOM      3  C   UNL     1      -0.498   1.973 -21.506  0.00  0.00    +0.008 A 
ATOM      4  C   UNL     1      -1.788   2.410 -22.020  0.00  0.00    -0.034 A 
ATOM      5  C   UNL     1      -1.764   2.748 -23.145  0.00  0.00    +0.012 A 
ATOM      6  C   UNL     1      -2.607   3.112 -23.737  0.00  0.00    +0.034 C 
ATOM      7  C   UNL     1      -1.247   2.808 -23.708  0.00  0.00    +0.043 C 
ATOM      8  C   UNL     1      -0.614   2.307 -22.518  0.00  0.00    -0.026 C 
ATOM      9  C   UNL     1      -1.310   2.094 -21.325  0.00  0.00    -0.004 C 
ATOM     10  C   UNL     1      -2.308   2.312 -21.330  0.00  0.00    +0.005 C 
ATOM     11  C   UNL     1      -3.500   3.544 -24.516  0.00  0.00    +0.067 C 
ATOM     12  C   UNL     1      -4.713   3.638 -23.962  0.00  0.00    +0.133 C 
ATOM     13  N   UNL     1      -4.820   3.262 -22.656  0.00  0.00    +0.239 N 
ATOM     14  H   UNL     1      -5.140   3.043 -21.713  0.00  0.00    +0.204 HD
ATOM     15  C   UNL     1      -5.953   3.338 -22.099  0.00  0.00    +0.191 C 
ATOM     16  C   UNL     1      -3.718   2.852 -22.095  0.00  0.00    +0.096 C 
ATOM     17  C   UNL     1      -3.006   2.866 -22.648  0.00  0.00    -0.011 C 
ATOM     18  C   UNL     1      -3.191   2.520 -21.384  0.00  0.00    +0.094 C 
ATOM     19  C   UNL     1      -0.578   2.755 -24.010  0.00  0.00    +0.163 A 
ENDROOT
BRANCH   1  21
ATOM     20  C   UNL     1       2.458   1.821 -25.101  0.00  0.00    +0.277 C 
ATOM     21  O   UNL     1       1.464   2.509 -24.654  0.00  0.00    -0.491 OA
ENDBRANCH   1  21
BRANCH  19  22
ATOM     22  O   UNL     1       0.120   2.968 -25.201  0.00  0.00    -0.503 OA
ATOM     23  H   UNL     1      -0.230   3.542 -25.852  0.00  0.00    +0.292 HD
ENDBRANCH  19  22
TORSDOF 2
ENDMDL
