MODEL 1
REMARK VINA RESULT:   -11.974      0.000      0.000
REMARK INTER + INTRA:         -15.183
REMARK INTER:                 -14.372
REMARK INTRA:                  -0.811
REMARK UNBOUND:                -1.109
REMARK  Name = COc1ccc2c(c1Oc1ccccc1)[C@@]13CC=CC=C1[C@@H](C2)NCC3                  ZINC000096316414
REMARK  4 active torsions:
REMARK  status: ('A' for Active; 'I' for Inactive)
REMARK    1  A    between atoms: C_1  and  O_2
REMARK    2  A    between atoms: O_2  and  C_3
REMARK    3  A    between atoms: C_8  and  O_9
REMARK    4  A    between atoms: O_9  and  C_10
REMARK                            x       y       z     vdW  Elec       q    Type
REMARK                         _______ _______ _______ _____ _____    ______ ____
ROOT
ATOM      1  C   UNL     1      -2.202   2.695 -21.447  0.00  0.00    +0.162 A 
ATOM      2  C   UNL     1      -3.221   2.824 -20.723  0.00  0.00    +0.050 A 
ATOM      3  C   UNL     1      -4.308   3.153 -21.257  0.00  0.00    +0.008 A 
ATOM      4  C   UNL     1      -4.348   3.372 -22.689  0.00  0.00    -0.034 A 
ATOM      5  C   UNL     1      -3.463   3.248 -23.237  0.00  0.00    +0.013 A 
ATOM      6  C   UNL     1      -3.274   3.339 -24.155  0.00  0.00    +0.034 C 
ATOM      7  C   UNL     1      -2.189   3.183 -24.794  0.00  0.00    +0.043 C 
ATOM      8  C   UNL     1      -2.165   3.365 -26.074  0.00  0.00    -0.026 C 
ATOM      9  C   UNL     1      -3.258   3.712 -26.719  0.00  0.00    -0.004 C 
ATOM     10  C   UNL     1      -4.391   3.882 -26.095  0.00  0.00    +0.005 C 
ATOM     11  C   UNL     1      -3.434   3.132 -22.492  0.00  0.00    +0.067 C 
ATOM     12  C   UNL     1      -4.760   3.342 -21.837  0.00  0.00    +0.131 C 
ATOM     13  N   UNL     1      -5.684   3.656 -22.522  0.00  0.00    +0.233 N 
ATOM     14  H   UNL     1      -5.883   4.604 -22.203  0.00  0.00    +0.202 HD
ATOM     15  H   UNL     1      -6.396   2.938 -22.392  0.00  0.00    +0.202 HD
ATOM     16  C   UNL     1      -5.524   3.846 -24.067  0.00  0.00    +0.095 C 
ATOM     17  C   UNL     1      -4.452   3.713 -24.847  0.00  0.00    -0.011 C 
ATOM     18  C   UNL     1      -5.391   3.682 -23.158  0.00  0.00    +0.094 C 
ATOM     19  C   UNL     1      -2.308   2.904 -22.706  0.00  0.00    +0.174 A 
ENDROOT
BRANCH   1  21
ATOM     20  C   UNL     1      -0.484   1.218 -21.210  0.00  0.00    +0.277 C 
ATOM     21  O   UNL     1      -1.015   2.354 -20.990  0.00  0.00    -0.491 OA
ENDBRANCH   1  21
BRANCH  19  22
ATOM     22  O   UNL     1      -1.231   2.814 -23.793  0.00  0.00    -0.452 OA
BRANCH  22  23
ATOM     23  C   UNL     1       0.061   3.316 -23.871  0.00  0.00    +0.129 A 
ATOM     24  C   UNL     1       0.226   4.539 -23.518  0.00  0.00    +0.046 A 
ATOM     25  C   UNL     1       1.396   5.065 -23.566  0.00  0.00    +0.004 A 
ATOM     26  C   UNL     1       2.395   4.373 -23.965  0.00  0.00    +0.000 A 
ATOM     27  C   UNL     1       2.232   3.149 -24.319  0.00  0.00    +0.004 A 
ATOM     28  C   UNL     1       1.064   2.622 -24.271  0.00  0.00    +0.046 A 
ENDBRANCH  22  23
ENDBRANCH  19  22
TORSDOF 3
ENDMDL
