MODEL 1
REMARK VINA RESULT:    -9.993      0.000      0.000
REMARK INTER + INTRA:          -9.993
REMARK INTER:                  -9.993
REMARK INTRA:                   0.000
REMARK UNBOUND:                 0.000
REMARK  Name = ZINC000072182677
REMARK  3 active torsions:
REMARK  status: ('A' for Active; 'I' for Inactive)
REMARK    1  A    between atoms: C_1  and  C_2
REMARK    2  A    between atoms: C_10  and  C_11
REMARK    3  A    between atoms: C_16  and  C_17
REMARK                            x       y       z     vdW  Elec       q    Type
REMARK                         _______ _______ _______ _____ _____    ______ ____
ROOT
ATOM      1  C   UNL     1      -0.706   2.001 -21.264  0.00  0.00    +0.019 C 
ATOM      2  C   UNL     1      -0.556   2.313 -22.516  0.00  0.00    +0.101 C 
ATOM      3  C   UNL     1       0.550   2.239 -23.195  0.00  0.00    +0.311 C 
ATOM      4  O   UNL     1       0.304   2.635 -24.408  0.00  0.00    -0.458 OA
ATOM      5  C   UNL     1      -0.954   2.954 -24.480  0.00  0.00    +0.212 C 
ATOM      6  C   UNL     1      -1.685   3.400 -25.459  0.00  0.00    +0.191 C 
ATOM      7  O   UNL     1      -2.416   3.845 -26.438  0.00  0.00    -0.361 OA
ATOM      8  C   UNL     1      -2.947   3.646 -25.268  0.00  0.00    +0.097 C 
ATOM      9  C   UNL     1      -4.097   4.046 -25.722  0.00  0.00    +0.044 C 
ATOM     10  C   UNL     1      -3.478   3.448 -24.098  0.00  0.00    +0.040 C 
ATOM     11  C   UNL     1      -4.741   3.695 -23.908  0.00  0.00    +0.037 C 
ATOM     12  C   UNL     1      -5.272   3.496 -22.738  0.00  0.00    +0.151 C 
ATOM     13  O   UNL     1      -5.804   3.297 -21.568  0.00  0.00    -0.365 OA
ATOM     14  C   UNL     1      -4.542   3.050 -21.759  0.00  0.00    +0.093 C 
ATOM     15  C   UNL     1      -4.427   2.678 -20.519  0.00  0.00    +0.044 C 
ATOM     16  C   UNL     1      -3.280   2.803 -21.950  0.00  0.00    +0.038 C 
ATOM     17  C   UNL     1      -2.748   3.002 -23.120  0.00  0.00    +0.011 C 
ATOM     18  O   UNL     1       1.700   1.839 -22.741  0.00  0.00    -0.251 OA
ATOM     19  C   UNL     1      -1.487   2.755 -23.310  0.00  0.00    +0.046 C 
ENDROOT
TORSDOF 0
ENDMDL
