MODEL 1
REMARK VINA RESULT:    -8.736      0.000      0.000
REMARK INTER + INTRA:         -11.303
REMARK INTER:                 -10.337
REMARK INTRA:                  -0.966
REMARK UNBOUND:                -0.525
REMARK  Name = ZINC000014690753
REMARK  9 active torsions:
REMARK  status: ('A' for Active; 'I' for Inactive)
REMARK    1  A    between atoms: C_1  and  C_2
REMARK    2  A    between atoms: C_2  and  C_3
REMARK    3  A    between atoms: C_4  and  C_5
REMARK    4  A    between atoms: C_5  and  C_6
REMARK    5  A    between atoms: C_6  and  O_7
REMARK    6  A    between atoms: C_6  and  C_8
REMARK    7  A    between atoms: C_8  and  C_9
REMARK    8  A    between atoms: C_15  and  C_16
REMARK    9  A    between atoms: C_15  and  O_17
REMARK                            x       y       z     vdW  Elec       q    Type
REMARK                         _______ _______ _______ _____ _____    ______ ____
ROOT
ATOM      1  C   UNL     1      -3.086   3.261 -23.416  0.00  0.00    +0.026 C 
ATOM      2  C   UNL     1      -4.360   3.395 -23.053  0.00  0.00    +0.000 C 
ATOM      3  C   UNL     1      -5.572   3.436 -22.516  0.00  0.00    +0.004 C 
ATOM      4  C   UNL     1      -4.962   2.652 -21.075  0.00  0.00    +0.006 C 
ATOM      5  C   UNL     1      -3.750   2.610 -21.611  0.00  0.00    +0.021 C 
ATOM      6  C   UNL     1      -4.285   3.010 -22.230  0.00  0.00    +0.010 C 
ATOM      7  C   UNL     1      -3.414   3.848 -24.562  0.00  0.00    +0.017 C 
ATOM      8  C   UNL     1      -2.620   2.660 -22.309  0.00  0.00    +0.074 C 
ATOM      9  C   UNL     1      -1.588   2.629 -22.776  0.00  0.00    +0.042 C 
ENDROOT
BRANCH   8  10
ATOM     10  O   UNL     1      -2.046   2.063 -21.271  0.00  0.00    -0.388 OA
ATOM     11  H   UNL     1      -2.715   1.882 -20.591  0.00  0.00    +0.210 HD
ENDBRANCH   8  10
BRANCH   1  12
ATOM     12  C   UNL     1      -1.768   3.179 -23.915  0.00  0.00    +0.127 C 
BRANCH  12  13
ATOM     13  O   UNL     1      -1.192   2.012 -24.085  0.00  0.00    -0.391 OA
ATOM     14  H   UNL     1      -1.869   1.320 -24.133  0.00  0.00    +0.210 HD
ENDBRANCH  12  13
BRANCH  12  15
ATOM     15  C   UNL     1      -1.103   4.311 -24.219  0.00  0.00    +0.059 C 
BRANCH  15  18
ATOM     16  C   UNL     1       2.236   5.037 -23.473  0.00  0.00    +0.038 C 
ATOM     17  C   UNL     1       1.165   4.643 -24.143  0.00  0.00    -0.080 C 
ATOM     18  C   UNL     1      -0.041   4.699 -23.560  0.00  0.00    -0.026 C 
ATOM     19  C   UNL     1       1.293   4.195 -25.394  0.00  0.00    +0.038 C 
ENDBRANCH  15  18
ENDBRANCH  12  15
ENDBRANCH   1  12
TORSDOF 5
ENDMDL
