MODEL 1
REMARK VINA RESULT:    -9.803      0.000      0.000
REMARK INTER + INTRA:         -14.261
REMARK INTER:                 -13.757
REMARK INTRA:                  -0.504
REMARK UNBOUND:                 1.273
REMARK  Name = ZINC000000689652
REMARK  14 active torsions:
REMARK  status: ('A' for Active; 'I' for Inactive)
REMARK    1  A    between atoms: C_1  and  O_2
REMARK    2  A    between atoms: O_2  and  C_3
REMARK    3  A    between atoms: C_5  and  O_6
REMARK    4  A    between atoms: O_6  and  C_7
REMARK    5  A    between atoms: C_7  and  C_8
REMARK    6  A    between atoms: C_13  and  O_14
REMARK    7  A    between atoms: O_14  and  C_15
REMARK    8  A    between atoms: C_16  and  C_17
REMARK    9  A    between atoms: C_20  and  O_21
REMARK   10  A    between atoms: O_21  and  C_22
REMARK   11  A    between atoms: C_22  and  C_23
REMARK   12  A    between atoms: C_29  and  O_30
REMARK   13  A    between atoms: O_30  and  C_31
REMARK   14  A    between atoms: C_31  and  C_32
REMARK                            x       y       z     vdW  Elec       q    Type
REMARK                         _______ _______ _______ _____ _____    ______ ____
ROOT
ATOM      1  C   UNL     1      -3.180   2.942 -21.740  0.00  0.00    +0.127 A 
ATOM      2  C   UNL     1      -3.619   3.043 -22.960  0.00  0.00    +0.093 A 
ATOM      3  C   UNL     1      -2.779   3.141 -23.947  0.00  0.00    +0.150 A 
ATOM      4  C   UNL     1      -1.501   3.139 -23.715  0.00  0.00    +0.110 A 
ATOM      5  C   UNL     1      -0.660   3.237 -24.702  0.00  0.00    +0.238 A 
ATOM      6  C   UNL     1       0.618   3.235 -24.471  0.00  0.00    +0.211 A 
ATOM      7  C   UNL     1       1.058   3.135 -23.252  0.00  0.00    +0.181 A 
ATOM      8  O   UNL     1       0.218   3.037 -22.264  0.00  0.00    -0.451 OA
ATOM      9  O   UNL     1      -1.099   3.337 -25.922  0.00  0.00    -0.283 OA
ATOM     10  C   UNL     1      -1.060   3.039 -22.496  0.00  0.00    +0.147 A 
ATOM     11  C   UNL     1      -1.901   2.940 -21.508  0.00  0.00    +0.092 A 
ENDROOT
BRANCH   7  12
ATOM     12  C   UNL     1       2.337   3.133 -23.019  0.00  0.00    +0.025 A 
ATOM     13  C   UNL     1       3.008   4.245 -23.067  0.00  0.00    +0.015 A 
ATOM     14  C   UNL     1       4.287   4.243 -22.834  0.00  0.00    +0.050 A 
ATOM     15  C   UNL     1       4.895   3.129 -22.555  0.00  0.00    +0.163 A 
ATOM     16  C   UNL     1       4.225   2.017 -22.508  0.00  0.00    +0.174 A 
ATOM     17  C   UNL     1       2.945   2.018 -22.740  0.00  0.00    +0.061 A 
BRANCH  16  18
ATOM     18  O   UNL     1       4.833   0.902 -22.228  0.00  0.00    -0.422 OA
BRANCH  18  19
ATOM     19  C   UNL     1       4.625   0.317 -21.085  0.00  0.00    +0.309 C 
ATOM     20  O   UNL     1       3.421  -0.033 -20.744  0.00  0.00    -0.251 OA
ATOM     21  C   UNL     1       5.622   0.083 -20.285  0.00  0.00    +0.136 C 
ENDBRANCH  18  19
ENDBRANCH  16  18
BRANCH  15  22
ATOM     22  O   UNL     1       6.174   3.127 -22.323  0.00  0.00    -0.484 OA
BRANCH  22  23
ATOM     23  C   UNL     1       6.628   3.550 -21.180  0.00  0.00    +0.264 C 
BRANCH  23  24
ATOM     24  C   UNL     1       7.348   4.631 -21.127  0.00  0.00    -0.010 A 
ATOM     25  C   UNL     1       8.219   4.879 -22.060  0.00  0.00    +0.007 A 
ATOM     26  C   UNL     1       8.939   5.959 -22.007  0.00  0.00    +0.000 A 
ATOM     27  C   UNL     1       8.789   6.793 -21.020  0.00  0.00    +0.000 A 
ATOM     28  C   UNL     1       7.919   6.545 -20.086  0.00  0.00    +0.000 A 
ATOM     29  C   UNL     1       7.198   5.463 -20.140  0.00  0.00    +0.007 A 
ENDBRANCH  23  24
ENDBRANCH  22  23
ENDBRANCH  15  22
ENDBRANCH   7  12
BRANCH   1  31
ATOM     30  C   UNL     1      -5.235   2.438 -20.972  0.00  0.00    +0.277 C 
ATOM     31  O   UNL     1      -4.019   2.844 -20.753  0.00  0.00    -0.495 OA
ENDBRANCH   1  31
BRANCH   6  32
ATOM     32  O   UNL     1       1.458   3.333 -25.458  0.00  0.00    -0.488 OA
ATOM     33  C   UNL     1       1.906   2.260 -26.039  0.00  0.00    +0.277 C 
ENDBRANCH   6  32
BRANCH   3  34
ATOM     34  O   UNL     1      -3.219   3.241 -25.166  0.00  0.00    -0.425 OA
BRANCH  34  35
ATOM     35  C   UNL     1      -4.288   3.937 -25.417  0.00  0.00    +0.309 C 
ATOM     36  O   UNL     1      -4.273   5.228 -25.270  0.00  0.00    -0.251 OA
ATOM     37  C   UNL     1      -5.373   3.341 -25.816  0.00  0.00    +0.136 C 
ENDBRANCH  34  35
ENDBRANCH   3  34
TORSDOF 10
ENDMDL
