MODEL 1
REMARK VINA RESULT:   -10.872      0.000      0.000
REMARK INTER + INTRA:          -8.477
REMARK INTER:                 -11.833
REMARK INTRA:                   3.357
REMARK UNBOUND:                 3.349
REMARK  Name = ZINC000012725849
REMARK  4 active torsions:
REMARK  status: ('A' for Active; 'I' for Inactive)
REMARK    1  A    between atoms: C_1  and  C_2
REMARK    2  A    between atoms: C_2  and  C_3
REMARK    3  A    between atoms: C_9  and  C_10
REMARK    4  A    between atoms: C_13  and  O_14
REMARK                            x       y       z     vdW  Elec       q    Type
REMARK                         _______ _______ _______ _____ _____    ______ ____
ROOT
ATOM      1  C   UNL     1      -5.587   4.039 -24.085  0.00  0.00    +0.017 C 
ATOM      2  C   UNL     1      -4.433   3.622 -23.653  0.00  0.00    +0.011 C 
ATOM      3  C   UNL     1      -5.167   3.459 -22.595  0.00  0.00    +0.013 C 
ATOM      4  C   UNL     1      -4.635   2.984 -21.514  0.00  0.00    +0.002 C 
ATOM      5  C   UNL     1      -3.373   2.671 -21.489  0.00  0.00    +0.011 C 
ATOM      6  C   UNL     1      -2.642   2.836 -22.549  0.00  0.00    -0.003 C 
ATOM      7  C   UNL     1      -1.380   2.524 -22.525  0.00  0.00    -0.035 A 
ATOM      8  C   UNL     1      -0.850   2.048 -21.442  0.00  0.00    +0.049 A 
ATOM      9  C   UNL     1       0.410   1.739 -21.424  0.00  0.00    +0.117 A 
ATOM     10  C   UNL     1       1.141   1.904 -22.485  0.00  0.00    +0.045 A 
ATOM     11  C   UNL     1       0.607   2.379 -23.565  0.00  0.00    +0.007 A 
ATOM     12  C   UNL     1      -0.655   2.690 -23.587  0.00  0.00    -0.043 A 
ATOM     13  C   UNL     1      -1.186   3.166 -24.668  0.00  0.00    +0.036 C 
ATOM     14  C   UNL     1      -2.446   3.476 -24.689  0.00  0.00    +0.010 C 
ATOM     15  C   UNL     1      -2.112   2.359 -21.462  0.00  0.00    +0.016 C 
ATOM     16  C   UNL     1      -3.170   3.311 -23.633  0.00  0.00    +0.011 C 
ENDROOT
BRANCH   2  17
ATOM     17  C   UNL     1      -4.133   3.956 -24.917  0.00  0.00    +0.048 C 
ATOM     18  O   UNL     1      -3.754   5.161 -25.225  0.00  0.00    -0.549 OA
ATOM     19  O   UNL     1      -4.220   3.061 -25.855  0.00  0.00    -0.549 OA
ENDBRANCH   2  17
BRANCH   9  20
ATOM     20  O   UNL     1       0.945   1.262 -20.339  0.00  0.00    -0.507 OA
ATOM     21  H   UNL     1       0.405   0.856 -19.690  0.00  0.00    +0.292 HD
ENDBRANCH   9  20
TORSDOF 2
ENDMDL
