MODEL 1
REMARK VINA RESULT:    -8.466      0.000      0.000
REMARK INTER + INTRA:         -12.645
REMARK INTER:                 -12.163
REMARK INTRA:                  -0.482
REMARK UNBOUND:                -0.467
REMARK  Name = ZINC000000105356
REMARK  8 active torsions:
REMARK  status: ('A' for Active; 'I' for Inactive)
REMARK    1  A    between atoms: C_2  and  O_16
REMARK    2  A    between atoms: N_3  and  CA_4
REMARK    3  A    between atoms: CA_4  and  CB_5
REMARK    4  A    between atoms: CA_4  and  C_13
REMARK    5  A    between atoms: CB_5  and  CG_6
REMARK    6  A    between atoms: CZ_9  and  OH_10
REMARK    7  A    between atoms: O_16  and  C_17
REMARK    8  A    between atoms: C_17  and  C_18
REMARK                            x       y       z     vdW  Elec       q    Type
REMARK                         _______ _______ _______ _____ _____    ______ ____
ROOT
ATOM      1  CA  TYR A   1       1.420   3.026 -23.476  0.00  0.00    +0.126 C 
ENDROOT
BRANCH   1   4
ATOM      2  O   UNK A   0      -0.882   1.885 -23.877  0.00  0.00    -0.226 OA
ATOM      3  C   UNK A   0      -0.577   2.338 -22.696  0.00  0.00    +0.401 C 
ATOM      4  N   TYR A   1       0.574   2.909 -22.497  0.00  0.00    -0.273 N 
ATOM      5  H   TYR A   1       0.804   3.252 -21.603  0.00  0.00    +0.153 HD
BRANCH   3   6
ATOM      6  O   UNK A   0      -1.423   2.221 -21.717  0.00  0.00    -0.446 OA
BRANCH   6   7
ATOM      7  C   UNK A   0      -2.195   3.218 -21.401  0.00  0.00    +0.269 C 
BRANCH   7   8
ATOM      8  C   UNK A   0      -3.446   3.211 -21.755  0.00  0.00    -0.010 A 
ATOM      9  C   UNK A   0      -4.338   2.660 -20.986  0.00  0.00    +0.007 A 
ATOM     10  C   UNK A   0      -5.587   2.654 -21.341  0.00  0.00    +0.000 A 
ATOM     11  C   UNK A   0      -5.946   3.198 -22.466  0.00  0.00    +0.000 A 
ATOM     12  C   UNK A   0      -5.055   3.749 -23.236  0.00  0.00    +0.000 A 
ATOM     13  C   UNK A   0      -3.804   3.755 -22.880  0.00  0.00    +0.007 A 
ENDBRANCH   7   8
ENDBRANCH   6   7
ENDBRANCH   3   6
ENDBRANCH   1   4
BRANCH   1  14
ATOM     14  C   TYR A   1       1.352   4.050 -24.274  0.00  0.00    +0.062 C 
ATOM     15  OXT TYR A   1       1.327   3.872 -25.561  0.00  0.00    -0.548 OA
ATOM     16  O   TYR A   1       1.309   5.254 -23.785  0.00  0.00    -0.548 OA
ENDBRANCH   1  14
BRANCH   1  17
ATOM     17  CB  TYR A   1       2.334   2.120 -23.658  0.00  0.00    +0.063 C 
BRANCH  17  18
ATOM     18  CG  TYR A   1       3.169   1.838 -22.704  0.00  0.00    -0.045 A 
ATOM     19  CD2 TYR A   1       4.174   2.626 -22.465  0.00  0.00    +0.007 A 
ATOM     20  CE2 TYR A   1       5.011   2.345 -21.510  0.00  0.00    +0.045 A 
ATOM     21  CZ  TYR A   1       4.841   1.273 -20.794  0.00  0.00    +0.117 A 
ATOM     22  CE1 TYR A   1       3.836   0.484 -21.032  0.00  0.00    +0.045 A 
ATOM     23  CD1 TYR A   1       2.999   0.766 -21.988  0.00  0.00    +0.007 A 
BRANCH  21  24
ATOM     24  OH  TYR A   1       5.676   0.990 -19.839  0.00  0.00    -0.507 OA
ATOM     25  HH  TYR A   1       5.851   0.096 -19.619  0.00  0.00    +0.292 HD
ENDBRANCH  21  24
ENDBRANCH  17  18
ENDBRANCH   1  17
TORSDOF 8
ENDMDL
