MODEL 1
REMARK VINA RESULT:   -11.749      0.000      0.000
REMARK INTER + INTRA:         -12.093
REMARK INTER:                 -12.093
REMARK INTRA:                   0.000
REMARK UNBOUND:                 0.000
REMARK  Name = ZINC000003983872
REMARK  3 active torsions:
REMARK  status: ('A' for Active; 'I' for Inactive)
REMARK    1  A    between atoms: C_1  and  C_2
REMARK    2  A    between atoms: C_15  and  C_16
REMARK    3  A    between atoms: C_20  and  O_21
REMARK                            x       y       z     vdW  Elec       q    Type
REMARK                         _______ _______ _______ _____ _____    ______ ____
ROOT
ATOM      1  C   UNL     1      -4.914   3.140 -21.959  0.00  0.00    +0.014 C 
ATOM      2  C   UNL     1      -4.003   3.318 -22.870  0.00  0.00    -0.003 C 
ATOM      3  C   UNL     1      -3.565   2.744 -21.788  0.00  0.00    +0.010 C 
ATOM      4  C   UNL     1      -2.314   2.405 -21.693  0.00  0.00    +0.005 C 
ATOM      5  C   UNL     1      -1.500   2.640 -22.680  0.00  0.00    +0.002 C 
ATOM      6  C   UNL     1      -1.938   3.214 -23.761  0.00  0.00    -0.003 C 
ATOM      7  C   UNL     1      -1.125   3.448 -24.748  0.00  0.00    +0.008 C 
ATOM      8  C   UNL     1       0.127   3.109 -24.653  0.00  0.00    +0.032 C 
ATOM      9  C   UNL     1       0.565   2.536 -23.572  0.00  0.00    -0.060 C 
ATOM     10  C   UNL     1       1.816   2.197 -23.478  0.00  0.00    +0.046 C 
ATOM     11  C   UNL     1       2.254   1.623 -22.396  0.00  0.00    +0.156 C 
ATOM     12  C   UNL     1       1.440   1.388 -21.410  0.00  0.00    +0.080 C 
ATOM     13  C   UNL     1       0.189   1.727 -21.504  0.00  0.00    +0.019 C 
ATOM     14  O   UNL     1       3.505   1.284 -22.302  0.00  0.00    -0.293 OA
ATOM     15  C   UNL     1      -0.249   2.301 -22.586  0.00  0.00    -0.007 C 
ATOM     16  C   UNL     1      -1.063   2.066 -21.599  0.00  0.00    +0.016 C 
ATOM     17  C   UNL     1      -5.182   3.747 -23.210  0.00  0.00    +0.121 C 
ATOM     18  C   UNL     1      -5.098   4.246 -24.408  0.00  0.00    +0.032 C 
ATOM     19  C   UNL     1      -3.867   4.126 -24.807  0.00  0.00    +0.007 C 
ATOM     20  C   UNL     1      -3.190   3.553 -23.856  0.00  0.00    +0.001 C 
ENDROOT
BRANCH  17  21
ATOM     21  O   UNL     1      -6.258   3.686 -22.482  0.00  0.00    -0.391 OA
ATOM     22  H   UNL     1      -6.880   4.373 -22.767  0.00  0.00    +0.210 HD
ENDBRANCH  17  21
TORSDOF 1
ENDMDL
