MODEL 1
REMARK VINA RESULT:   -11.975      0.000      0.000
REMARK INTER + INTRA:         -15.184
REMARK INTER:                 -14.329
REMARK INTRA:                  -0.855
REMARK UNBOUND:                -1.109
REMARK  Name = COc1ccc2c(c1Oc1ccccc1)[C@]13CC=CC=C1[C@@H](C2)NCC3                   ZINC000100393745
REMARK  4 active torsions:
REMARK  status: ('A' for Active; 'I' for Inactive)
REMARK    1  A    between atoms: C_1  and  O_2
REMARK    2  A    between atoms: O_2  and  C_3
REMARK    3  A    between atoms: C_8  and  O_9
REMARK    4  A    between atoms: O_9  and  C_10
REMARK                            x       y       z     vdW  Elec       q    Type
REMARK                         _______ _______ _______ _____ _____    ______ ____
ROOT
ATOM      1  C   UNL     1      -2.190   2.659 -21.455  0.00  0.00    +0.162 A 
ATOM      2  C   UNL     1      -3.204   2.778 -20.722  0.00  0.00    +0.050 A 
ATOM      3  C   UNL     1      -4.296   3.106 -21.247  0.00  0.00    +0.008 A 
ATOM      4  C   UNL     1      -4.348   3.336 -22.676  0.00  0.00    -0.034 A 
ATOM      5  C   UNL     1      -3.466   3.220 -23.231  0.00  0.00    +0.013 A 
ATOM      6  C   UNL     1      -3.284   3.320 -24.150  0.00  0.00    +0.034 C 
ATOM      7  C   UNL     1      -2.203   3.173 -24.798  0.00  0.00    +0.043 C 
ATOM      8  C   UNL     1      -2.189   3.365 -26.076  0.00  0.00    -0.026 C 
ATOM      9  C   UNL     1      -3.289   3.712 -26.711  0.00  0.00    -0.004 C 
ATOM     10  C   UNL     1      -4.418   3.871 -26.078  0.00  0.00    +0.005 C 
ATOM     11  C   UNL     1      -3.431   3.099 -22.487  0.00  0.00    +0.067 C 
ATOM     12  C   UNL     1      -4.753   3.297 -21.822  0.00  0.00    +0.131 C 
ATOM     13  N   UNL     1      -5.684   3.612 -22.498  0.00  0.00    +0.233 N 
ATOM     14  H   UNL     1      -5.886   4.556 -22.170  0.00  0.00    +0.202 HD
ATOM     15  H   UNL     1      -6.392   2.889 -22.368  0.00  0.00    +0.202 HD
ATOM     16  C   UNL     1      -5.536   3.814 -24.042  0.00  0.00    +0.095 C 
ATOM     17  C   UNL     1      -4.469   3.692 -24.831  0.00  0.00    -0.011 C 
ATOM     18  C   UNL     1      -5.396   3.644 -23.135  0.00  0.00    +0.094 C 
ATOM     19  C   UNL     1      -2.305   2.878 -22.711  0.00  0.00    +0.174 A 
ENDROOT
BRANCH   1  21
ATOM     20  C   UNL     1      -0.470   1.183 -21.227  0.00  0.00    +0.277 C 
ATOM     21  O   UNL     1      -0.998   2.321 -21.009  0.00  0.00    -0.491 OA
ENDBRANCH   1  21
BRANCH  19  22
ATOM     22  O   UNL     1      -1.236   2.802 -23.806  0.00  0.00    -0.452 OA
BRANCH  22  23
ATOM     23  C   UNL     1       0.044   3.331 -23.900  0.00  0.00    +0.129 A 
ATOM     24  C   UNL     1       0.195   4.546 -23.512  0.00  0.00    +0.046 A 
ATOM     25  C   UNL     1       1.353   5.096 -23.572  0.00  0.00    +0.004 A 
ATOM     26  C   UNL     1       2.355   4.436 -24.017  0.00  0.00    +0.000 A 
ATOM     27  C   UNL     1       2.206   3.220 -24.406  0.00  0.00    +0.004 A 
ATOM     28  C   UNL     1       1.049   2.669 -24.346  0.00  0.00    +0.046 A 
ENDBRANCH  22  23
ENDBRANCH  19  22
TORSDOF 3
ENDMDL
