MODEL 1
REMARK VINA RESULT:    -8.860      0.000      0.000
REMARK INTER + INTRA:         -11.316
REMARK INTER:                 -11.045
REMARK INTRA:                  -0.271
REMARK UNBOUND:                -0.126
REMARK  Name = CN1[C@H]2CC[C@H]1CC(OC(=O)[C@H](O)c1ccccc1)C2                        ZINC000100012021
REMARK  6 active torsions:
REMARK  status: ('A' for Active; 'I' for Inactive)
REMARK    1  A    between atoms: C_1  and  N_2
REMARK    2  A    between atoms: C_8  and  O_9
REMARK    3  A    between atoms: O_9  and  C_10
REMARK    4  A    between atoms: C_10  and  C_12
REMARK    5  A    between atoms: C_12  and  O_13
REMARK    6  A    between atoms: C_12  and  C_14
REMARK                            x       y       z     vdW  Elec       q    Type
REMARK                         _______ _______ _______ _____ _____    ______ ____
ROOT
ATOM      1  O   UNL     1      -0.875   3.541 -22.798  0.00  0.00    -0.459 OA
ENDROOT
BRANCH   1   9
ATOM      2  C   UNL     1      -3.128   3.514 -22.842  0.00  0.00    +0.191 C 
ATOM      3  N   UNL     1      -3.885   3.506 -22.859  0.00  0.00    +0.238 N 
ATOM      4  H   UNL     1      -4.904   3.494 -22.881  0.00  0.00    +0.204 HD
ATOM      5  C   UNL     1      -4.211   3.768 -23.753  0.00  0.00    +0.068 C 
ATOM      6  C   UNL     1      -5.549   3.684 -23.552  0.00  0.00    +0.060 C 
ATOM      7  C   UNL     1      -5.573   3.289 -22.238  0.00  0.00    +0.060 C 
ATOM      8  C   UNL     1      -3.070   3.910 -24.156  0.00  0.00    +0.099 C 
ATOM      9  C   UNL     1      -2.154   3.525 -22.821  0.00  0.00    +0.187 C 
ATOM     10  C   UNL     1      -3.118   3.120 -21.527  0.00  0.00    +0.099 C 
ATOM     11  C   UNL     1      -4.243   3.235 -21.979  0.00  0.00    +0.068 C 
ENDBRANCH   1   9
BRANCH   1  12
ATOM     12  C   UNL     1      -0.252   2.574 -23.394  0.00  0.00    +0.341 C 
ATOM     13  O   UNL     1      -0.489   1.291 -23.035  0.00  0.00    -0.248 OA
BRANCH  12  14
ATOM     14  C   UNL     1       0.598   2.859 -24.335  0.00  0.00    +0.253 C 
BRANCH  14  15
ATOM     15  C   UNL     1       1.871   3.079 -24.040  0.00  0.00    -0.008 A 
ATOM     16  C   UNL     1       2.808   2.118 -24.211  0.00  0.00    +0.007 A 
ATOM     17  C   UNL     1       4.099   2.368 -23.902  0.00  0.00    +0.000 A 
ATOM     18  C   UNL     1       4.458   3.580 -23.421  0.00  0.00    +0.000 A 
ATOM     19  C   UNL     1       3.521   4.541 -23.250  0.00  0.00    +0.000 A 
ATOM     20  C   UNL     1       2.231   4.292 -23.559  0.00  0.00    +0.007 A 
ENDBRANCH  14  15
BRANCH  14  21
ATOM     21  O   UNL     1       0.174   2.929 -25.618  0.00  0.00    -0.376 OA
ATOM     22  H   UNL     1      -0.177   3.817 -25.795  0.00  0.00    +0.211 HD
ENDBRANCH  14  21
ENDBRANCH  12  14
ENDBRANCH   1  12
TORSDOF 5
ENDMDL
