MODEL 1
REMARK VINA RESULT:   -10.043      0.000      0.000
REMARK INTER + INTRA:         -11.494
REMARK INTER:                 -11.190
REMARK INTRA:                  -0.304
REMARK UNBOUND:                -0.277
REMARK  Name = COc1cc2c(cc1OC)[C@]13CCN[C@@H](C2)[C@@H]1CCC(=O)C3                   ZINC000100393755
REMARK  4 active torsions:
REMARK  status: ('A' for Active; 'I' for Inactive)
REMARK    1  A    between atoms: C_1  and  O_2
REMARK    2  A    between atoms: O_2  and  C_3
REMARK    3  A    between atoms: C_8  and  O_9
REMARK    4  A    between atoms: O_9  and  C_10
REMARK                            x       y       z     vdW  Elec       q    Type
REMARK                         _______ _______ _______ _____ _____    ______ ____
ROOT
ATOM      1  C   UNL     1       0.581   2.139 -22.993  0.00  0.00    +0.162 A 
ATOM      2  C   UNL     1      -0.261   1.952 -22.066  0.00  0.00    +0.053 A 
ATOM      3  C   UNL     1      -1.643   2.395 -22.263  0.00  0.00    -0.035 A 
ATOM      4  C   UNL     1      -1.897   2.858 -23.177  0.00  0.00    -0.033 A 
ATOM      5  C   UNL     1      -2.717   3.211 -23.502  0.00  0.00    +0.015 C 
ATOM      6  C   UNL     1      -1.175   2.632 -23.084  0.00  0.00    +0.063 C 
ATOM      7  C   UNL     1      -0.953   1.989 -21.741  0.00  0.00    +0.130 C 
ATOM      8  N   UNL     1      -1.887   1.902 -20.991  0.00  0.00    +0.230 N 
ATOM      9  H   UNL     1      -2.040   0.895 -20.943  0.00  0.00    +0.202 HD
ATOM     10  H   UNL     1      -1.620   2.396 -20.139  0.00  0.00    +0.202 HD
ATOM     11  C   UNL     1      -3.314   2.444 -21.390  0.00  0.00    +0.071 C 
ATOM     12  C   UNL     1      -3.001   3.771 -24.618  0.00  0.00    +0.086 C 
ATOM     13  C   UNL     1      -4.218   4.184 -24.845  0.00  0.00    +0.134 C 
ATOM     14  O   UNL     1      -4.504   4.749 -25.971  0.00  0.00    -0.297 OA
ATOM     15  C   UNL     1      -5.165   4.028 -23.927  0.00  0.00    +0.075 C 
ATOM     16  C   UNL     1      -4.911   3.458 -22.770  0.00  0.00    +0.017 C 
ATOM     17  C   UNL     1      -3.733   3.043 -22.514  0.00  0.00    +0.049 C 
ATOM     18  C   UNL     1      -1.033   3.068 -24.169  0.00  0.00    +0.054 A 
ATOM     19  C   UNL     1      -2.406   2.200 -21.366  0.00  0.00    +0.090 C 
ATOM     20  C   UNL     1       0.202   2.702 -24.059  0.00  0.00    +0.162 A 
ENDROOT
BRANCH   1  22
ATOM     21  C   UNL     1       2.676   2.266 -22.063  0.00  0.00    +0.277 C 
ATOM     22  O   UNL     1       1.857   1.779 -22.920  0.00  0.00    -0.491 OA
ENDBRANCH   1  22
BRANCH  20  23
ATOM     23  O   UNL     1       1.026   2.913 -25.028  0.00  0.00    -0.491 OA
ATOM     24  C   UNL     1       1.156   4.110 -25.508  0.00  0.00    +0.277 C 
ENDBRANCH  20  23
TORSDOF 2
ENDMDL
