MODEL 1
REMARK VINA RESULT:   -12.107      0.000      0.000
REMARK INTER + INTRA:         -12.461
REMARK INTER:                 -12.461
REMARK INTRA:                   0.000
REMARK UNBOUND:                 0.000
REMARK  Name = ZINC000004104753
REMARK  3 active torsions:
REMARK  status: ('A' for Active; 'I' for Inactive)
REMARK    1  A    between atoms: C_1  and  C_2
REMARK    2  A    between atoms: C_16  and  C_17
REMARK    3  A    between atoms: C_21  and  O_22
REMARK                            x       y       z     vdW  Elec       q    Type
REMARK                         _______ _______ _______ _____ _____    ______ ____
ROOT
ATOM      1  C   UNL     1      -4.927   3.137 -21.944  0.00  0.00    +0.014 C 
ATOM      2  C   UNL     1      -4.010   3.319 -22.846  0.00  0.00    -0.003 C 
ATOM      3  C   UNL     1      -3.578   2.750 -21.760  0.00  0.00    +0.010 C 
ATOM      4  C   UNL     1      -2.325   2.419 -21.653  0.00  0.00    +0.005 C 
ATOM      5  C   UNL     1      -1.504   2.657 -22.633  0.00  0.00    -0.001 C 
ATOM      6  C   UNL     1      -1.936   3.226 -23.719  0.00  0.00    +0.003 C 
ATOM      7  C   UNL     1      -1.116   3.464 -24.699  0.00  0.00    +0.078 C 
ATOM      8  C   UNL     1       0.137   3.133 -24.592  0.00  0.00    +0.138 C 
ATOM      9  C   UNL     1       0.569   2.564 -23.506  0.00  0.00    +0.068 C 
ATOM     10  C   UNL     1       1.821   2.233 -23.399  0.00  0.00    +0.086 C 
ATOM     11  C   UNL     1       2.253   1.665 -22.313  0.00  0.00    +0.134 C 
ATOM     12  C   UNL     1       1.433   1.427 -21.333  0.00  0.00    +0.075 C 
ATOM     13  C   UNL     1       0.180   1.757 -21.439  0.00  0.00    +0.015 C 
ATOM     14  O   UNL     1       3.506   1.334 -22.206  0.00  0.00    -0.297 OA
ATOM     15  O   UNL     1       0.958   3.371 -25.572  0.00  0.00    -0.297 OA
ATOM     16  C   UNL     1      -0.252   2.327 -22.526  0.00  0.00    -0.019 C 
ATOM     17  C   UNL     1      -1.073   2.089 -21.546  0.00  0.00    +0.012 C 
ATOM     18  C   UNL     1      -5.188   3.739 -23.199  0.00  0.00    +0.121 C 
ATOM     19  C   UNL     1      -5.096   4.237 -24.396  0.00  0.00    +0.032 C 
ATOM     20  C   UNL     1      -3.861   4.124 -24.784  0.00  0.00    +0.007 C 
ATOM     21  C   UNL     1      -3.189   3.557 -23.826  0.00  0.00    +0.001 C 
ENDROOT
BRANCH  18  22
ATOM     22  O   UNL     1      -6.270   3.674 -22.480  0.00  0.00    -0.391 OA
ATOM     23  H   UNL     1      -6.245   2.875 -21.931  0.00  0.00    +0.210 HD
ENDBRANCH  18  22
TORSDOF 1
ENDMDL
