MODEL 1
REMARK VINA RESULT:   -12.116      0.000      0.000
REMARK INTER + INTRA:          -9.649
REMARK INTER:                 -12.833
REMARK INTRA:                   3.184
REMARK UNBOUND:                 3.175
REMARK  Name = ZINC000004104852
REMARK  4 active torsions:
REMARK  status: ('A' for Active; 'I' for Inactive)
REMARK    1  A    between atoms: C_1  and  C_2
REMARK    2  A    between atoms: C_2  and  C_4
REMARK    3  A    between atoms: C_16  and  C_17
REMARK    4  A    between atoms: C_21  and  C_22
REMARK                            x       y       z     vdW  Elec       q    Type
REMARK                         _______ _______ _______ _____ _____    ______ ____
ROOT
ATOM      1  C   UNL     1       1.840   2.177 -22.964  0.00  0.00    +0.061 C 
ATOM      2  C   UNL     1       2.009   2.708 -24.139  0.00  0.00    +0.012 C 
ATOM      3  C   UNL     1       0.855   3.130 -24.560  0.00  0.00    +0.005 C 
ATOM      4  C   UNL     1      -0.029   2.860 -23.645  0.00  0.00    -0.001 C 
ATOM      5  C   UNL     1      -1.309   3.075 -23.584  0.00  0.00    -0.004 C 
ATOM      6  C   UNL     1      -1.919   3.664 -24.570  0.00  0.00    +0.004 C 
ATOM      7  C   UNL     1      -3.199   3.879 -24.508  0.00  0.00    +0.005 C 
ATOM      8  C   UNL     1      -3.871   3.505 -23.459  0.00  0.00    -0.001 C 
ATOM      9  C   UNL     1      -5.152   3.719 -23.397  0.00  0.00    +0.031 C 
ATOM     10  C   UNL     1      -5.824   3.346 -22.349  0.00  0.00    -0.031 C 
ATOM     11  C   UNL     1      -5.215   2.757 -21.363  0.00  0.00    -0.030 C 
ATOM     12  C   UNL     1      -3.934   2.542 -21.425  0.00  0.00    +0.034 C 
ATOM     13  C   UNL     1      -3.263   2.916 -22.474  0.00  0.00    -0.022 C 
ATOM     14  C   UNL     1      -2.653   2.328 -21.487  0.00  0.00    +0.012 C 
ATOM     15  C   UNL     1      -1.982   2.702 -22.536  0.00  0.00    -0.001 C 
ATOM     16  C   UNL     1      -1.373   2.113 -21.549  0.00  0.00    +0.005 C 
ATOM     17  C   UNL     1      -0.092   1.898 -21.611  0.00  0.00    +0.008 C 
ATOM     18  C   UNL     1       0.579   2.272 -22.659  0.00  0.00    -0.019 C 
ATOM     19  C   UNL     1       1.303   1.696 -21.745  0.00  0.00    +0.012 C 
ENDROOT
BRANCH   1  21
ATOM     20  C   UNL     1       3.067   0.388 -22.360  0.00  0.00    +0.086 C 
ATOM     21  C   UNL     1       2.767   1.646 -22.225  0.00  0.00    +0.134 C 
ATOM     22  O   UNL     1       3.396   2.373 -21.348  0.00  0.00    -0.297 OA
ENDBRANCH   1  21
TORSDOF 1
ENDMDL
