MODEL 1
REMARK VINA RESULT:   -10.951      0.000      0.000
REMARK INTER + INTRA:         -11.591
REMARK INTER:                 -11.591
REMARK INTRA:                   0.000
REMARK UNBOUND:                 0.000
REMARK  Name = ZINC000013520815
REMARK  3 active torsions:
REMARK  status: ('A' for Active; 'I' for Inactive)
REMARK    1  A    between atoms: C_1  and  C_2
REMARK    2  A    between atoms: C_9  and  O_10
REMARK    3  A    between atoms: C_19  and  O_20
REMARK                            x       y       z     vdW  Elec       q    Type
REMARK                         _______ _______ _______ _____ _____    ______ ____
ROOT
ATOM      1  C   UNL     1      -4.534   3.815 -23.889  0.00  0.00    +0.014 C 
ATOM      2  C   UNL     1      -3.684   3.269 -23.071  0.00  0.00    -0.003 C 
ATOM      3  C   UNL     1      -3.174   3.594 -24.222  0.00  0.00    +0.010 C 
ATOM      4  C   UNL     1      -1.919   3.365 -24.466  0.00  0.00    +0.009 C 
ATOM      5  C   UNL     1      -1.171   2.810 -23.558  0.00  0.00    +0.023 C 
ATOM      6  C   UNL     1       0.085   2.581 -23.801  0.00  0.00    -0.041 A 
ATOM      7  C   UNL     1       0.594   2.906 -24.952  0.00  0.00    +0.008 A 
ATOM      8  C   UNL     1       1.850   2.677 -25.196  0.00  0.00    +0.046 A 
ATOM      9  C   UNL     1       2.598   2.122 -24.288  0.00  0.00    +0.117 A 
ATOM     10  C   UNL     1       2.088   1.796 -23.137  0.00  0.00    +0.049 A 
ATOM     11  C   UNL     1       0.832   2.026 -22.894  0.00  0.00    -0.040 A 
ATOM     12  C   UNL     1       0.323   1.700 -21.743  0.00  0.00    +0.036 C 
ATOM     13  C   UNL     1      -0.934   1.930 -21.499  0.00  0.00    +0.009 C 
ATOM     14  C   UNL     1      -1.680   2.484 -22.406  0.00  0.00    +0.000 C 
ATOM     15  C   UNL     1      -4.884   3.388 -22.586  0.00  0.00    +0.121 C 
ATOM     16  C   UNL     1      -4.879   2.906 -21.378  0.00  0.00    +0.032 C 
ATOM     17  C   UNL     1      -3.675   2.490 -21.117  0.00  0.00    +0.007 C 
ATOM     18  C   UNL     1      -2.937   2.714 -22.163  0.00  0.00    +0.001 C 
ENDROOT
BRANCH   9  19
ATOM     19  O   UNL     1       3.854   1.892 -24.532  0.00  0.00    -0.507 OA
ATOM     20  H   UNL     1       4.486   1.973 -23.847  0.00  0.00    +0.292 HD
ENDBRANCH   9  19
BRANCH  15  21
ATOM     21  O   UNL     1      -5.909   3.898 -23.200  0.00  0.00    -0.391 OA
ATOM     22  H   UNL     1      -5.963   3.534 -24.097  0.00  0.00    +0.210 HD
ENDBRANCH  15  21
TORSDOF 2
ENDMDL
