MODEL 1
REMARK VINA RESULT:    -8.719      0.000      0.000
REMARK INTER + INTRA:          -8.906
REMARK INTER:                  -9.224
REMARK INTRA:                   0.319
REMARK UNBOUND:                 0.323
REMARK  Name = ZINC000000900237
REMARK  2 active torsions:
REMARK  status: ('A' for Active; 'I' for Inactive)
REMARK    1  A    between atoms: C_1  and  O_2
REMARK    2  A    between atoms: O_2  and  C_3
REMARK                            x       y       z     vdW  Elec       q    Type
REMARK                         _______ _______ _______ _____ _____    ______ ____
ROOT
ATOM      1  C   UNL     1      -2.374   3.339 -23.610  0.00  0.00    +0.142 A 
ATOM      2  C   UNL     1      -1.372   2.764 -23.012  0.00  0.00    +0.047 A 
ATOM      3  C   UNL     1      -0.189   2.797 -23.549  0.00  0.00    +0.063 A 
ATOM      4  C   UNL     1       0.812   2.223 -22.951  0.00  0.00    +0.167 A 
ATOM      5  C   UNL     1       0.630   1.616 -21.815  0.00  0.00    +0.168 A 
ATOM      6  O   UNL     1       1.773   1.131 -21.431  0.00  0.00    -0.453 OA
ATOM      7  C   UNL     1       2.662   1.438 -22.329  0.00  0.00    +0.466 C 
ATOM      8  C   UNL     1      -0.553   1.584 -21.278  0.00  0.00    +0.078 A 
ATOM      9  O   UNL     1       2.067   2.113 -23.268  0.00  0.00    -0.453 OA
ATOM     10  C   UNL     1      -1.555   2.158 -21.876  0.00  0.00    +0.082 A 
ATOM     11  N   UNL     1      -2.738   2.126 -21.339  0.00  0.00    -0.212 NA
ATOM     12  C   UNL     1      -3.739   2.700 -21.938  0.00  0.00    +0.231 A 
ATOM     13  O   UNL     1      -4.996   2.810 -21.620  0.00  0.00    -0.445 OA
ATOM     14  C   UNL     1      -5.589   3.484 -22.559  0.00  0.00    +0.198 A 
ATOM     15  C   UNL     1      -4.701   3.791 -23.457  0.00  0.00    +0.055 A 
ATOM     16  C   UNL     1      -3.557   3.306 -23.073  0.00  0.00    +0.082 A 
ENDROOT
BRANCH   1  18
ATOM     17  C   UNL     1      -2.491   3.344 -25.858  0.00  0.00    +0.277 C 
ATOM     18  O   UNL     1      -2.192   3.945 -24.745  0.00  0.00    -0.494 OA
ENDBRANCH   1  18
TORSDOF 1
ENDMDL
