MODEL 1
REMARK VINA RESULT:    -9.796      0.000      0.000
REMARK INTER + INTRA:         -11.437
REMARK INTER:                 -11.665
REMARK INTRA:                   0.228
REMARK UNBOUND:                 1.221
REMARK  Name = ZINC000096316364
REMARK  8 active torsions:
REMARK  status: ('A' for Active; 'I' for Inactive)
REMARK    1  A    between atoms: C_1  and  O_2
REMARK    2  A    between atoms: O_2  and  C_3
REMARK    3  A    between atoms: C_5  and  C_6
REMARK    4  A    between atoms: C_6  and  C_7
REMARK    5  A    between atoms: C_10  and  O_11
REMARK    6  A    between atoms: C_12  and  O_13
REMARK    7  A    between atoms: O_13  and  C_14
REMARK    8  A    between atoms: C_24  and  O_25
REMARK                            x       y       z     vdW  Elec       q    Type
REMARK                         _______ _______ _______ _____ _____    ______ ____
ROOT
ATOM      1  C   UNL     1       0.659   2.295 -23.111  0.00  0.00    +0.111 C 
ATOM      2  C   UNL     1      -0.513   2.570 -23.602  0.00  0.00    -0.020 A 
ATOM      3  C   UNL     1      -0.619   3.022 -24.816  0.00  0.00    +0.055 A 
ATOM      4  C   UNL     1      -1.791   3.297 -25.307  0.00  0.00    +0.159 A 
ATOM      5  C   UNL     1      -2.857   3.119 -24.584  0.00  0.00    +0.162 A 
ATOM      6  C   UNL     1      -2.751   2.666 -23.370  0.00  0.00    +0.053 A 
ATOM      7  C   UNL     1      -1.579   2.392 -22.879  0.00  0.00    -0.037 A 
ATOM      8  C   UNL     1      -1.472   1.939 -21.665  0.00  0.00    +0.054 C 
ATOM      9  C   UNL     1      -0.300   1.665 -21.174  0.00  0.00    +0.113 C 
ATOM     10  N   UNL     1       0.765   1.843 -21.897  0.00  0.00    -0.296 N 
ATOM     11  C   UNL     1       1.938   1.568 -21.405  0.00  0.00    +0.328 C 
ATOM     12  O   UNL     1       2.044   1.116 -20.192  0.00  0.00    -0.279 OA
ENDROOT
BRANCH   5  13
ATOM     13  O   UNL     1      -4.028   3.393 -25.075  0.00  0.00    -0.491 OA
ATOM     14  C   UNL     1      -4.842   4.167 -24.421  0.00  0.00    +0.277 C 
ENDBRANCH   5  13
BRANCH   4  15
ATOM     15  O   UNL     1      -1.897   3.749 -26.521  0.00  0.00    -0.503 OA
ATOM     16  H   UNL     1      -2.665   4.219 -26.780  0.00  0.00    +0.292 HD
ENDBRANCH   4  15
BRANCH   1  17
ATOM     17  C   UNL     1       1.725   2.473 -23.834  0.00  0.00    +0.062 C 
BRANCH  17  20
ATOM     18  C   UNL     1       4.681   4.115 -23.205  0.00  0.00    +0.162 A 
ATOM     19  C   UNL     1       3.841   3.170 -23.507  0.00  0.00    +0.053 A 
ATOM     20  C   UNL     1       2.565   3.418 -23.532  0.00  0.00    -0.042 A 
ATOM     21  C   UNL     1       2.129   4.611 -23.254  0.00  0.00    +0.007 A 
ATOM     22  C   UNL     1       2.969   5.556 -22.952  0.00  0.00    +0.049 A 
ATOM     23  C   UNL     1       4.245   5.308 -22.927  0.00  0.00    +0.158 A 
BRANCH  18  25
ATOM     24  C   UNL     1       6.418   2.908 -22.434  0.00  0.00    +0.277 C 
ATOM     25  O   UNL     1       5.957   3.868 -23.180  0.00  0.00    -0.491 OA
ENDBRANCH  18  25
BRANCH  23  26
ATOM     26  O   UNL     1       5.085   6.253 -22.625  0.00  0.00    -0.503 OA
ATOM     27  H   UNL     1       4.782   7.031 -22.201  0.00  0.00    +0.292 HD
ENDBRANCH  23  26
ENDBRANCH  17  20
ENDBRANCH   1  17
TORSDOF 6
ENDMDL
