MODEL 1
REMARK VINA RESULT:   -10.849      0.000      0.000
REMARK INTER + INTRA:         -11.580
REMARK INTER:                 -11.481
REMARK INTRA:                  -0.099
REMARK UNBOUND:                -0.096
REMARK  Name = COc1ccc2c(c1)[C@@]13CCN(C)[C@H](C2)[C@@H]1[C@@H](C)CC(=O)C3          ZINC000100393709
REMARK  4 active torsions:
REMARK  status: ('A' for Active; 'I' for Inactive)
REMARK    1  A    between atoms: C_1  and  O_2
REMARK    2  A    between atoms: O_2  and  C_3
REMARK    3  A    between atoms: N_12  and  C_13
REMARK    4  A    between atoms: C_17  and  C_18
REMARK                            x       y       z     vdW  Elec       q    Type
REMARK                         _______ _______ _______ _____ _____    ______ ____
ROOT
ATOM      1  C   UNL     1       0.144   3.899 -23.950  0.00  0.00    +0.120 A 
ATOM      2  C   UNL     1      -0.096   3.830 -25.193  0.00  0.00    +0.046 A 
ATOM      3  C   UNL     1      -1.295   3.695 -25.576  0.00  0.00    +0.008 A 
ATOM      4  C   UNL     1      -2.366   3.621 -24.571  0.00  0.00    -0.038 A 
ATOM      5  C   UNL     1      -2.091   3.685 -23.549  0.00  0.00    -0.033 A 
ATOM      6  C   UNL     1      -2.615   3.660 -22.755  0.00  0.00    +0.016 C 
ATOM      7  C   UNL     1      -1.524   3.726 -24.037  0.00  0.00    +0.063 C 
ATOM      8  C   UNL     1      -2.030   3.625 -25.417  0.00  0.00    +0.132 C 
ATOM      9  N   UNL     1      -3.185   3.501 -25.600  0.00  0.00    +0.236 N 
ATOM     10  H   UNL     1      -4.184   3.406 -25.419  0.00  0.00    +0.203 HD
ATOM     11  C   UNL     1      -4.226   3.438 -24.407  0.00  0.00    +0.073 C 
ATOM     12  C   UNL     1      -3.005   3.471 -26.990  0.00  0.00    +0.190 C 
ATOM     13  C   UNL     1      -2.298   3.735 -21.540  0.00  0.00    +0.086 C 
ATOM     14  C   UNL     1      -3.217   3.674 -20.627  0.00  0.00    +0.134 C 
ATOM     15  O   UNL     1      -2.889   3.751 -19.387  0.00  0.00    -0.297 OA
ATOM     16  C   UNL     1      -4.485   3.533 -20.952  0.00  0.00    +0.078 C 
ATOM     17  C   UNL     1      -4.858   3.452 -22.192  0.00  0.00    +0.002 C 
ATOM     18  C   UNL     1      -6.101   3.314 -22.492  0.00  0.00    +0.008 C 
ATOM     19  C   UNL     1      -3.992   3.507 -23.106  0.00  0.00    +0.052 C 
ATOM     20  C   UNL     1      -3.566   3.485 -24.963  0.00  0.00    +0.090 C 
ATOM     21  C   UNL     1      -0.842   3.828 -23.117  0.00  0.00    +0.050 A 
ENDROOT
BRANCH   1  23
ATOM     22  C   UNL     1       2.284   4.861 -23.335  0.00  0.00    +0.277 C 
ATOM     23  O   UNL     1       1.329   4.045 -23.228  0.00  0.00    -0.495 OA
ENDBRANCH   1  23
TORSDOF 1
ENDMDL
