MODEL 1
REMARK VINA RESULT:    -9.521      0.000      0.000
REMARK INTER + INTRA:         -10.110
REMARK INTER:                 -11.018
REMARK INTRA:                   0.908
REMARK UNBOUND:                 1.081
REMARK  Name = COc1ccc2c3c1O[C@@H]1[C@H](OC(C)=O)C=C[C@H]4[C@@H](C2)N(C=O)CC[C@]314 ZINC000253504490
REMARK  5 active torsions:
REMARK  status: ('A' for Active; 'I' for Inactive)
REMARK    1  A    between atoms: C_1  and  O_2
REMARK    2  A    between atoms: O_2  and  C_3
REMARK    3  A    between atoms: C_11  and  O_12
REMARK    4  A    between atoms: O_12  and  C_13
REMARK    5  A    between atoms: C_13  and  C_14
REMARK                            x       y       z     vdW  Elec       q    Type
REMARK                         _______ _______ _______ _____ _____    ______ ____
ROOT
ATOM      1  C   UNL     1       1.699   2.253 -23.789  0.00  0.00    +0.162 A 
ATOM      2  C   UNL     1       1.964   1.781 -22.640  0.00  0.00    +0.050 A 
ATOM      3  C   UNL     1       1.066   1.688 -21.768  0.00  0.00    +0.008 A 
ATOM      4  C   UNL     1      -0.103   2.064 -22.034  0.00  0.00    -0.038 A 
ATOM      5  C   UNL     1      -0.390   2.537 -23.171  0.00  0.00    +0.012 A 
ATOM      6  C   UNL     1      -1.558   2.910 -23.429  0.00  0.00    +0.050 C 
ATOM      7  C   UNL     1      -2.850   3.368 -23.843  0.00  0.00    +0.035 C 
ATOM      8  C   UNL     1      -3.884   3.274 -22.880  0.00  0.00    +0.109 C 
ATOM      9  N   UNL     1      -3.552   2.744 -21.610  0.00  0.00    -0.300 N 
ATOM     10  C   UNL     1      -4.424   2.630 -20.699  0.00  0.00    +0.328 C 
ATOM     11  O   UNL     1      -4.119   2.157 -19.574  0.00  0.00    -0.279 OA
ATOM     12  C   UNL     1      -2.192   2.346 -21.413  0.00  0.00    +0.088 C 
ATOM     13  C   UNL     1      -2.459   2.818 -22.561  0.00  0.00    +0.047 C 
ATOM     14  C   UNL     1      -3.642   3.197 -22.824  0.00  0.00    -0.021 C 
ATOM     15  C   UNL     1      -3.910   3.664 -23.959  0.00  0.00    +0.017 C 
ATOM     16  C   UNL     1      -3.008   3.761 -24.845  0.00  0.00    +0.240 C 
ATOM     17  C   UNL     1      -1.839   3.386 -24.580  0.00  0.00    +0.229 C 
ATOM     18  O   UNL     1      -0.417   3.221 -25.080  0.00  0.00    -0.480 OA
ATOM     19  C   UNL     1      -1.023   1.971 -21.149  0.00  0.00    +0.058 C 
ATOM     20  C   UNL     1       0.514   2.632 -24.053  0.00  0.00    +0.167 A 
ENDROOT
BRANCH   1  22
ATOM     21  C   UNL     1       3.806   2.218 -24.330  0.00  0.00    +0.277 C 
ATOM     22  O   UNL     1       2.601   2.345 -24.658  0.00  0.00    -0.491 OA
ENDBRANCH   1  22
BRANCH  16  23
ATOM     23  O   UNL     1      -3.281   4.229 -25.977  0.00  0.00    -0.454 OA
BRANCH  23  24
ATOM     24  C   UNL     1      -3.742   3.478 -26.873  0.00  0.00    +0.305 C 
ATOM     25  O   UNL     1      -4.713   2.724 -26.621  0.00  0.00    -0.251 OA
ATOM     26  C   UNL     1      -3.230   3.481 -28.019  0.00  0.00    +0.136 C 
ENDBRANCH  23  24
ENDBRANCH  16  23
TORSDOF 3
ENDMDL
