MODEL 1
REMARK VINA RESULT:    -7.876      0.000      0.000
REMARK INTER + INTRA:          -8.408
REMARK INTER:                  -8.336
REMARK INTRA:                  -0.072
REMARK UNBOUND:                -0.072
REMARK  Name = ZINC000000338391
REMARK  3 active torsions:
REMARK  status: ('A' for Active; 'I' for Inactive)
REMARK    1  A    between atoms: C_1  and  O_2
REMARK    2  A    between atoms: O_2  and  C_3
REMARK    3  A    between atoms: C_7  and  C_8
REMARK                            x       y       z     vdW  Elec       q    Type
REMARK                         _______ _______ _______ _____ _____    ______ ____
ROOT
ATOM      1  C   UNL     1      -0.001   2.535 -22.962  0.00  0.00    +0.124 A 
ATOM      2  C   UNL     1      -0.372   2.109 -21.791  0.00  0.00    +0.046 A 
ATOM      3  C   UNL     1      -1.618   2.194 -21.431  0.00  0.00    +0.015 A 
ATOM      4  C   UNL     1      -2.494   2.708 -22.243  0.00  0.00    +0.022 A 
ATOM      5  C   UNL     1      -3.741   2.794 -21.883  0.00  0.00    -0.015 A 
ATOM      6  C   UNL     1      -4.617   3.307 -22.695  0.00  0.00    +0.129 A 
ATOM      7  C   UNL     1      -4.248   3.734 -23.865  0.00  0.00    +0.356 A 
ATOM      8  O   UNL     1      -3.001   3.648 -24.225  0.00  0.00    -0.421 OA
ATOM      9  O   UNL     1      -5.124   4.247 -24.677  0.00  0.00    -0.244 OA
ATOM     10 CL   UNL     1      -5.863   3.393 -22.335  0.00  0.00    -0.076 Cl
ATOM     11  C   UNL     1      -4.110   2.366 -20.712  0.00  0.00    +0.046 C 
ATOM     12  C   UNL     1      -2.124   3.135 -23.414  0.00  0.00    +0.143 A 
ATOM     13  C   UNL     1      -0.878   3.049 -23.773  0.00  0.00    +0.092 A 
ENDROOT
BRANCH   1  15
ATOM     14  C   UNL     1       2.159   2.182 -22.438  0.00  0.00    +0.277 C 
ATOM     15  O   UNL     1       1.245   2.450 -23.322  0.00  0.00    -0.495 OA
ENDBRANCH   1  15
TORSDOF 1
ENDMDL
