MODEL 1
REMARK VINA RESULT:   -12.181      0.000      0.000
REMARK INTER + INTRA:         -12.181
REMARK INTER:                 -12.181
REMARK INTRA:                   0.000
REMARK UNBOUND:                 0.000
REMARK  Name = ZINC000020470298
REMARK  0 active torsions:
REMARK  status: ('A' for Active; 'I' for Inactive)
REMARK                            x       y       z     vdW  Elec       q    Type
REMARK                         _______ _______ _______ _____ _____    ______ ____
ROOT
ATOM      1  C   UNL     1      -2.788   2.356 -21.372  0.00  0.00    +0.008 A 
ATOM      2  C   UNL     1      -4.013   2.744 -21.569  0.00  0.00    +0.050 A 
ATOM      3  C   UNL     1      -4.350   3.282 -22.703  0.00  0.00    +0.167 A 
ATOM      4  C   UNL     1      -3.462   3.434 -23.640  0.00  0.00    +0.175 A 
ATOM      5  O   UNL     1      -4.046   3.989 -24.661  0.00  0.00    -0.452 OA
ATOM      6  C   UNL     1      -5.294   4.181 -24.354  0.00  0.00    +0.466 C 
ATOM      7  C   UNL     1      -2.237   3.046 -23.443  0.00  0.00    +0.046 A 
ATOM      8  C   UNL     1      -1.349   3.197 -24.380  0.00  0.00    +0.172 C 
ATOM      9  N   UNL     1      -0.124   2.810 -24.184  0.00  0.00    +0.244 N 
ATOM     10  H   UNL     1       0.633   2.890 -24.862  0.00  0.00    +0.204 HD
ATOM     11  C   UNL     1       0.765   2.960 -25.121  0.00  0.00    +0.137 C 
ATOM     12  C   UNL     1       1.989   2.573 -24.924  0.00  0.00    +0.086 C 
ATOM     13  C   UNL     1       2.327   2.034 -23.789  0.00  0.00    -0.030 A 
ATOM     14  C   UNL     1       3.552   1.647 -23.593  0.00  0.00    +0.053 A 
ATOM     15  C   UNL     1       3.889   1.108 -22.459  0.00  0.00    +0.167 A 
ATOM     16  O   UNL     1       5.021   0.646 -22.017  0.00  0.00    -0.453 OA
ATOM     17  C   UNL     1       4.832   0.209 -20.807  0.00  0.00    +0.466 C 
ATOM     18  O   UNL     1       3.584   0.401 -20.501  0.00  0.00    -0.453 OA
ATOM     19  C   UNL     1       3.001   0.957 -21.521  0.00  0.00    +0.167 A 
ATOM     20  C   UNL     1       1.775   1.344 -21.718  0.00  0.00    +0.059 A 
ATOM     21  C   UNL     1       1.438   1.883 -22.852  0.00  0.00    +0.008 A 
ATOM     22  C   UNL     1       0.214   2.271 -23.049  0.00  0.00    +0.100 C 
ATOM     23  C   UNL     1      -0.675   2.120 -22.112  0.00  0.00    +0.095 C 
ATOM     24  O   UNL     1      -5.482   3.744 -23.144  0.00  0.00    -0.453 OA
ATOM     25  C   UNL     1      -1.900   2.507 -22.309  0.00  0.00    -0.030 A 
ENDROOT
TORSDOF 0
ENDMDL
