MODEL 1
REMARK VINA RESULT:    -9.768      0.000      0.000
REMARK INTER + INTRA:          -9.768
REMARK INTER:                  -9.768
REMARK INTRA:                   0.000
REMARK UNBOUND:                 0.000
REMARK  Name = ZINC000043162900
REMARK  2 active torsions:
REMARK  status: ('A' for Active; 'I' for Inactive)
REMARK    1  A    between atoms: C_9  and  C_10
REMARK    2  A    between atoms: C_14  and  C_15
REMARK                            x       y       z     vdW  Elec       q    Type
REMARK                         _______ _______ _______ _____ _____    ______ ____
ROOT
ATOM      1  C   UNL     1       0.176   2.618 -24.419  0.00  0.00    +0.020 C 
ATOM      2  C   UNL     1      -0.403   2.549 -23.257  0.00  0.00    +0.036 C 
ATOM      3  C   UNL     1       0.177   2.253 -22.131  0.00  0.00    +0.335 C 
ATOM      4  O   UNL     1      -0.724   2.285 -21.195  0.00  0.00    -0.455 OA
ATOM      5  C   UNL     1      -1.861   2.601 -21.742  0.00  0.00    +0.216 C 
ATOM      6  C   UNL     1      -3.051   2.761 -21.244  0.00  0.00    +0.192 C 
ATOM      7  O   UNL     1      -4.241   2.922 -20.747  0.00  0.00    -0.361 OA
ATOM      8  C   UNL     1      -4.042   3.085 -22.021  0.00  0.00    +0.097 C 
ATOM      9  C   UNL     1      -3.842   3.248 -23.294  0.00  0.00    +0.041 C 
ATOM     10  C   UNL     1      -4.834   3.572 -24.072  0.00  0.00    +0.030 C 
ATOM     11  C   UNL     1      -4.634   3.736 -25.346  0.00  0.00    -0.028 C 
ATOM     12  C   UNL     1      -3.444   3.575 -25.843  0.00  0.00    -0.077 C 
ATOM     13  C   UNL     1      -2.453   3.252 -25.067  0.00  0.00    +0.031 C 
ATOM     14  C   UNL     1      -2.652   3.088 -23.792  0.00  0.00    +0.016 C 
ATOM     15  C   UNL     1      -3.245   3.739 -27.117  0.00  0.00    +0.039 C 
ATOM     16  C   UNL     1      -5.301   3.365 -22.182  0.00  0.00    +0.044 C 
ATOM     17  O   UNL     1       1.436   1.973 -21.970  0.00  0.00    -0.245 OA
ATOM     18  C   UNL     1      -1.661   2.764 -23.016  0.00  0.00    +0.069 C 
ENDROOT
TORSDOF 0
ENDMDL
