MODEL 1
REMARK VINA RESULT:    -9.906      0.000      0.000
REMARK INTER + INTRA:         -10.196
REMARK INTER:                 -10.196
REMARK INTRA:                   0.000
REMARK UNBOUND:                 0.000
REMARK  Name = ZINC000005734433
REMARK  3 active torsions:
REMARK  status: ('A' for Active; 'I' for Inactive)
REMARK    1  A    between atoms: C_1  and  C_2
REMARK    2  A    between atoms: C_2  and  C_3
REMARK    3  A    between atoms: C_17  and  O_18
REMARK                            x       y       z     vdW  Elec       q    Type
REMARK                         _______ _______ _______ _____ _____    ______ ____
ROOT
ATOM      1  C   UNL     1      -4.855   3.162 -21.752  0.00  0.00    +0.056 C 
ATOM      2  C   UNL     1      -4.101   3.286 -22.803  0.00  0.00    +0.112 C 
ATOM      3  C   UNL     1      -3.740   3.563 -24.021  0.00  0.00    +0.127 C 
ATOM      4  C   UNL     1      -2.512   3.356 -24.397  0.00  0.00    +0.174 C 
ATOM      5  C   UNL     1      -1.647   2.873 -23.555  0.00  0.00    +0.101 A 
ATOM      6  C   UNL     1      -2.009   2.596 -22.338  0.00  0.00    +0.139 A 
ATOM      7  C   UNL     1      -1.145   2.113 -21.496  0.00  0.00    +0.093 A 
ATOM      8  C   UNL     1       0.083   1.907 -21.872  0.00  0.00    +0.146 A 
ATOM      9  O   UNL     1       0.948   1.424 -21.031  0.00  0.00    -0.422 OA
ATOM     10  C   UNL     1       2.175   1.217 -21.407  0.00  0.00    +0.337 A 
ATOM     11  C   UNL     1       2.537   1.494 -22.625  0.00  0.00    +0.093 A 
ATOM     12  C   UNL     1       1.672   1.977 -23.466  0.00  0.00    +0.022 A 
ATOM     13  O   UNL     1       3.041   0.734 -20.566  0.00  0.00    -0.245 OA
ATOM     14  C   UNL     1       0.445   2.183 -23.090  0.00  0.00    +0.060 A 
ATOM     15  C   UNL     1      -0.420   2.667 -23.931  0.00  0.00    +0.141 A 
ATOM     16  O   UNL     1      -2.150   3.633 -25.615  0.00  0.00    -0.292 OA
ATOM     17  C   UNL     1      -5.228   3.726 -23.279  0.00  0.00    +0.056 C 
ATOM     18  O   UNL     1      -3.236   2.803 -21.961  0.00  0.00    -0.485 OA
ENDROOT
BRANCH  15  19
ATOM     19  O   UNL     1      -0.058   2.943 -25.149  0.00  0.00    -0.505 OA
ATOM     20  H   UNL     1      -0.293   2.369 -25.850  0.00  0.00    +0.292 HD
ENDBRANCH  15  19
TORSDOF 1
ENDMDL
