MODEL 1
REMARK VINA RESULT:   -10.791      0.000      0.000
REMARK INTER + INTRA:         -11.425
REMARK INTER:                 -11.198
REMARK INTRA:                  -0.227
REMARK UNBOUND:                 1.259
REMARK  Name = ZINC000000338369
REMARK  5 active torsions:
REMARK  status: ('A' for Active; 'I' for Inactive)
REMARK    1  A    between atoms: C_1  and  O_2
REMARK    2  A    between atoms: O_2  and  C_3
REMARK    3  A    between atoms: C_8  and  O_9
REMARK    4  A    between atoms: O_9  and  C_10
REMARK    5  A    between atoms: C_16  and  C_17
REMARK                            x       y       z     vdW  Elec       q    Type
REMARK                         _______ _______ _______ _____ _____    ______ ____
ROOT
ATOM      1  C   UNL     1       4.185   2.491 -23.011  0.00  0.00    +0.162 A 
ATOM      2  C   UNL     1       3.586   3.001 -24.046  0.00  0.00    +0.053 A 
ATOM      3  C   UNL     1       2.293   3.134 -24.048  0.00  0.00    -0.037 A 
ATOM      4  C   UNL     1       1.599   2.758 -23.015  0.00  0.00    -0.020 A 
ATOM      5  C   UNL     1       0.306   2.891 -23.017  0.00  0.00    +0.111 C 
ATOM      6  C   UNL     1      -0.388   2.515 -21.985  0.00  0.00    +0.063 C 
ATOM      7  C   UNL     1      -1.681   2.649 -21.987  0.00  0.00    -0.033 A 
ATOM      8  C   UNL     1      -2.375   2.272 -20.954  0.00  0.00    +0.006 A 
ATOM      9  C   UNL     1      -3.668   2.406 -20.956  0.00  0.00    +0.019 A 
ATOM     10  C   UNL     1      -4.267   2.916 -21.991  0.00  0.00    +0.053 A 
ATOM     11  C   UNL     1      -3.574   3.292 -23.024  0.00  0.00    +0.032 A 
ATOM     12  C   UNL     1      -2.280   3.159 -23.021  0.00  0.00    +0.041 A 
ATOM     13  C   UNL     1      -1.586   3.535 -24.054  0.00  0.00    +0.247 C 
ATOM     14  O   UNL     1      -2.185   4.045 -25.089  0.00  0.00    -0.270 OA
ATOM     15  N   UNL     1      -0.293   3.401 -24.052  0.00  0.00    -0.290 N 
ATOM     16  C   UNL     1       0.401   3.778 -25.085  0.00  0.00    +0.113 C 
ATOM     17  C   UNL     1       2.198   2.248 -21.980  0.00  0.00    +0.055 A 
ATOM     18  C   UNL     1       1.694   3.645 -25.083  0.00  0.00    +0.054 C 
ATOM     19  C   UNL     1       3.491   2.114 -21.978  0.00  0.00    +0.162 A 
ENDROOT
BRANCH   1  21
ATOM     20  C   UNL     1       6.239   3.397 -23.184  0.00  0.00    +0.277 C 
ATOM     21  O   UNL     1       5.479   2.357 -23.008  0.00  0.00    -0.491 OA
ENDBRANCH   1  21
BRANCH  10  22
ATOM     22  C   UNL     1      -5.560   3.049 -21.993  0.00  0.00    +0.099 C 
ATOM     23  N   UNL     1      -6.854   3.183 -21.995  0.00  0.00    -0.191 NA
ENDBRANCH  10  22
BRANCH  19  24
ATOM     24  O   UNL     1       4.090   1.604 -20.943  0.00  0.00    -0.491 OA
ATOM     25  C   UNL     1       4.006   0.328 -20.706  0.00  0.00    +0.277 C 
ENDBRANCH  19  24
TORSDOF 3
ENDMDL
