MODEL 1
REMARK VINA RESULT:    -9.860      0.000      0.000
REMARK INTER + INTRA:         -10.148
REMARK INTER:                 -10.148
REMARK INTRA:                   0.000
REMARK UNBOUND:                 0.000
REMARK  Name = ZINC000012153082
REMARK  5 active torsions:
REMARK  status: ('A' for Active; 'I' for Inactive)
REMARK    1  A    between atoms: C_1  and  C_2
REMARK    2  A    between atoms: C_11  and  C_12
REMARK    3  A    between atoms: C_11  and  O_13
REMARK    4  A    between atoms: C_14  and  C_15
REMARK    5  A    between atoms: C_14  and  C_16
REMARK                            x       y       z     vdW  Elec       q    Type
REMARK                         _______ _______ _______ _____ _____    ______ ____
ROOT
ATOM      1  C   UNL     1      -1.395   3.696 -25.498  0.00  0.00    +0.008 C 
ATOM      2  C   UNL     1      -2.583   3.748 -24.972  0.00  0.00    -0.010 C 
ATOM      3  C   UNL     1      -3.648   4.234 -25.539  0.00  0.00    +0.004 C 
ATOM      4  C   UNL     1      -4.638   4.111 -24.705  0.00  0.00    +0.007 C 
ATOM      5  C   UNL     1      -4.185   3.549 -23.624  0.00  0.00    +0.024 C 
ATOM      6  C   UNL     1      -4.927   3.284 -22.591  0.00  0.00    +0.066 C 
ATOM      7  C   UNL     1      -6.043   3.260 -21.925  0.00  0.00    +0.041 C 
ATOM      8  C   UNL     1      -4.582   2.729 -21.466  0.00  0.00    +0.035 C 
ATOM      9  C   UNL     1      -3.410   2.302 -21.099  0.00  0.00    +0.007 C 
ATOM     10  C   UNL     1      -2.294   2.325 -21.764  0.00  0.00    -0.001 C 
ATOM     11  C   UNL     1      -1.099   2.264 -22.273  0.00  0.00    -0.028 C 
ATOM     12  C   UNL     1      -0.125   2.399 -23.124  0.00  0.00    +0.011 C 
ATOM     13  C   UNL     1      -0.463   1.701 -21.289  0.00  0.00    +0.011 C 
ATOM     14  C   UNL     1      -2.074   2.781 -22.961  0.00  0.00    +0.002 C 
ATOM     15  C   UNL     1      -2.915   3.325 -23.789  0.00  0.00    +0.002 C 
ENDROOT
BRANCH   6  16
ATOM     16  O   UNL     1      -5.768   3.828 -23.418  0.00  0.00    -0.389 OA
ATOM     17  H   UNL     1      -6.494   3.209 -23.595  0.00  0.00    +0.210 HD
ENDBRANCH   6  16
TORSDOF 1
ENDMDL
