MODEL 1
REMARK VINA RESULT:   -11.693      0.000      0.000
REMARK INTER + INTRA:         -12.718
REMARK INTER:                 -12.718
REMARK INTRA:                   0.000
REMARK UNBOUND:                 0.000
REMARK  Name = C[C@@]12CCC[C@@H]1[C@H]1CC(=O)[C@@]3(O)C[C@@H](O)CC[C@]3(C)[C@H]1CC2 ZINC000253505028
REMARK  4 active torsions:
REMARK  status: ('A' for Active; 'I' for Inactive)
REMARK    1  A    between atoms: C_1  and  C_2
REMARK    2  A    between atoms: C_11  and  O_12
REMARK    3  A    between atoms: C_14  and  O_15
REMARK    4  A    between atoms: C_18  and  C_19
REMARK                            x       y       z     vdW  Elec       q    Type
REMARK                         _______ _______ _______ _____ _____    ______ ____
ROOT
ATOM      1  C   UNL     1      -5.139   4.120 -24.158  0.00  0.00    +0.011 C 
ATOM      2  C   UNL     1      -4.338   3.530 -23.322  0.00  0.00    -0.029 C 
ATOM      3  C   UNL     1      -5.569   3.601 -22.913  0.00  0.00    +0.007 C 
ATOM      4  C   UNL     1      -5.636   3.039 -21.743  0.00  0.00    +0.001 C 
ATOM      5  C   UNL     1      -4.447   2.621 -21.429  0.00  0.00    +0.004 C 
ATOM      6  C   UNL     1      -3.758   3.939 -24.411  0.00  0.00    +0.007 C 
ATOM      7  C   UNL     1      -2.484   3.742 -24.584  0.00  0.00    +0.005 C 
ATOM      8  C   UNL     1      -1.791   3.136 -23.666  0.00  0.00    +0.002 C 
ATOM      9  C   UNL     1      -0.517   2.940 -23.839  0.00  0.00    +0.007 C 
ATOM     10  C   UNL     1      -1.211   3.545 -24.757  0.00  0.00    +0.015 C 
ATOM     11  C   UNL     1       0.062   3.348 -24.929  0.00  0.00    +0.012 C 
ATOM     12  C   UNL     1       1.335   3.151 -25.100  0.00  0.00    +0.032 C 
ATOM     13  C   UNL     1       2.030   2.546 -24.183  0.00  0.00    +0.118 C 
ATOM     14  C   UNL     1       1.450   2.137 -23.094  0.00  0.00    +0.074 C 
ATOM     15  C   UNL     1       0.177   2.334 -22.922  0.00  0.00    +0.131 C 
ATOM     16  C   UNL     1      -0.402   1.925 -21.832  0.00  0.00    +0.165 C 
ATOM     17  O   UNL     1       0.291   1.319 -20.914  0.00  0.00    -0.294 OA
ATOM     18  C   UNL     1      -1.677   2.122 -21.660  0.00  0.00    +0.081 C 
ATOM     19  C   UNL     1      -2.370   2.728 -22.577  0.00  0.00    +0.004 C 
ATOM     20  C   UNL     1      -3.644   2.924 -22.405  0.00  0.00    -0.001 C 
ENDROOT
BRANCH  13  21
ATOM     21  O   UNL     1       3.303   2.349 -24.356  0.00  0.00    -0.392 OA
ATOM     22  H   UNL     1       3.467   2.079 -25.273  0.00  0.00    +0.210 HD
ENDBRANCH  13  21
BRANCH  15  23
ATOM     23  O   UNL     1       0.870   1.728 -22.004  0.00  0.00    -0.380 OA
ATOM     24  H   UNL     1       1.805   1.969 -22.094  0.00  0.00    +0.211 HD
ENDBRANCH  15  23
TORSDOF 2
ENDMDL
