MODEL 1
REMARK VINA RESULT:   -11.574      0.000      0.000
REMARK INTER + INTRA:         -13.298
REMARK INTER:                 -12.849
REMARK INTRA:                  -0.450
REMARK UNBOUND:                -0.371
REMARK  Name = ZINC000036020290
REMARK  4 active torsions:
REMARK  status: ('A' for Active; 'I' for Inactive)
REMARK    1  A    between atoms: C_1  and  C_2
REMARK    2  A    between atoms: C_7  and  C_8
REMARK    3  A    between atoms: C_12  and  C_13
REMARK    4  A    between atoms: C_13  and  N_14
REMARK                            x       y       z     vdW  Elec       q    Type
REMARK                         _______ _______ _______ _____ _____    ______ ____
ROOT
ATOM      1  C   UNL     1      -4.059   2.476 -20.497  0.00  0.00    +0.039 C 
ATOM      2  C   UNL     1      -4.348   2.912 -21.687  0.00  0.00    -0.067 C 
ATOM      3  C   UNL     1      -5.516   3.316 -22.091  0.00  0.00    -0.024 C 
ATOM      4  C   UNL     1      -5.410   3.674 -23.336  0.00  0.00    +0.065 C 
ATOM      5  C   UNL     1      -4.176   3.493 -23.702  0.00  0.00    +0.112 C 
ATOM      6  O   UNL     1      -4.987   3.964 -24.602  0.00  0.00    -0.360 OA
ATOM      7  C   UNL     1      -3.738   3.756 -24.897  0.00  0.00    +0.097 C 
ATOM      8  C   UNL     1      -2.534   3.614 -25.368  0.00  0.00    +0.038 C 
ATOM      9  C   UNL     1      -1.473   3.174 -24.762  0.00  0.00    +0.011 C 
ATOM     10  C   UNL     1      -1.351   2.766 -23.533  0.00  0.00    +0.049 C 
ATOM     11  C   UNL     1      -0.233   2.342 -23.026  0.00  0.00    +0.149 C 
ATOM     12  C   UNL     1      -0.451   2.013 -21.788  0.00  0.00    +0.316 C 
ATOM     13  O   UNL     1      -1.706   2.233 -21.530  0.00  0.00    -0.460 OA
ATOM     14  O   UNL     1       0.430   1.545 -20.954  0.00  0.00    -0.250 OA
ATOM     15  C   UNL     1      -2.263   2.698 -22.608  0.00  0.00    +0.190 C 
ATOM     16  C   UNL     1      -4.046   4.195 -26.081  0.00  0.00    +0.044 C 
ATOM     17  C   UNL     1      -3.520   3.022 -22.683  0.00  0.00    +0.090 C 
ENDROOT
BRANCH  11  18
ATOM     18  C   UNL     1       0.907   2.262 -23.648  0.00  0.00    +0.146 C 
BRANCH  18  19
ATOM     19  N   UNL     1       1.836   3.141 -23.419  0.00  0.00    +0.236 N 
ATOM     20  H   UNL     1       2.803   3.364 -23.182  0.00  0.00    +0.203 HD
ATOM     21  C   UNL     1       3.041   2.751 -23.124  0.00  0.00    +0.131 C 
ATOM     22  C   UNL     1       3.971   3.630 -22.895  0.00  0.00    +0.051 C 
ATOM     23  C   UNL     1       3.696   4.899 -22.960  0.00  0.00    +0.010 C 
ATOM     24  C   UNL     1       2.491   5.289 -23.255  0.00  0.00    +0.051 C 
ATOM     25  C   UNL     1       1.561   4.410 -23.484  0.00  0.00    +0.131 C 
ENDBRANCH  18  19
ENDBRANCH  11  18
TORSDOF 2
ENDMDL
