MODEL 1
REMARK VINA RESULT:    -8.156      0.000      0.000
REMARK INTER + INTRA:          -5.044
REMARK INTER:                  -9.600
REMARK INTRA:                   4.556
REMARK UNBOUND:                 4.542
REMARK  Name = ZINC000004104813
REMARK  5 active torsions:
REMARK  status: ('A' for Active; 'I' for Inactive)
REMARK    1  A    between atoms: C_2  and  C_3
REMARK    2  A    between atoms: C_3  and  C_4
REMARK    3  A    between atoms: C_9  and  C_10
REMARK    4  A    between atoms: C_13  and  C_14
REMARK    5  A    between atoms: C_14  and  C_16
REMARK                            x       y       z     vdW  Elec       q    Type
REMARK                         _______ _______ _______ _____ _____    ______ ____
ROOT
ATOM      1  C   UNL     1      -1.244   3.634 -24.288  0.00  0.00    -0.000 C 
ATOM      2  C   UNL     1      -2.540   3.553 -24.332  0.00  0.00    +0.086 C 
ATOM      3  C   UNL     1      -3.229   3.524 -23.230  0.00  0.00    +0.109 A 
ATOM      4  O   UNL     1      -4.507   3.447 -23.004  0.00  0.00    -0.467 OA
ATOM      5  C   UNL     1      -4.688   3.451 -21.717  0.00  0.00    +0.198 A 
ATOM      6  C   UNL     1      -3.523   3.531 -21.146  0.00  0.00    -0.009 A 
ATOM      7  C   UNL     1      -3.297   3.560 -19.867  0.00  0.00    +0.047 C 
ATOM      8  C   UNL     1      -2.621   3.575 -22.082  0.00  0.00    -0.003 A 
ATOM      9  C   UNL     1      -1.324   3.657 -22.036  0.00  0.00    +0.048 C 
ATOM     10  C   UNL     1      -1.423   3.608 -25.575  0.00  0.00    +0.016 C 
ATOM     11  C   UNL     1      -0.635   3.686 -23.139  0.00  0.00    +0.035 C 
ENDROOT
BRANCH   1  13
ATOM     12  C   UNL     1       0.261   3.706 -25.961  0.00  0.00    +0.004 C 
ATOM     13  C   UNL     1      -0.010   3.706 -24.689  0.00  0.00    -0.027 C 
ENDBRANCH   1  13
BRANCH  11  14
ATOM     14  C   UNL     1       0.661   3.767 -23.094  0.00  0.00    -0.028 C 
ATOM     15  C   UNL     1       1.248   4.912 -23.289  0.00  0.00    +0.014 C 
BRANCH  14  16
ATOM     16  C   UNL     1       1.371   2.705 -22.853  0.00  0.00    +0.067 C 
ATOM     17  O   UNL     1       2.643   2.815 -22.608  0.00  0.00    -0.545 OA
ATOM     18  O   UNL     1       0.809   1.533 -22.857  0.00  0.00    -0.545 OA
ENDBRANCH  14  16
ENDBRANCH  11  14
TORSDOF 3
ENDMDL
