MODEL 1
REMARK VINA RESULT:   -12.736      0.000      0.000
REMARK INTER + INTRA:         -13.108
REMARK INTER:                 -13.108
REMARK INTRA:                   0.000
REMARK UNBOUND:                 0.000
REMARK  Name = ZINC000004104650
REMARK  4 active torsions:
REMARK  status: ('A' for Active; 'I' for Inactive)
REMARK    1  A    between atoms: C_1  and  C_2
REMARK    2  A    between atoms: C_2  and  O_3
REMARK    3  A    between atoms: C_17  and  C_18
REMARK    4  A    between atoms: C_22  and  C_23
REMARK                            x       y       z     vdW  Elec       q    Type
REMARK                         _______ _______ _______ _____ _____    ______ ____
ROOT
ATOM      1  C   UNL     1      -5.202   4.079 -24.075  0.00  0.00    +0.042 C 
ATOM      2  C   UNL     1      -4.990   3.563 -22.904  0.00  0.00    +0.069 C 
ATOM      3  C   UNL     1      -5.102   3.103 -21.691  0.00  0.00    +0.035 C 
ATOM      4  C   UNL     1      -3.929   2.685 -21.306  0.00  0.00    +0.007 C 
ATOM      5  C   UNL     1      -3.092   2.887 -22.283  0.00  0.00    +0.002 C 
ATOM      6  C   UNL     1      -1.821   2.648 -22.401  0.00  0.00    +0.004 C 
ATOM      7  C   UNL     1      -1.164   2.105 -21.414  0.00  0.00    +0.083 C 
ATOM      8  C   UNL     1       0.109   1.868 -21.537  0.00  0.00    +0.160 C 
ATOM      9  C   UNL     1       0.728   2.170 -22.641  0.00  0.00    +0.004 C 
ATOM     10  C   UNL     1       2.000   1.931 -22.761  0.00  0.00    +0.053 C 
ATOM     11  C   UNL     1       2.621   2.234 -23.867  0.00  0.00    +0.157 C 
ATOM     12  C   UNL     1       1.961   2.776 -24.851  0.00  0.00    +0.080 C 
ATOM     13  C   UNL     1       0.688   3.014 -24.731  0.00  0.00    +0.019 C 
ATOM     14  O   UNL     1       3.893   1.995 -23.987  0.00  0.00    -0.293 OA
ATOM     15  C   UNL     1       0.070   2.711 -23.625  0.00  0.00    -0.000 C 
ATOM     16  C   UNL     1      -0.587   3.253 -24.610  0.00  0.00    +0.016 C 
ATOM     17  O   UNL     1       0.767   1.326 -20.551  0.00  0.00    -0.292 OA
ATOM     18  C   UNL     1      -1.204   2.950 -23.504  0.00  0.00    +0.003 C 
ATOM     19  C   UNL     1      -1.860   3.491 -24.488  0.00  0.00    +0.005 C 
ATOM     20  C   UNL     1      -3.129   3.731 -24.374  0.00  0.00    +0.010 C 
ATOM     21  C   UNL     1      -3.742   3.429 -23.272  0.00  0.00    -0.000 C 
ATOM     22  C   UNL     1      -4.441   3.954 -24.193  0.00  0.00    +0.014 C 
ENDROOT
BRANCH   2  23
ATOM     23  O   UNL     1      -6.262   3.790 -22.757  0.00  0.00    -0.388 OA
ATOM     24  H   UNL     1      -6.653   4.011 -23.617  0.00  0.00    +0.210 HD
ENDBRANCH   2  23
TORSDOF 1
ENDMDL
