MODEL 1
REMARK VINA RESULT:   -10.841      0.000      0.000
REMARK INTER + INTRA:         -12.831
REMARK INTER:                 -12.701
REMARK INTRA:                  -0.130
REMARK UNBOUND:                 2.130
REMARK  Name = ZINC000096316309
REMARK  9 active torsions:
REMARK  status: ('A' for Active; 'I' for Inactive)
REMARK    1  A    between atoms: C_1  and  C_2
REMARK    2  A    between atoms: C_2  and  O_3
REMARK    3  A    between atoms: O_3  and  C_4
REMARK    4  A    between atoms: C_4  and  C_6
REMARK    5  A    between atoms: C_6  and  O_7
REMARK    6  A    between atoms: O_7  and  C_8
REMARK    7  A    between atoms: C_30  and  O_31
REMARK    8  A    between atoms: C_30  and  C_32
REMARK    9  A    between atoms: C_32  and  C_33
REMARK                            x       y       z     vdW  Elec       q    Type
REMARK                         _______ _______ _______ _____ _____    ______ ____
ROOT
ATOM      1  C   UNL     1      -1.184   3.461 -23.922  0.00  0.00    +0.122 A 
ATOM      2  C   UNL     1      -1.136   4.705 -23.549  0.00  0.00    +0.048 A 
ATOM      3  C   UNL     1       0.011   5.253 -23.272  0.00  0.00    +0.032 A 
ATOM      4  C   UNL     1       1.103   4.559 -23.368  0.00  0.00    +0.072 A 
ATOM      5  N   UNL     1       2.251   5.107 -23.091  0.00  0.00    -0.245 NA
ATOM      6  C   UNL     1       3.343   4.413 -23.188  0.00  0.00    +0.093 A 
ATOM      7  C   UNL     1       3.296   3.170 -23.560  0.00  0.00    +0.000 A 
ATOM      8  C   UNL     1       4.510   2.704 -23.577  0.00  0.00    +0.162 C 
ATOM      9  N   UNL     1       5.309   3.662 -23.214  0.00  0.00    -0.302 N 
ATOM     10  C   UNL     1       6.600   3.709 -23.071  0.00  0.00    +0.259 A 
ATOM     11  O   UNL     1       7.320   2.652 -23.312  0.00  0.00    -0.267 OA
ATOM     12  C   UNL     1       7.173   4.811 -22.687  0.00  0.00    +0.061 A 
ATOM     13  C   UNL     1       8.463   4.858 -22.544  0.00  0.00    +0.273 C 
ATOM     14  O   UNL     1       9.037   5.960 -22.160  0.00  0.00    -0.457 OA
ATOM     15  C   UNL     1       8.316   7.015 -21.920  0.00  0.00    +0.344 C 
ATOM     16  C   UNL     1       7.025   6.969 -22.063  0.00  0.00    +0.188 C 
ATOM     17  O   UNL     1       8.889   8.119 -21.536  0.00  0.00    -0.247 OA
ATOM     18  C   UNL     1       6.453   5.866 -22.446  0.00  0.00    +0.008 A 
ATOM     19  C   UNL     1       5.162   5.820 -22.589  0.00  0.00    +0.035 A 
ATOM     20  C   UNL     1       2.149   2.618 -23.838  0.00  0.00    +0.017 A 
ATOM     21  C   UNL     1       4.590   4.718 -22.973  0.00  0.00    +0.071 A 
ATOM     22  C   UNL     1       1.056   3.315 -23.741  0.00  0.00    +0.004 A 
ATOM     23  C   UNL     1      -0.092   2.765 -24.019  0.00  0.00    +0.055 A 
ENDROOT
BRANCH  16  24
ATOM     24  O   UNL     1       5.784   7.350 -22.074  0.00  0.00    -0.373 OA
ATOM     25  H   UNL     1       5.471   7.406 -22.990  0.00  0.00    +0.211 HD
ENDBRANCH  16  24
BRANCH  16  26
ATOM     26  C   UNL     1       7.166   8.204 -21.683  0.00  0.00    +0.048 C 
ATOM     27  C   UNL     1       6.148   8.858 -21.210  0.00  0.00    +0.007 C 
ENDBRANCH  16  26
BRANCH   1  28
ATOM     28  O   UNL     1      -2.330   2.912 -24.199  0.00  0.00    -0.481 OA
BRANCH  28  29
ATOM     29  C   UNL     1      -3.420   3.618 -24.139  0.00  0.00    +0.349 C 
BRANCH  29  30
ATOM     30  C   UNL     1      -4.299   3.378 -23.212  0.00  0.00    +0.345 C 
ATOM     31  O   UNL     1      -5.533   3.757 -23.371  0.00  0.00    -0.247 OA
BRANCH  30  32
ATOM     32  O   UNL     1      -3.946   2.758 -22.125  0.00  0.00    -0.463 OA
BRANCH  32  34
ATOM     33  C   UNL     1      -2.915   3.775 -20.401  0.00  0.00    +0.048 C 
ATOM     34  C   UNL     1      -4.006   3.370 -20.979  0.00  0.00    +0.229 C 
ENDBRANCH  32  34
ENDBRANCH  30  32
ENDBRANCH  29  30
ENDBRANCH  28  29
ENDBRANCH   1  28
TORSDOF 7
ENDMDL
