MODEL 1
REMARK VINA RESULT:   -10.500      0.000      0.000
REMARK INTER + INTRA:         -10.762
REMARK INTER:                 -11.542
REMARK INTRA:                   0.780
REMARK UNBOUND:                 0.965
REMARK  Name = C=CCN1CC[C@]23c4c5ccc(O)c4O[C@H]2C(=O)CC[C@@]3(O)[C@@H]1C5           ZINC000100058347
REMARK  4 active torsions:
REMARK  status: ('A' for Active; 'I' for Inactive)
REMARK    1  A    between atoms: C_2  and  C_3
REMARK    2  A    between atoms: C_3  and  N_4
REMARK    3  A    between atoms: C_12  and  O_13
REMARK    4  A    between atoms: C_21  and  O_22
REMARK                            x       y       z     vdW  Elec       q    Type
REMARK                         _______ _______ _______ _____ _____    ______ ____
ROOT
ATOM      1  N   UNL     1       0.114   3.341 -23.895  0.00  0.00    +0.243 N 
ATOM      2  H   UNL     1       1.131   3.333 -23.977  0.00  0.00    +0.204 HD
ATOM      3  C   UNL     1      -0.504   3.434 -25.157  0.00  0.00    +0.133 C 
ATOM      4  C   UNL     1      -1.914   3.455 -25.197  0.00  0.00    +0.069 C 
ATOM      5  C   UNL     1      -2.582   3.380 -23.940  0.00  0.00    +0.082 C 
ATOM      6  C   UNL     1      -3.262   3.319 -22.892  0.00  0.00    +0.015 A 
ATOM      7  C   UNL     1      -2.699   3.237 -21.766  0.00  0.00    -0.034 A 
ATOM      8  C   UNL     1      -3.377   3.175 -20.715  0.00  0.00    +0.008 A 
ATOM      9  C   UNL     1      -4.627   3.196 -20.778  0.00  0.00    +0.049 A 
ATOM     10  C   UNL     1      -5.212   3.279 -21.897  0.00  0.00    +0.159 A 
ATOM     11  C   UNL     1      -1.424   3.216 -21.711  0.00  0.00    +0.093 C 
ATOM     12  C   UNL     1      -4.524   3.341 -22.960  0.00  0.00    +0.167 A 
ATOM     13  O   UNL     1      -4.537   3.441 -24.456  0.00  0.00    -0.476 OA
ATOM     14  C   UNL     1      -1.336   3.359 -23.875  0.00  0.00    +0.123 C 
ATOM     15  C   UNL     1      -0.641   3.421 -24.931  0.00  0.00    +0.049 C 
ATOM     16  C   UNL     1      -1.208   3.503 -26.045  0.00  0.00    +0.081 C 
ATOM     17  C   UNL     1      -2.472   3.525 -26.123  0.00  0.00    +0.175 C 
ATOM     18  O   UNL     1      -3.035   3.606 -27.236  0.00  0.00    -0.293 OA
ATOM     19  C   UNL     1      -3.156   3.463 -25.072  0.00  0.00    +0.253 C 
ATOM     20  C   UNL     1      -0.746   3.277 -22.760  0.00  0.00    +0.102 C 
ENDROOT
BRANCH  10  21
ATOM     21  O   UNL     1      -6.461   3.299 -21.954  0.00  0.00    -0.503 OA
ATOM     22  H   UNL     1      -6.944   2.496 -21.946  0.00  0.00    +0.292 HD
ENDBRANCH  10  21
BRANCH  14  23
ATOM     23  O   UNL     1      -2.010   3.298 -22.822  0.00  0.00    -0.382 OA
ATOM     24  H   UNL     1      -2.149   2.369 -22.581  0.00  0.00    +0.210 HD
ENDBRANCH  14  23
BRANCH   1  25
ATOM     25  C   UNL     1       1.381   3.316 -23.763  0.00  0.00    +0.159 C 
BRANCH  25  27
ATOM     26  C   UNL     1       3.275   4.314 -23.308  0.00  0.00    +0.009 C 
ATOM     27  C   UNL     1       2.014   4.324 -23.336  0.00  0.00    +0.015 C 
ENDBRANCH  25  27
ENDBRANCH   1  25
TORSDOF 4
ENDMDL
