MODEL 1
REMARK VINA RESULT:    -6.877      0.000      0.000
REMARK INTER + INTRA:         -12.195
REMARK INTER:                 -10.691
REMARK INTRA:                  -1.504
REMARK UNBOUND:                -0.896
REMARK  Name = ZINC000014718753
REMARK  18 active torsions:
REMARK  status: ('A' for Active; 'I' for Inactive)
REMARK    1  A    between atoms: C_1  and  C_2
REMARK    2  A    between atoms: C_2  and  C_3
REMARK    3  A    between atoms: C_3  and  C_4
REMARK    4  A    between atoms: C_10  and  C_11
REMARK    5  A    between atoms: C_11  and  C_13
REMARK    6  A    between atoms: C_13  and  C_14
REMARK    7  A    between atoms: C_13  and  C_15
REMARK    8  A    between atoms: C_15  and  C_16
REMARK    9  A    between atoms: C_17  and  O_18
REMARK   10  A    between atoms: C_19  and  C_20
REMARK   11  A    between atoms: C_20  and  C_21
REMARK   12  A    between atoms: C_22  and  C_23
REMARK   13  A    between atoms: C_22  and  C_24
REMARK   14  A    between atoms: C_24  and  C_25
REMARK   15  A    between atoms: C_25  and  C_26
REMARK   16  A    between atoms: C_27  and  C_28
REMARK   17  A    between atoms: C_27  and  C_29
REMARK   18  A    between atoms: C_30  and  O_31
REMARK                            x       y       z     vdW  Elec       q    Type
REMARK                         _______ _______ _______ _____ _____    ______ ____
ROOT
ATOM      1  C   UNL     1       3.123   1.583 -21.958  0.00  0.00    -0.026 A 
ATOM      2  C   UNL     1       2.140   0.737 -21.880  0.00  0.00    +0.096 A 
ATOM      3  C   UNL     1       0.938   1.103 -22.216  0.00  0.00    +0.338 A 
ATOM      4  O   UNL     1       0.721   2.316 -22.631  0.00  0.00    -0.421 OA
ATOM      5  C   UNL     1       1.704   3.162 -22.710  0.00  0.00    +0.157 A 
ATOM      6  C   UNL     1       1.487   4.375 -23.125  0.00  0.00    +0.102 A 
ATOM      7  C   UNL     1       2.471   5.221 -23.203  0.00  0.00    +0.138 A 
ATOM      8  C   UNL     1       3.672   4.855 -22.867  0.00  0.00    +0.041 A 
ATOM      9  C   UNL     1       3.889   3.642 -22.452  0.00  0.00    +0.135 A 
ATOM     10  O   UNL     1      -0.045   0.257 -22.138  0.00  0.00    -0.245 OA
ATOM     11  C   UNL     1       2.906   2.796 -22.373  0.00  0.00    +0.063 A 
ENDROOT
BRANCH   9  12
ATOM     12  O   UNL     1       5.090   3.276 -22.115  0.00  0.00    -0.506 OA
ATOM     13  H   UNL     1       5.288   2.367 -21.999  0.00  0.00    +0.292 HD
ENDBRANCH   9  12
BRANCH   6  14
ATOM     14  C   UNL     1       0.285   4.741 -23.461  0.00  0.00    +0.173 C 
ATOM     15  O   UNL     1      -0.389   5.544 -22.692  0.00  0.00    -0.292 OA
BRANCH  14  16
ATOM     16  C   UNL     1      -0.241   4.305 -24.566  0.00  0.00    +0.057 C 
ATOM     17  C   UNL     1       0.513   4.070 -25.598  0.00  0.00    +0.016 C 
BRANCH  16  18
ATOM     18  C   UNL     1      -1.523   4.103 -24.639  0.00  0.00    +0.008 C 
ATOM     19  C   UNL     1      -2.016   3.401 -25.617  0.00  0.00    +0.004 C 
ENDBRANCH  16  18
ENDBRANCH  14  16
ENDBRANCH   6  14
BRANCH   7  20
ATOM     20  O   UNL     1       2.253   6.434 -23.618  0.00  0.00    -0.506 OA
ATOM     21  H   UNL     1       2.162   7.131 -22.999  0.00  0.00    +0.292 HD
ENDBRANCH   7  20
BRANCH   8  22
ATOM     22  C   UNL     1       4.656   5.701 -22.945  0.00  0.00    +0.069 C 
BRANCH  22  23
ATOM     23  C   UNL     1       4.792   6.625 -22.041  0.00  0.00    -0.023 C 
ATOM     24  C   UNL     1       5.978   7.040 -21.710  0.00  0.00    -0.076 C 
ATOM     25  C   UNL     1       7.029   6.532 -22.283  0.00  0.00    +0.039 C 
BRANCH  24  26
ATOM     26  C   UNL     1       6.115   7.965 -20.806  0.00  0.00    +0.034 C 
BRANCH  26  27
ATOM     27  C   UNL     1       5.225   8.906 -20.699  0.00  0.00    +0.031 C 
BRANCH  27  28
ATOM     28  C   UNL     1       5.527  10.126 -21.031  0.00  0.00    -0.028 C 
ATOM     29  C   UNL     1       4.833  10.743 -21.941  0.00  0.00    -0.080 C 
ATOM     30  C   UNL     1       3.837  10.139 -22.519  0.00  0.00    +0.038 C 
ATOM     31  C   UNL     1       5.134  11.963 -22.273  0.00  0.00    +0.038 C 
ENDBRANCH  27  28
ENDBRANCH  26  27
ENDBRANCH  24  26
ENDBRANCH  22  23
ENDBRANCH   8  22
BRANCH   1  32
ATOM     32  C   UNL     1       4.324   1.217 -21.622  0.00  0.00    +0.036 C 
BRANCH  32  34
ATOM     33  C   UNL     1       5.614  -0.324 -20.606  0.00  0.00    +0.004 C 
ATOM     34  C   UNL     1       4.496   0.334 -20.684  0.00  0.00    +0.001 C 
ENDBRANCH  32  34
ENDBRANCH   1  32
TORSDOF 12
ENDMDL
