MODEL 1
REMARK VINA RESULT:   -11.709      0.000      0.000
REMARK INTER + INTRA:          -9.560
REMARK INTER:                 -12.748
REMARK INTRA:                   3.188
REMARK UNBOUND:                 3.176
REMARK  Name = ZINC000004104908
REMARK  5 active torsions:
REMARK  status: ('A' for Active; 'I' for Inactive)
REMARK    1  A    between atoms: C_1  and  C_2
REMARK    2  A    between atoms: C_2  and  C_4
REMARK    3  A    between atoms: C_13  and  O_14
REMARK    4  A    between atoms: C_17  and  C_18
REMARK    5  A    between atoms: C_22  and  C_23
REMARK                            x       y       z     vdW  Elec       q    Type
REMARK                         _______ _______ _______ _____ _____    ______ ____
ROOT
ATOM      1  C   UNL     1       2.528   1.804 -22.803  0.00  0.00    +0.069 C 
ATOM      2  C   UNL     1       2.743   2.238 -24.010  0.00  0.00    +0.039 C 
ATOM      3  C   UNL     1       1.615   2.675 -24.486  0.00  0.00    -0.026 C 
ATOM      4  C   UNL     1       0.703   2.512 -23.574  0.00  0.00    -0.063 C 
ATOM      5  C   UNL     1      -0.568   2.785 -23.557  0.00  0.00    +0.019 C 
ATOM      6  C   UNL     1      -1.131   3.323 -24.597  0.00  0.00    +0.008 C 
ATOM      7  C   UNL     1      -2.403   3.595 -24.579  0.00  0.00    +0.005 C 
ATOM      8  C   UNL     1      -3.110   3.329 -23.521  0.00  0.00    -0.002 C 
ATOM      9  C   UNL     1      -4.381   3.601 -23.503  0.00  0.00    +0.035 C 
ATOM     10  C   UNL     1      -5.088   3.335 -22.446  0.00  0.00    +0.115 C 
ATOM     11  C   UNL     1      -4.524   2.796 -21.405  0.00  0.00    +0.032 C 
ATOM     12  C   UNL     1      -3.253   2.524 -21.423  0.00  0.00    +0.010 C 
ATOM     13  C   UNL     1      -2.546   2.791 -22.481  0.00  0.00    -0.026 C 
ATOM     14  C   UNL     1      -1.981   2.252 -21.441  0.00  0.00    +0.012 C 
ATOM     15  C   UNL     1      -1.275   2.518 -22.499  0.00  0.00    +0.002 C 
ATOM     16  C   UNL     1      -0.710   1.980 -21.459  0.00  0.00    +0.005 C 
ATOM     17  C   UNL     1       0.560   1.708 -21.476  0.00  0.00    +0.012 C 
ATOM     18  C   UNL     1       1.267   1.974 -22.534  0.00  0.00    -0.001 C 
ATOM     19  C   UNL     1       1.948   1.439 -21.564  0.00  0.00    +0.016 C 
ENDROOT
BRANCH   1  21
ATOM     20  C   UNL     1       4.256   2.065 -21.383  0.00  0.00    +0.086 C 
ATOM     21  C   UNL     1       3.417   1.292 -22.006  0.00  0.00    +0.134 C 
ATOM     22  O   UNL     1       3.468   0.004 -21.831  0.00  0.00    -0.297 OA
ENDBRANCH   1  21
BRANCH  10  23
ATOM     23  O   UNL     1      -6.359   3.607 -22.429  0.00  0.00    -0.392 OA
ATOM     24  H   UNL     1      -6.525   4.408 -22.949  0.00  0.00    +0.210 HD
ENDBRANCH  10  23
TORSDOF 2
ENDMDL
