MODEL 1
REMARK VINA RESULT:   -11.229      0.000      0.000
REMARK INTER + INTRA:         -12.328
REMARK INTER:                 -12.180
REMARK INTRA:                  -0.147
REMARK UNBOUND:                -0.114
REMARK  Name = COc1ccc2c3c1O[C@]1(C)[C@H](O)C=C[C@@H]4[C@@H](C2)N(C)CC[C@@]341      ZINC000253505000
REMARK  5 active torsions:
REMARK  status: ('A' for Active; 'I' for Inactive)
REMARK    1  A    between atoms: C_1  and  O_2
REMARK    2  A    between atoms: O_2  and  C_3
REMARK    3  A    between atoms: C_10  and  C_11
REMARK    4  A    between atoms: C_12  and  O_13
REMARK    5  A    between atoms: N_19  and  C_20
REMARK                            x       y       z     vdW  Elec       q    Type
REMARK                         _______ _______ _______ _____ _____    ______ ____
ROOT
ATOM      1  C   UNL     1       0.458   2.227 -23.363  0.00  0.00    +0.162 A 
ATOM      2  C   UNL     1       0.430   1.860 -22.153  0.00  0.00    +0.050 A 
ATOM      3  C   UNL     1      -0.636   1.908 -21.498  0.00  0.00    +0.008 A 
ATOM      4  C   UNL     1      -1.686   2.323 -22.045  0.00  0.00    -0.034 A 
ATOM      5  C   UNL     1      -1.679   2.693 -23.249  0.00  0.00    +0.012 A 
ATOM      6  C   UNL     1      -2.727   3.106 -23.791  0.00  0.00    +0.058 C 
ATOM      7  C   UNL     1      -3.856   3.593 -24.513  0.00  0.00    +0.067 C 
ATOM      8  C   UNL     1      -5.072   3.659 -23.800  0.00  0.00    +0.132 C 
ATOM      9  N   UNL     1      -5.063   3.241 -22.453  0.00  0.00    +0.236 N 
ATOM     10  H   UNL     1      -5.914   3.267 -21.890  0.00  0.00    +0.203 HD
ATOM     11  C   UNL     1      -6.099   3.267 -21.751  0.00  0.00    +0.190 C 
ATOM     12  C   UNL     1      -3.818   2.787 -21.928  0.00  0.00    +0.076 C 
ATOM     13  C   UNL     1      -3.795   3.155 -23.139  0.00  0.00    +0.075 C 
ATOM     14  C   UNL     1      -4.853   3.573 -23.688  0.00  0.00    -0.019 C 
ATOM     15  C   UNL     1      -4.837   3.939 -24.886  0.00  0.00    +0.004 C 
ATOM     16  C   UNL     1      -3.763   3.892 -25.551  0.00  0.00    +0.181 C 
ATOM     17  C   UNL     1      -2.714   3.479 -25.009  0.00  0.00    +0.148 C 
ATOM     18  C   UNL     1      -2.413   3.772 -26.189  0.00  0.00    +0.060 C 
ATOM     19  O   UNL     1      -1.242   3.181 -25.163  0.00  0.00    -0.478 OA
ATOM     20  C   UNL     1      -2.772   2.373 -21.382  0.00  0.00    +0.090 C 
ATOM     21  C   UNL     1      -0.605   2.646 -23.913  0.00  0.00    +0.167 A 
ENDROOT
BRANCH   1  23
ATOM     22  C   UNL     1       2.181   3.222 -24.225  0.00  0.00    +0.277 C 
ATOM     23  O   UNL     1       1.525   2.178 -24.013  0.00  0.00    -0.491 OA
ENDBRANCH   1  23
BRANCH  16  24
ATOM     24  O   UNL     1      -3.749   4.258 -26.749  0.00  0.00    -0.384 OA
ATOM     25  H   UNL     1      -4.403   4.963 -26.879  0.00  0.00    +0.210 HD
ENDBRANCH  16  24
TORSDOF 2
ENDMDL
