MODEL 1
REMARK VINA RESULT:    -9.215      0.000      0.000
REMARK INTER + INTRA:         -10.105
REMARK INTER:                 -11.022
REMARK INTRA:                   0.917
REMARK UNBOUND:                 0.726
REMARK  Name = ZINC000096316342
REMARK  5 active torsions:
REMARK  status: ('A' for Active; 'I' for Inactive)
REMARK    1  A    between atoms: C_1  and  O_2
REMARK    2  A    between atoms: O_2  and  C_3
REMARK    3  A    between atoms: C_11  and  O_12
REMARK    4  A    between atoms: O_12  and  C_13
REMARK    5  A    between atoms: C_13  and  C_14
REMARK                            x       y       z     vdW  Elec       q    Type
REMARK                         _______ _______ _______ _____ _____    ______ ____
ROOT
ATOM      1  C   UNL     1       1.700   2.256 -23.796  0.00  0.00    +0.162 A 
ATOM      2  C   UNL     1       1.964   1.797 -22.642  0.00  0.00    +0.050 A 
ATOM      3  C   UNL     1       1.066   1.718 -21.768  0.00  0.00    +0.008 A 
ATOM      4  C   UNL     1      -0.102   2.096 -22.037  0.00  0.00    -0.038 A 
ATOM      5  C   UNL     1      -0.388   2.557 -23.179  0.00  0.00    +0.012 A 
ATOM      6  C   UNL     1      -1.554   2.932 -23.441  0.00  0.00    +0.050 C 
ATOM      7  C   UNL     1      -2.845   3.391 -23.859  0.00  0.00    +0.035 C 
ATOM      8  C   UNL     1      -3.878   3.314 -22.894  0.00  0.00    +0.109 C 
ATOM      9  N   UNL     1      -3.547   2.797 -21.618  0.00  0.00    -0.300 N 
ATOM     10  C   UNL     1      -4.419   2.698 -20.705  0.00  0.00    +0.328 C 
ATOM     11  O   UNL     1      -4.115   2.237 -19.574  0.00  0.00    -0.279 OA
ATOM     12  C   UNL     1      -2.189   2.395 -21.417  0.00  0.00    +0.088 C 
ATOM     13  C   UNL     1      -2.455   2.855 -22.571  0.00  0.00    +0.047 C 
ATOM     14  C   UNL     1      -3.637   3.236 -22.837  0.00  0.00    -0.021 C 
ATOM     15  C   UNL     1      -3.903   3.691 -23.978  0.00  0.00    +0.017 C 
ATOM     16  C   UNL     1      -3.002   3.774 -24.865  0.00  0.00    +0.240 C 
ATOM     17  C   UNL     1      -1.834   3.396 -24.597  0.00  0.00    +0.229 C 
ATOM     18  O   UNL     1      -0.413   3.219 -25.096  0.00  0.00    -0.480 OA
ATOM     19  C   UNL     1      -1.022   2.018 -21.150  0.00  0.00    +0.058 C 
ATOM     20  C   UNL     1       0.516   2.638 -24.063  0.00  0.00    +0.167 A 
ENDROOT
BRANCH   1  22
ATOM     21  C   UNL     1       3.800   2.139 -24.350  0.00  0.00    +0.277 C 
ATOM     22  O   UNL     1       2.600   2.334 -24.667  0.00  0.00    -0.491 OA
ENDBRANCH   1  22
BRANCH  16  23
ATOM     23  O   UNL     1      -3.274   4.230 -26.003  0.00  0.00    -0.454 OA
BRANCH  23  24
ATOM     24  C   UNL     1      -3.746   3.471 -26.887  0.00  0.00    +0.305 C 
ATOM     25  O   UNL     1      -4.712   2.717 -26.616  0.00  0.00    -0.251 OA
ATOM     26  C   UNL     1      -3.250   3.468 -28.040  0.00  0.00    +0.136 C 
ENDBRANCH  23  24
ENDBRANCH  16  23
TORSDOF 3
ENDMDL
