MODEL 1
REMARK VINA RESULT:   -11.299      0.000      0.000
REMARK INTER + INTRA:         -12.095
REMARK INTER:                 -11.945
REMARK INTRA:                  -0.151
REMARK UNBOUND:                -0.135
REMARK  Name = COc1ccc2c3c1O[C@@]1(C)C(=O)C=C[C@]4(Br)[C@@H](C2)N(C)CC[C@@]314      ZINC000100393736
REMARK  4 active torsions:
REMARK  status: ('A' for Active; 'I' for Inactive)
REMARK    1  A    between atoms: C_1  and  O_2
REMARK    2  A    between atoms: O_2  and  C_3
REMARK    3  A    between atoms: C_10  and  C_11
REMARK    4  A    between atoms: N_20  and  C_21
REMARK                            x       y       z     vdW  Elec       q    Type
REMARK                         _______ _______ _______ _____ _____    ______ ____
ROOT
ATOM      1  C   UNL     1       0.831   2.240 -23.197  0.00  0.00    +0.162 A 
ATOM      2  C   UNL     1       0.797   1.890 -21.980  0.00  0.00    +0.050 A 
ATOM      3  C   UNL     1      -0.279   1.920 -21.339  0.00  0.00    +0.008 A 
ATOM      4  C   UNL     1      -1.330   2.300 -21.903  0.00  0.00    -0.034 A 
ATOM      5  C   UNL     1      -1.321   2.655 -23.117  0.00  0.00    +0.014 A 
ATOM      6  C   UNL     1      -2.373   3.034 -23.677  0.00  0.00    +0.075 C 
ATOM      7  C   UNL     1      -3.507   3.483 -24.420  0.00  0.00    +0.069 C 
ATOM      8  C   UNL     1      -4.734   3.527 -23.722  0.00  0.00    +0.132 C 
ATOM      9  N   UNL     1      -4.733   3.130 -22.370  0.00  0.00    +0.237 N 
ATOM     10  H   UNL     1      -5.600   3.148 -21.832  0.00  0.00    +0.203 HD
ATOM     11  C   UNL     1      -5.780   3.141 -21.682  0.00  0.00    +0.191 C 
ATOM     12  C   UNL     1      -3.485   2.714 -21.819  0.00  0.00    +0.090 C 
ATOM     13  C   UNL     1      -3.445   3.064 -23.036  0.00  0.00    +0.101 C 
ATOM     14 BR   UNL     1      -2.395   2.683 -22.467  0.00  0.00    -0.073 Br
ATOM     15  C   UNL     1      -4.514   3.446 -23.596  0.00  0.00    +0.001 C 
ATOM     16  C   UNL     1      -4.496   3.797 -24.802  0.00  0.00    +0.048 C 
ATOM     17  C   UNL     1      -3.414   3.771 -25.464  0.00  0.00    +0.200 C 
ATOM     18  O   UNL     1      -3.400   4.121 -26.665  0.00  0.00    -0.288 OA
ATOM     19  C   UNL     1      -2.356   3.390 -24.901  0.00  0.00    +0.181 C 
ATOM     20  C   UNL     1      -2.048   3.675 -26.085  0.00  0.00    +0.065 C 
ATOM     21  O   UNL     1      -0.871   3.127 -25.033  0.00  0.00    -0.473 OA
ATOM     22  C   UNL     1      -2.432   2.334 -21.257  0.00  0.00    +0.091 C 
ATOM     23  C   UNL     1      -0.236   2.625 -23.766  0.00  0.00    +0.168 A 
ENDROOT
BRANCH   1  25
ATOM     24  C   UNL     1       2.674   3.200 -23.823  0.00  0.00    +0.277 C 
ATOM     25  O   UNL     1       1.908   2.208 -23.834  0.00  0.00    -0.491 OA
ENDBRANCH   1  25
TORSDOF 1
ENDMDL
