MODEL 1
REMARK VINA RESULT:    -8.957      0.000      0.000
REMARK INTER + INTRA:         -11.269
REMARK INTER:                 -11.156
REMARK INTRA:                  -0.113
REMARK UNBOUND:                 0.045
REMARK  Name = ZINC000025757812
REMARK  8 active torsions:
REMARK  status: ('A' for Active; 'I' for Inactive)
REMARK    1  A    between atoms: C_1  and  O_2
REMARK    2  A    between atoms: O_2  and  C_3
REMARK    3  A    between atoms: C_4  and  O_5
REMARK    4  A    between atoms: C_9  and  O_10
REMARK    5  A    between atoms: C_13  and  C_14
REMARK    6  A    between atoms: C_14  and  O_15
REMARK    7  A    between atoms: C_16  and  O_17
REMARK    8  A    between atoms: C_18  and  O_19
REMARK                            x       y       z     vdW  Elec       q    Type
REMARK                         _______ _______ _______ _____ _____    ______ ____
ROOT
ATOM      1  C   UNL     1      -2.730   3.762 -25.176  0.00  0.00    +0.203 A 
ATOM      2  C   UNL     1      -3.666   3.931 -24.290  0.00  0.00    +0.163 A 
ATOM      3  C   UNL     1      -3.458   3.590 -23.053  0.00  0.00    +0.064 A 
ATOM      4  C   UNL     1      -2.314   3.081 -22.702  0.00  0.00    +0.072 A 
ATOM      5  C   UNL     1      -1.379   2.913 -23.589  0.00  0.00    +0.044 A 
ATOM      6  C   UNL     1      -0.235   2.403 -23.238  0.00  0.00    +0.196 C 
ATOM      7  O   UNL     1       0.701   2.235 -24.125  0.00  0.00    -0.360 OA
ATOM      8  C   UNL     1       1.844   1.725 -23.774  0.00  0.00    +0.175 C 
ATOM      9  C   UNL     1       2.052   1.385 -22.537  0.00  0.00    +0.178 C 
ATOM     10  C   UNL     1       1.117   1.554 -21.651  0.00  0.00    +0.189 C 
ATOM     11  C   UNL     1      -0.027   2.063 -22.001  0.00  0.00    +0.241 C 
ATOM     12  O   UNL     1      -0.963   2.232 -21.114  0.00  0.00    -0.452 OA
ATOM     13  C   UNL     1      -2.106   2.741 -21.464  0.00  0.00    +0.340 C 
ATOM     14  O   UNL     1      -3.042   2.910 -20.578  0.00  0.00    -0.245 OA
ATOM     15  C   UNL     1      -1.587   3.253 -24.826  0.00  0.00    +0.169 A 
ENDROOT
BRANCH   1  17
ATOM     16  C   UNL     1      -3.548   3.284 -27.219  0.00  0.00    +0.277 C 
ATOM     17  O   UNL     1      -2.938   4.102 -26.414  0.00  0.00    -0.489 OA
ENDBRANCH   1  17
BRANCH  10  18
ATOM     18  O   UNL     1       1.325   1.213 -20.413  0.00  0.00    -0.385 OA
ATOM     19  H   UNL     1       2.014   1.781 -20.033  0.00  0.00    +0.210 HD
ENDBRANCH  10  18
BRANCH   9  20
ATOM     20  O   UNL     1       3.196   0.876 -22.187  0.00  0.00    -0.386 OA
ATOM     21  H   UNL     1       3.742   1.562 -21.772  0.00  0.00    +0.210 HD
ENDBRANCH   9  20
BRANCH  15  22
ATOM     22  O   UNL     1      -0.651   3.084 -25.713  0.00  0.00    -0.503 OA
ATOM     23  H   UNL     1      -0.870   3.039 -26.623  0.00  0.00    +0.292 HD
ENDBRANCH  15  22
BRANCH   2  24
ATOM     24  O   UNL     1      -4.810   4.440 -24.640  0.00  0.00    -0.503 OA
ATOM     25  H   UNL     1      -5.607   4.055 -24.334  0.00  0.00    +0.292 HD
ENDBRANCH   2  24
BRANCH   8  26
ATOM     26  C   UNL     1       2.780   1.557 -24.660  0.00  0.00    +0.190 C 
BRANCH  26  27
ATOM     27  O   UNL     1       3.050   0.363 -25.102  0.00  0.00    -0.392 OA
ATOM     28  H   UNL     1       3.977   0.151 -24.911  0.00  0.00    +0.210 HD
ENDBRANCH  26  27
ENDBRANCH   8  26
TORSDOF 7
ENDMDL
