MODEL 1
REMARK VINA RESULT:    -8.845      0.000      0.000
REMARK INTER + INTRA:         -10.937
REMARK INTER:                 -10.863
REMARK INTRA:                  -0.074
REMARK UNBOUND:                -0.282
REMARK  Name = ZINC000019908782
REMARK  7 active torsions:
REMARK  status: ('A' for Active; 'I' for Inactive)
REMARK    1  A    between atoms: C_1  and  O_2
REMARK    2  A    between atoms: O_2  and  C_3
REMARK    3  A    between atoms: C_8  and  O_9
REMARK    4  A    between atoms: C_16  and  O_17
REMARK    5  A    between atoms: O_17  and  C_18
REMARK    6  A    between atoms: C_19  and  O_20
REMARK    7  A    between atoms: O_20  and  C_21
REMARK                            x       y       z     vdW  Elec       q    Type
REMARK                         _______ _______ _______ _____ _____    ______ ____
ROOT
ATOM      1  C   UNL     1      -3.659   4.031 -25.153  0.00  0.00    +0.162 A 
ATOM      2  C   UNL     1      -2.543   3.607 -24.638  0.00  0.00    +0.058 A 
ATOM      3  C   UNL     1      -2.519   3.153 -23.420  0.00  0.00    +0.008 A 
ATOM      4  C   UNL     1      -3.611   3.124 -22.716  0.00  0.00    -0.030 A 
ATOM      5  C   UNL     1      -3.588   2.671 -21.498  0.00  0.00    +0.086 C 
ATOM      6  C   UNL     1      -2.472   2.246 -20.984  0.00  0.00    +0.137 C 
ATOM      7  N   UNL     1      -1.380   2.276 -21.688  0.00  0.00    +0.244 N 
ATOM      8  H   UNL     1      -2.181   2.635 -22.206  0.00  0.00    +0.204 HD
ATOM      9  C   UNL     1      -0.263   1.852 -21.174  0.00  0.00    +0.169 C 
ATOM     10  C   UNL     1       0.829   1.881 -21.877  0.00  0.00    +0.004 A 
ATOM     11  C   UNL     1       1.945   1.457 -21.364  0.00  0.00    +0.058 A 
ATOM     12  C   UNL     1       3.038   1.486 -22.068  0.00  0.00    +0.162 A 
ATOM     13  C   UNL     1       3.015   1.939 -23.286  0.00  0.00    +0.162 A 
ATOM     14  C   UNL     1       1.899   2.364 -23.800  0.00  0.00    +0.053 A 
ATOM     15  C   UNL     1       0.806   2.334 -23.096  0.00  0.00    -0.030 A 
ATOM     16  C   UNL     1      -0.310   2.759 -23.610  0.00  0.00    +0.095 C 
ATOM     17  C   UNL     1      -4.727   3.548 -23.231  0.00  0.00    +0.053 A 
ATOM     18  C   UNL     1      -1.402   2.729 -22.906  0.00  0.00    +0.100 C 
ATOM     19  C   UNL     1      -4.751   4.002 -24.449  0.00  0.00    +0.159 A 
ENDROOT
BRANCH   1  21
ATOM     20  C   UNL     1      -3.317   3.720 -27.357  0.00  0.00    +0.277 C 
ATOM     21  O   UNL     1      -3.682   4.485 -26.371  0.00  0.00    -0.491 OA
ENDBRANCH   1  21
BRANCH  13  22
ATOM     22  O   UNL     1       4.107   1.969 -23.989  0.00  0.00    -0.491 OA
ATOM     23  C   UNL     1       4.953   2.944 -23.836  0.00  0.00    +0.277 C 
ENDBRANCH  13  22
BRANCH  12  24
ATOM     24  O   UNL     1       4.154   1.062 -21.553  0.00  0.00    -0.491 OA
ATOM     25  C   UNL     1       4.136   0.179 -20.598  0.00  0.00    +0.277 C 
ENDBRANCH  12  24
BRANCH  19  26
ATOM     26  O   UNL     1      -5.867   4.426 -24.963  0.00  0.00    -0.503 OA
ATOM     27  H   UNL     1      -5.909   5.276 -25.354  0.00  0.00    +0.292 HD
ENDBRANCH  19  26
TORSDOF 4
ENDMDL
