MODEL 1
REMARK VINA RESULT:    -8.132      0.000      0.000
REMARK INTER + INTRA:         -18.856
REMARK INTER:                 -16.442
REMARK INTRA:                  -2.414
REMARK UNBOUND:                -1.216
REMARK  Name = ZINC000085340947
REMARK  22 active torsions:
REMARK  status: ('A' for Active; 'I' for Inactive)
REMARK    1  A    between atoms: C_1  and  C_2
REMARK    2  A    between atoms: C_2  and  C_3
REMARK    3  A    between atoms: C_3  and  C_4
REMARK    4  A    between atoms: C_4  and  C_5
REMARK    5  A    between atoms: C_5  and  C_6
REMARK    6  A    between atoms: C_6  and  C_7
REMARK    7  A    between atoms: C_7  and  C_8
REMARK    8  A    between atoms: C_8  and  C_9
REMARK    9  A    between atoms: C_9  and  C_10
REMARK   10  A    between atoms: C_10  and  C_11
REMARK   11  A    between atoms: C_11  and  C_12
REMARK   12  A    between atoms: N_16  and  C_17
REMARK   13  A    between atoms: C_17  and  C_18
REMARK   14  A    between atoms: C_18  and  C_19
REMARK   15  A    between atoms: C_19  and  C_20
REMARK   16  A    between atoms: C_20  and  O_21
REMARK   17  A    between atoms: C_23  and  N_24
REMARK   18  A    between atoms: N_24  and  C_25
REMARK   19  A    between atoms: C_25  and  C_26
REMARK   20  A    between atoms: C_26  and  C_27
REMARK   21  A    between atoms: C_27  and  C_28
REMARK   22  A    between atoms: C_28  and  O_29
REMARK                            x       y       z     vdW  Elec       q    Type
REMARK                         _______ _______ _______ _____ _____    ______ ____
ROOT
ATOM      1  C   UNL     1       1.708   4.070 -24.284  0.00  0.00    -0.010 C 
ATOM      2  C   UNL     1       2.382   4.986 -23.654  0.00  0.00    +0.206 C 
ATOM      3  C   UNL     1       3.555   4.710 -23.165  0.00  0.00    +0.107 C 
ATOM      4  C   UNL     1       4.054   3.518 -23.306  0.00  0.00    +0.053 C 
ATOM      5  C   UNL     1       3.380   2.601 -23.936  0.00  0.00    +0.016 C 
ATOM      6  N   UNL     1       4.229   5.627 -22.536  0.00  0.00    -0.280 NA
ATOM      7  O   UNL     1       1.884   6.178 -23.513  0.00  0.00    -0.285 OA
ATOM      8  C   UNL     1       2.207   2.878 -24.425  0.00  0.00    -0.112 C 
ATOM      9  O   UNL     1       1.533   1.962 -25.054  0.00  0.00    -0.828 OA
ENDROOT
BRANCH   5  10
ATOM     10  N   UNL     1       3.878   1.409 -24.077  0.00  0.00    -0.345 N 
ATOM     11  H   UNL     1       3.909   0.991 -24.968  0.00  0.00    +0.146 HD
BRANCH  10  12
ATOM     12  C   UNL     1       4.335   0.770 -23.042  0.00  0.00    +0.101 C 
BRANCH  12  13
ATOM     13  C   UNL     1       3.527   0.421 -22.085  0.00  0.00    +0.021 C 
BRANCH  13  14
ATOM     14  C   UNL     1       3.890   0.561 -20.844  0.00  0.00    +0.029 C 
BRANCH  14  15
ATOM     15  C   UNL     1       4.950   1.253 -20.551  0.00  0.00    +0.156 C 
BRANCH  15  16
ATOM     16  O   UNL     1       5.794   0.807 -19.669  0.00  0.00    -0.395 OA
ATOM     17  H   UNL     1       6.072   1.534 -19.090  0.00  0.00    +0.209 HD
ENDBRANCH  15  16
ENDBRANCH  14  15
ENDBRANCH  13  14
ENDBRANCH  12  13
ENDBRANCH  10  12
ENDBRANCH   5  10
BRANCH   1  18
ATOM     18  C   UNL     1       0.536   4.345 -24.773  0.00  0.00    +0.038 C 
BRANCH  18  19
ATOM     19  C   UNL     1      -0.502   4.385 -23.989  0.00  0.00    +0.005 C 
BRANCH  19  20
ATOM     20  C   UNL     1      -1.515   3.601 -24.212  0.00  0.00    +0.000 C 
BRANCH  20  21
ATOM     21  C   UNL     1      -1.608   2.466 -23.587  0.00  0.00    +0.000 C 
BRANCH  21  22
ATOM     22  C   UNL     1      -1.256   2.381 -22.337  0.00  0.00    +0.000 C 
BRANCH  22  23
ATOM     23  C   UNL     1      -2.152   2.154 -21.424  0.00  0.00    +0.000 C 
BRANCH  23  24
ATOM     24  C   UNL     1      -2.643   3.141 -20.736  0.00  0.00    -0.000 C 
BRANCH  24  25
ATOM     25  C   UNL     1      -3.791   3.655 -21.065  0.00  0.00    -0.000 C 
BRANCH  25  26
ATOM     26  C   UNL     1      -4.738   2.891 -21.523  0.00  0.00    -0.000 C 
BRANCH  26  28
ATOM     27  C   UNL     1      -5.242   3.803 -23.518  0.00  0.00    +0.004 C 
ATOM     28  C   UNL     1      -5.617   3.371 -22.351  0.00  0.00    -0.003 C 
ENDBRANCH  26  28
ENDBRANCH  25  26
ENDBRANCH  24  25
ENDBRANCH  23  24
ENDBRANCH  22  23
ENDBRANCH  21  22
ENDBRANCH  20  21
ENDBRANCH  19  20
ENDBRANCH  18  19
ENDBRANCH   1  18
BRANCH   6  29
ATOM     29  C   UNL     1       3.730   6.819 -22.395  0.00  0.00    +0.142 C 
BRANCH  29  30
ATOM     30  C   UNL     1       4.459   7.774 -21.898  0.00  0.00    +0.025 C 
BRANCH  30  31
ATOM     31  C   UNL     1       5.744   7.618 -21.786  0.00  0.00    +0.030 C 
BRANCH  31  32
ATOM     32  C   UNL     1       6.297   7.609 -20.608  0.00  0.00    +0.156 C 
BRANCH  32  33
ATOM     33  O   UNL     1       5.638   7.156 -19.584  0.00  0.00    -0.395 OA
ATOM     34  H   UNL     1       5.387   7.894 -19.007  0.00  0.00    +0.209 HD
ENDBRANCH  32  33
ENDBRANCH  31  32
ENDBRANCH  30  31
ENDBRANCH  29  30
ENDBRANCH   6  29
TORSDOF 21
ENDMDL
