MODEL 1
REMARK VINA RESULT:    -9.603      0.000      0.000
REMARK INTER + INTRA:         -13.079
REMARK INTER:                 -12.472
REMARK INTRA:                  -0.607
REMARK UNBOUND:                -0.670
REMARK  Name = ZINC000000268191
REMARK  6 active torsions:
REMARK  status: ('A' for Active; 'I' for Inactive)
REMARK    1  A    between atoms: C_1  and  O_2
REMARK    2  A    between atoms: O_2  and  C_3
REMARK    3  A    between atoms: C_6  and  C_7
REMARK    4  A    between atoms: C_7  and  O_9
REMARK    5  A    between atoms: O_9  and  C_10
REMARK    6  A    between atoms: C_10  and  C_11
REMARK                            x       y       z     vdW  Elec       q    Type
REMARK                         _______ _______ _______ _____ _____    ______ ____
ROOT
ATOM      1  C   UNL     1      -1.361   4.192 -24.373  0.00  0.00    +0.241 C 
ENDROOT
BRANCH   1   2
ATOM      2  C   UNL     1      -2.644   4.053 -24.211  0.00  0.00    +0.075 C 
ATOM      3  C   UNL     1      -3.454   4.308 -25.196  0.00  0.00    +0.017 C 
ATOM      4  C   UNL     1      -4.736   4.169 -25.034  0.00  0.00    +0.051 C 
ATOM      5  C   UNL     1      -5.209   3.777 -23.889  0.00  0.00    +0.131 C 
ATOM      6  N   UNL     1      -4.399   3.522 -22.904  0.00  0.00    +0.238 N 
ATOM      7  H   UNL     1      -5.402   3.409 -22.762  0.00  0.00    +0.204 HD
ATOM      8  C   UNL     1      -4.872   3.130 -21.758  0.00  0.00    +0.131 C 
ATOM      9  C   UNL     1      -4.061   2.876 -20.774  0.00  0.00    +0.051 C 
ATOM     10  C   UNL     1      -2.779   3.014 -20.935  0.00  0.00    +0.011 C 
ATOM     11  C   UNL     1      -2.306   3.407 -22.081  0.00  0.00    +0.055 C 
ATOM     12  C   UNL     1      -3.116   3.661 -23.066  0.00  0.00    +0.071 C 
ENDBRANCH   1   2
BRANCH   1  13
ATOM     13  O   UNL     1      -0.682   3.277 -24.999  0.00  0.00    -0.461 OA
BRANCH  13  14
ATOM     14  C   UNL     1       0.616   3.331 -25.019  0.00  0.00    +0.339 C 
ATOM     15  O   UNL     1       1.219   4.199 -25.775  0.00  0.00    -0.245 OA
BRANCH  14  19
ATOM     16  C   UNL     1       2.705   0.886 -22.811  0.00  0.00    +0.120 A 
ATOM     17  C   UNL     1       1.676   1.499 -22.306  0.00  0.00    +0.046 A 
ATOM     18  C   UNL     1       0.979   2.315 -23.043  0.00  0.00    +0.018 A 
ATOM     19  C   UNL     1       1.313   2.516 -24.283  0.00  0.00    +0.059 A 
ATOM     20  C   UNL     1       2.342   1.902 -24.788  0.00  0.00    +0.018 A 
ATOM     21  C   UNL     1       3.037   1.088 -24.052  0.00  0.00    +0.046 A 
BRANCH  16  23
ATOM     22  C   UNL     1       3.860   0.465 -20.926  0.00  0.00    +0.277 C 
ATOM     23  O   UNL     1       3.401   0.071 -22.076  0.00  0.00    -0.495 OA
ENDBRANCH  16  23
ENDBRANCH  14  19
ENDBRANCH  13  14
ENDBRANCH   1  13
TORSDOF 5
ENDMDL
