MODEL 1
REMARK VINA RESULT:    -9.817      0.000      0.000
REMARK INTER + INTRA:          -9.817
REMARK INTER:                  -9.817
REMARK INTRA:                   0.000
REMARK UNBOUND:                 0.000
REMARK  Name = ZINC000000338172
REMARK  2 active torsions:
REMARK  status: ('A' for Active; 'I' for Inactive)
REMARK    1  A    between atoms: C_1  and  N_2
REMARK    2  A    between atoms: N_2  and  C_3
REMARK                            x       y       z     vdW  Elec       q    Type
REMARK                         _______ _______ _______ _____ _____    ______ ____
ROOT
ATOM      1  C   UNL     1       2.226   2.637 -24.265  0.00  0.00    +0.193 C 
ATOM      2  N   UNL     1       0.950   2.711 -24.029  0.00  0.00    +0.245 N 
ATOM      3  C   UNL     1       1.383   2.411 -22.841  0.00  0.00    +0.138 C 
ATOM      4  C   UNL     1       0.542   2.281 -21.857  0.00  0.00    +0.086 C 
ATOM      5  C   UNL     1      -0.730   2.450 -22.062  0.00  0.00    -0.030 A 
ATOM      6  C   UNL     1      -1.570   2.320 -21.078  0.00  0.00    +0.054 A 
ATOM      7  C   UNL     1      -2.843   2.489 -21.283  0.00  0.00    +0.167 A 
ATOM      8  C   UNL     1      -3.275   2.790 -22.472  0.00  0.00    +0.174 A 
ATOM      9  O   UNL     1      -4.568   2.904 -22.412  0.00  0.00    -0.452 OA
ATOM     10  C   UNL     1      -4.936   2.674 -21.186  0.00  0.00    +0.466 C 
ATOM     11  C   UNL     1      -2.435   2.920 -23.456  0.00  0.00    +0.037 A 
ATOM     12  C   UNL     1      -2.867   3.220 -24.644  0.00  0.00    -0.010 A 
ATOM     13  C   UNL     1      -4.140   3.390 -24.849  0.00  0.00    +0.009 A 
ATOM     14  C   UNL     1      -4.573   3.690 -26.038  0.00  0.00    +0.001 A 
ATOM     15  C   UNL     1      -3.733   3.821 -27.021  0.00  0.00    +0.000 A 
ATOM     16  C   UNL     1      -2.460   3.651 -26.816  0.00  0.00    +0.004 A 
ATOM     17  C   UNL     1      -2.028   3.351 -25.628  0.00  0.00    -0.034 A 
ATOM     18  C   UNL     1      -0.754   3.181 -25.423  0.00  0.00    +0.095 C 
ATOM     19  O   UNL     1      -3.869   2.418 -20.489  0.00  0.00    -0.453 OA
ATOM     20  C   UNL     1      -1.162   2.750 -23.250  0.00  0.00    +0.015 A 
ATOM     21  C   UNL     1       0.961   2.986 -25.300  0.00  0.00    +0.193 C 
ATOM     22  C   UNL     1      -0.322   2.881 -24.235  0.00  0.00    +0.102 C 
ENDROOT
TORSDOF 0
ENDMDL
