MODEL 1
REMARK VINA RESULT:    -9.707      0.000      0.000
REMARK INTER + INTRA:         -10.241
REMARK INTER:                 -10.300
REMARK INTRA:                   0.059
REMARK UNBOUND:                 0.034
REMARK  Name = ZINC000004104837
REMARK  5 active torsions:
REMARK  status: ('A' for Active; 'I' for Inactive)
REMARK    1  A    between atoms: C_1  and  O_2
REMARK    2  A    between atoms: O_2  and  C_3
REMARK    3  A    between atoms: C_5  and  C_6
REMARK    4  A    between atoms: C_9  and  C_10
REMARK    5  A    between atoms: C_15  and  C_16
REMARK                            x       y       z     vdW  Elec       q    Type
REMARK                         _______ _______ _______ _____ _____    ______ ____
ROOT
ATOM      1  C   UNL     1      -4.923   3.398 -22.482  0.00  0.00    +0.124 A 
ATOM      2  C   UNL     1      -5.046   3.834 -23.701  0.00  0.00    +0.049 A 
ATOM      3  C   UNL     1      -4.016   3.843 -24.494  0.00  0.00    -0.043 A 
ATOM      4  C   UNL     1      -2.864   3.417 -24.069  0.00  0.00    -0.037 A 
ATOM      5  C   UNL     1      -2.741   2.981 -22.851  0.00  0.00    +0.003 A 
ATOM      6  C   UNL     1      -1.589   2.554 -22.426  0.00  0.00    +0.211 C 
ATOM      7  O   UNL     1      -1.207   2.077 -21.278  0.00  0.00    -0.456 OA
ATOM      8  C   UNL     1       0.058   1.792 -21.362  0.00  0.00    +0.311 C 
ATOM      9  C   UNL     1       0.459   2.093 -22.562  0.00  0.00    +0.102 C 
ATOM     10  C   UNL     1       1.665   1.948 -23.024  0.00  0.00    +0.019 C 
ATOM     11  O   UNL     1       0.794   1.295 -20.413  0.00  0.00    -0.251 OA
ATOM     12  C   UNL     1      -0.560   2.563 -23.219  0.00  0.00    +0.048 C 
ATOM     13  C   UNL     1      -0.682   3.000 -24.438  0.00  0.00    +0.013 C 
ATOM     14  C   UNL     1      -1.834   3.426 -24.863  0.00  0.00    +0.036 C 
ATOM     15  C   UNL     1      -4.139   4.279 -25.713  0.00  0.00    +0.044 C 
ATOM     16  C   UNL     1      -3.771   2.971 -22.057  0.00  0.00    -0.002 A 
ATOM     17  C   UNL     1      -3.648   2.535 -20.839  0.00  0.00    +0.048 C 
ENDROOT
BRANCH   1  19
ATOM     18  C   UNL     1      -6.869   2.476 -21.822  0.00  0.00    +0.277 C 
ATOM     19  O   UNL     1      -5.952   3.388 -21.689  0.00  0.00    -0.495 OA
ENDBRANCH   1  19
TORSDOF 1
ENDMDL
