MODEL 1
REMARK VINA RESULT:    -8.830      0.000      0.000
REMARK INTER + INTRA:         -16.606
REMARK INTER:                 -14.846
REMARK INTRA:                  -1.759
REMARK UNBOUND:                -1.581
REMARK  Name = CCCCCCCCCCCC1=C(O)C(=O)C=C(Nc2cccc(C)c2)C1=O                         ZINC000100393417
REMARK  14 active torsions:
REMARK  status: ('A' for Active; 'I' for Inactive)
REMARK    1  A    between atoms: C_1  and  C_2
REMARK    2  A    between atoms: C_2  and  C_3
REMARK    3  A    between atoms: C_3  and  C_4
REMARK    4  A    between atoms: C_4  and  C_5
REMARK    5  A    between atoms: C_5  and  C_6
REMARK    6  A    between atoms: C_6  and  C_7
REMARK    7  A    between atoms: C_7  and  C_8
REMARK    8  A    between atoms: C_8  and  C_9
REMARK    9  A    between atoms: C_9  and  C_10
REMARK   10  A    between atoms: C_10  and  C_11
REMARK   11  A    between atoms: C_11  and  C_12
REMARK   12  A    between atoms: C_18  and  N_19
REMARK   13  A    between atoms: N_19  and  C_20
REMARK   14  A    between atoms: C_24  and  C_25
REMARK                            x       y       z     vdW  Elec       q    Type
REMARK                         _______ _______ _______ _____ _____    ______ ____
ROOT
ATOM      1  C   UNL     1      -0.592   2.950 -22.648  0.00  0.00    -0.008 C 
ATOM      2  C   UNL     1      -0.311   4.161 -23.029  0.00  0.00    +0.228 C 
ATOM      3  C   UNL     1       0.870   4.436 -23.500  0.00  0.00    +0.227 C 
ATOM      4  C   UNL     1       1.768   3.501 -23.589  0.00  0.00    +0.077 C 
ATOM      5  C   UNL     1       1.487   2.290 -23.207  0.00  0.00    +0.022 C 
ATOM      6  O   UNL     1       1.151   5.646 -23.881  0.00  0.00    -0.284 OA
ATOM      7  O   UNL     1      -1.210   5.096 -22.940  0.00  0.00    -0.284 OA
ATOM      8  C   UNL     1       0.306   2.015 -22.736  0.00  0.00    -0.112 C 
ATOM      9  O   UNL     1       0.025   0.805 -22.355  0.00  0.00    -0.828 OA
ENDROOT
BRANCH   5  10
ATOM     10  N   UNL     1       2.386   1.356 -23.296  0.00  0.00    -0.315 N 
ATOM     11  H   UNL     1       2.314   0.670 -23.999  0.00  0.00    +0.152 HD
BRANCH  10  12
ATOM     12  C   UNL     1       3.378   1.326 -22.457  0.00  0.00    +0.032 A 
ATOM     13  C   UNL     1       3.419   0.415 -21.531  0.00  0.00    +0.023 A 
ATOM     14  C   UNL     1       4.412   0.386 -20.691  0.00  0.00    +0.002 A 
ATOM     15  C   UNL     1       5.363   1.267 -20.778  0.00  0.00    +0.003 A 
ATOM     16  C   UNL     1       5.321   2.178 -21.704  0.00  0.00    -0.049 A 
ATOM     17  C   UNL     1       6.273   3.061 -21.791  0.00  0.00    +0.044 C 
ATOM     18  C   UNL     1       4.329   2.208 -22.543  0.00  0.00    +0.026 A 
ENDBRANCH  10  12
ENDBRANCH   5  10
BRANCH   1  19
ATOM     19  C   UNL     1      -1.772   2.675 -22.177  0.00  0.00    +0.038 C 
BRANCH  19  20
ATOM     20  C   UNL     1      -2.078   3.004 -20.958  0.00  0.00    +0.005 C 
BRANCH  20  21
ATOM     21  C   UNL     1      -3.317   3.240 -20.639  0.00  0.00    +0.000 C 
BRANCH  21  22
ATOM     22  C   UNL     1      -4.240   2.374 -20.936  0.00  0.00    +0.000 C 
BRANCH  22  23
ATOM     23  C   UNL     1      -5.281   2.745 -21.621  0.00  0.00    +0.000 C 
BRANCH  23  24
ATOM     24  C   UNL     1      -5.199   3.761 -22.429  0.00  0.00    +0.000 C 
BRANCH  24  25
ATOM     25  C   UNL     1      -5.557   3.633 -23.672  0.00  0.00    -0.000 C 
BRANCH  25  26
ATOM     26  C   UNL     1      -5.089   4.448 -24.571  0.00  0.00    -0.000 C 
BRANCH  26  27
ATOM     27  C   UNL     1      -3.833   4.403 -24.899  0.00  0.00    -0.000 C 
BRANCH  27  29
ATOM     28  C   UNL     1      -2.156   3.414 -26.032  0.00  0.00    +0.004 C 
ATOM     29  C   UNL     1      -3.374   3.393 -25.577  0.00  0.00    -0.003 C 
ENDBRANCH  27  29
ENDBRANCH  26  27
ENDBRANCH  25  26
ENDBRANCH  24  25
ENDBRANCH  23  24
ENDBRANCH  22  23
ENDBRANCH  21  22
ENDBRANCH  20  21
ENDBRANCH  19  20
ENDBRANCH   1  19
TORSDOF 12
ENDMDL
