MODEL 1
REMARK VINA RESULT:    -9.383      0.000      0.000
REMARK INTER + INTRA:          -3.278
REMARK INTER:                 -11.146
REMARK INTRA:                   7.868
REMARK UNBOUND:                 8.299
REMARK  Name = COC(=O)[C@]12Oc3c(OC)ccc4c3[C@@]13CCN(C)[C@@H](C4)C3=CC=C2OC         ZINC000100393586
REMARK  8 active torsions:
REMARK  status: ('A' for Active; 'I' for Inactive)
REMARK    1  A    between atoms: C_1  and  O_2
REMARK    2  A    between atoms: O_2  and  C_3
REMARK    3  A    between atoms: C_3  and  C_5
REMARK    4  A    between atoms: C_8  and  O_9
REMARK    5  A    between atoms: O_9  and  C_10
REMARK    6  A    between atoms: N_18  and  C_19
REMARK    7  A    between atoms: C_25  and  O_26
REMARK    8  A    between atoms: O_26  and  C_27
REMARK                            x       y       z     vdW  Elec       q    Type
REMARK                         _______ _______ _______ _____ _____    ______ ____
ROOT
ATOM      1  C   UNL     1      -2.706   3.043 -22.709  0.00  0.00    +0.275 C 
ATOM      2  O   UNL     1      -1.591   2.656 -21.750  0.00  0.00    -0.461 OA
ATOM      3  C   UNL     1      -0.237   2.537 -22.414  0.00  0.00    +0.169 A 
ATOM      4  C   UNL     1       1.005   2.283 -22.262  0.00  0.00    +0.162 A 
ATOM      5  C   UNL     1       1.784   2.334 -23.271  0.00  0.00    +0.050 A 
ATOM      6  C   UNL     1       1.335   2.634 -24.410  0.00  0.00    +0.008 A 
ATOM      7  C   UNL     1       0.106   2.885 -24.557  0.00  0.00    -0.034 A 
ATOM      8  C   UNL     1      -0.353   3.190 -25.715  0.00  0.00    +0.094 C 
ATOM      9  C   UNL     1      -1.579   3.441 -25.861  0.00  0.00    +0.096 C 
ATOM     10  C   UNL     1      -2.360   3.390 -24.854  0.00  0.00    -0.006 C 
ATOM     11  C   UNL     1      -3.599   3.644 -25.004  0.00  0.00    +0.009 C 
ATOM     12  C   UNL     1      -4.379   3.596 -24.013  0.00  0.00    +0.046 C 
ATOM     13  N   UNL     1      -2.956   3.744 -26.135  0.00  0.00    +0.239 N 
ATOM     14  H   UNL     1      -3.285   3.983 -27.070  0.00  0.00    +0.204 HD
ATOM     15  C   UNL     1      -3.347   4.037 -27.296  0.00  0.00    +0.191 C 
ATOM     16  C   UNL     1      -3.854   3.697 -25.036  0.00  0.00    +0.133 C 
ATOM     17  C   UNL     1      -3.320   3.356 -23.763  0.00  0.00    +0.072 C 
ATOM     18  C   UNL     1      -0.686   2.840 -23.566  0.00  0.00    +0.017 A 
ATOM     19  C   UNL     1      -3.933   3.294 -22.860  0.00  0.00    +0.153 C 
ATOM     20  C   UNL     1      -1.910   3.091 -23.715  0.00  0.00    +0.088 C 
ENDROOT
BRANCH   1  21
ATOM     21  C   UNL     1      -3.136   2.876 -21.430  0.00  0.00    +0.360 C 
ATOM     22  O   UNL     1      -3.503   1.879 -21.025  0.00  0.00    -0.246 OA
BRANCH  21  24
ATOM     23  C   UNL     1      -3.254   3.648 -19.376  0.00  0.00    +0.280 C 
ATOM     24  O   UNL     1      -3.158   3.828 -20.590  0.00  0.00    -0.465 OA
ENDBRANCH  21  24
ENDBRANCH   1  21
BRANCH   4  25
ATOM     25  O   UNL     1       1.456   1.983 -21.125  0.00  0.00    -0.491 OA
ATOM     26  C   UNL     1       2.620   1.512 -21.011  0.00  0.00    +0.277 C 
ENDBRANCH   4  25
BRANCH  19  27
ATOM     27  O   UNL     1      -4.729   3.265 -21.950  0.00  0.00    -0.495 OA
ATOM     28  C   UNL     1      -5.955   3.268 -22.223  0.00  0.00    +0.276 C 
ENDBRANCH  19  27
TORSDOF 4
ENDMDL
