MODEL 1
REMARK VINA RESULT:   -10.115      0.000      0.000
REMARK INTER + INTRA:         -10.115
REMARK INTER:                 -10.115
REMARK INTRA:                   0.000
REMARK UNBOUND:                 0.000
REMARK  Name = ZINC000043604260
REMARK  2 active torsions:
REMARK  status: ('A' for Active; 'I' for Inactive)
REMARK    1  A    between atoms: C_8  and  C_9
REMARK    2  A    between atoms: C_13  and  C_14
REMARK                            x       y       z     vdW  Elec       q    Type
REMARK                         _______ _______ _______ _____ _____    ______ ____
ROOT
ATOM      1  C   UNL     1       0.478   1.504 -21.177  0.00  0.00    +0.020 C 
ATOM      2  C   UNL     1       0.147   2.048 -22.310  0.00  0.00    +0.040 C 
ATOM      3  C   UNL     1       0.946   2.280 -23.309  0.00  0.00    +0.336 C 
ATOM      4  O   UNL     1       0.252   2.832 -24.259  0.00  0.00    -0.457 OA
ATOM      5  C   UNL     1      -0.976   2.941 -23.847  0.00  0.00    +0.189 C 
ATOM      6  C   UNL     1      -2.044   3.419 -24.414  0.00  0.00    +0.056 C 
ATOM      7  C   UNL     1      -3.177   3.413 -23.777  0.00  0.00    -0.007 C 
ATOM      8  C   UNL     1      -4.245   3.891 -24.344  0.00  0.00    +0.011 C 
ATOM      9  C   UNL     1      -5.377   3.885 -23.706  0.00  0.00    +0.001 C 
ATOM     10  C   UNL     1      -5.442   3.400 -22.501  0.00  0.00    +0.007 C 
ATOM     11  C   UNL     1      -4.375   2.922 -21.934  0.00  0.00    +0.012 C 
ATOM     12  C   UNL     1      -4.440   2.437 -20.729  0.00  0.00    +0.012 C 
ATOM     13  C   UNL     1      -3.112   3.898 -24.982  0.00  0.00    +0.016 C 
ATOM     14  C   UNL     1      -3.241   2.928 -22.572  0.00  0.00    -0.064 C 
ATOM     15  C   UNL     1      -2.174   2.450 -22.005  0.00  0.00    -0.015 C 
ATOM     16  O   UNL     1       2.217   2.008 -23.350  0.00  0.00    -0.245 OA
ATOM     17  C   UNL     1      -1.041   2.457 -22.643  0.00  0.00    +0.089 C 
ENDROOT
TORSDOF 0
ENDMDL
