MODEL 1
REMARK VINA RESULT:   -11.316      0.000      0.000
REMARK INTER + INTRA:         -12.529
REMARK INTER:                 -12.536
REMARK INTRA:                   0.006
REMARK UNBOUND:                 0.110
REMARK  Name = C/C=C1\[C@@H]2CCN3CC[C@@]4(C(=C2C(=O)OC)Nc2ccccc24)[C@@H]13          ZINC000141196469
REMARK  4 active torsions:
REMARK  status: ('A' for Active; 'I' for Inactive)
REMARK    1  A    between atoms: C_1  and  C_2
REMARK    2  A    between atoms: C_12  and  C_13
REMARK    3  A    between atoms: C_13  and  O_15
REMARK    4  A    between atoms: O_15  and  C_16
REMARK                            x       y       z     vdW  Elec       q    Type
REMARK                         _______ _______ _______ _____ _____    ______ ____
ROOT
ATOM      1  C   UNL     1      -0.192   2.383 -23.008  0.00  0.00    +0.035 C 
ATOM      2  C   UNL     1      -0.619   2.579 -23.262  0.00  0.00    -0.025 C 
ATOM      3  C   UNL     1       0.013   2.620 -23.740  0.00  0.00    -0.017 C 
ATOM      4  C   UNL     1       0.882   2.380 -23.635  0.00  0.00    +0.064 C 
ATOM      5  C   UNL     1       1.571   2.678 -24.813  0.00  0.00    +0.064 C 
ATOM      6  C   UNL     1       0.673   3.273 -25.817  0.00  0.00    +0.133 C 
ATOM      7  N   UNL     1      -0.640   3.387 -25.334  0.00  0.00    +0.241 N 
ATOM      8  H   UNL     1      -0.567   3.740 -26.289  0.00  0.00    +0.204 HD
ATOM      9  C   UNL     1      -1.930   3.763 -25.543  0.00  0.00    +0.133 C 
ATOM     10  C   UNL     1      -2.591   3.450 -24.346  0.00  0.00    +0.074 C 
ATOM     11  C   UNL     1      -1.610   2.911 -23.533  0.00  0.00    +0.087 C 
ATOM     12  C   UNL     1      -1.055   2.271 -22.208  0.00  0.00    +0.035 C 
ATOM     13  N   UNL     1      -2.110   2.185 -21.364  0.00  0.00    -0.316 N 
ATOM     14  H   UNL     1      -2.086   1.825 -20.447  0.00  0.00    +0.152 HD
ATOM     15  C   UNL     1      -3.271   2.710 -22.033  0.00  0.00    +0.035 A 
ATOM     16  C   UNL     1      -4.559   2.838 -21.602  0.00  0.00    +0.023 A 
ATOM     17  C   UNL     1      -5.517   3.377 -22.427  0.00  0.00    +0.002 A 
ATOM     18  C   UNL     1      -5.180   3.791 -23.694  0.00  0.00    +0.000 A 
ATOM     19  C   UNL     1      -3.889   3.670 -24.145  0.00  0.00    +0.006 A 
ATOM     20  C   UNL     1      -2.930   3.136 -23.334  0.00  0.00    -0.009 A 
ATOM     21  C   UNL     1       0.623   1.959 -22.394  0.00  0.00    +0.062 C 
ATOM     22  C   UNL     1      -0.666   2.948 -24.186  0.00  0.00    +0.108 C 
ENDROOT
BRANCH  21  23
ATOM     23  C   UNL     1       1.321   1.392 -21.345  0.00  0.00    +0.337 C 
ATOM     24  O   UNL     1       0.690   1.399 -20.123  0.00  0.00    -0.245 OA
BRANCH  23  25
ATOM     25  O   UNL     1       2.520   0.855 -21.410  0.00  0.00    -0.465 OA
ATOM     26  C   UNL     1       3.592   1.716 -21.261  0.00  0.00    +0.280 C 
ENDBRANCH  23  25
ENDBRANCH  21  23
TORSDOF 2
ENDMDL
