MODEL 1
REMARK VINA RESULT:   -11.332      0.000      0.000
REMARK INTER + INTRA:         -12.117
REMARK INTER:                 -11.969
REMARK INTRA:                  -0.148
REMARK UNBOUND:                -0.123
REMARK  Name = COc1ccc2c3c1O[C@]1(C)C(=O)C=C[C@]4(Br)[C@@H](C2)N(C)CC[C@]314        ZINC000253505035
REMARK  4 active torsions:
REMARK  status: ('A' for Active; 'I' for Inactive)
REMARK    1  A    between atoms: C_1  and  O_2
REMARK    2  A    between atoms: O_2  and  C_3
REMARK    3  A    between atoms: C_10  and  C_11
REMARK    4  A    between atoms: N_20  and  C_21
REMARK                            x       y       z     vdW  Elec       q    Type
REMARK                         _______ _______ _______ _____ _____    ______ ____
ROOT
ATOM      1  C   UNL     1       0.443   2.184 -23.231  0.00  0.00    +0.162 A 
ATOM      2  C   UNL     1       0.378   1.832 -22.017  0.00  0.00    +0.050 A 
ATOM      3  C   UNL     1      -0.706   1.899 -21.393  0.00  0.00    +0.008 A 
ATOM      4  C   UNL     1      -1.735   2.316 -21.973  0.00  0.00    -0.034 A 
ATOM      5  C   UNL     1      -1.693   2.672 -23.185  0.00  0.00    +0.014 A 
ATOM      6  C   UNL     1      -2.723   3.089 -23.762  0.00  0.00    +0.075 C 
ATOM      7  C   UNL     1      -3.828   3.578 -24.521  0.00  0.00    +0.069 C 
ATOM      8  C   UNL     1      -5.064   3.663 -23.843  0.00  0.00    +0.132 C 
ATOM      9  N   UNL     1      -5.099   3.264 -22.493  0.00  0.00    +0.237 N 
ATOM     10  H   UNL     1      -5.973   3.311 -21.968  0.00  0.00    +0.203 HD
ATOM     11  C   UNL     1      -6.156   3.309 -21.822  0.00  0.00    +0.191 C 
ATOM     12  C   UNL     1      -3.875   2.804 -21.923  0.00  0.00    +0.090 C 
ATOM     13  C   UNL     1      -3.804   3.154 -23.137  0.00  0.00    +0.101 C 
ATOM     14 BR   UNL     1      -2.777   2.736 -22.553  0.00  0.00    -0.073 Br
ATOM     15  C   UNL     1      -4.850   3.574 -23.714  0.00  0.00    +0.001 C 
ATOM     16  C   UNL     1      -4.799   3.926 -24.919  0.00  0.00    +0.048 C 
ATOM     17  C   UNL     1      -3.709   3.864 -25.563  0.00  0.00    +0.200 C 
ATOM     18  O   UNL     1      -3.663   4.216 -26.763  0.00  0.00    -0.288 OA
ATOM     19  C   UNL     1      -2.673   3.446 -24.985  0.00  0.00    +0.181 C 
ATOM     20  C   UNL     1      -2.337   3.723 -26.162  0.00  0.00    +0.065 C 
ATOM     21  O   UNL     1      -1.197   3.132 -25.093  0.00  0.00    -0.473 OA
ATOM     22  C   UNL     1      -2.845   2.387 -21.344  0.00  0.00    +0.091 C 
ATOM     23  C   UNL     1      -0.600   2.606 -23.817  0.00  0.00    +0.168 A 
ENDROOT
BRANCH   1  25
ATOM     24  C   UNL     1       2.191   3.156 -24.075  0.00  0.00    +0.277 C 
ATOM     25  O   UNL     1       1.529   2.116 -23.851  0.00  0.00    -0.491 OA
ENDBRANCH   1  25
TORSDOF 1
ENDMDL
