MODEL 1
REMARK VINA RESULT:   -11.089      0.000      0.000
REMARK INTER + INTRA:         -11.737
REMARK INTER:                 -11.737
REMARK INTRA:                   0.000
REMARK UNBOUND:                 0.000
REMARK  Name = C[C@]12CC[C@@H]3c4cc(Br)c(O)cc4CC[C@H]3[C@H]1CC[C@@H]2O              ZINC000253393404
REMARK  3 active torsions:
REMARK  status: ('A' for Active; 'I' for Inactive)
REMARK    1  A    between atoms: C_1  and  C_2
REMARK    2  A    between atoms: C_10  and  O_11
REMARK    3  A    between atoms: C_20  and  O_21
REMARK                            x       y       z     vdW  Elec       q    Type
REMARK                         _______ _______ _______ _____ _____    ______ ____
ROOT
ATOM      1  C   UNL     1      -4.555   3.052 -21.820  0.00  0.00    +0.014 C 
ATOM      2  C   UNL     1      -3.830   3.303 -22.869  0.00  0.00    -0.003 C 
ATOM      3  C   UNL     1      -3.168   2.774 -21.884  0.00  0.00    +0.010 C 
ATOM      4  C   UNL     1      -1.894   2.543 -22.006  0.00  0.00    +0.009 C 
ATOM      5  C   UNL     1      -1.283   2.842 -23.114  0.00  0.00    +0.023 C 
ATOM      6  C   UNL     1      -0.010   2.612 -23.237  0.00  0.00    -0.040 A 
ATOM      7  C   UNL     1       0.653   2.083 -22.253  0.00  0.00    +0.023 A 
ATOM      8  C   UNL     1       1.927   1.852 -22.374  0.00  0.00    +0.060 A 
ATOM      9  C   UNL     1       2.537   2.151 -23.484  0.00  0.00    +0.131 A 
ATOM     10  C   UNL     1       1.875   2.681 -24.468  0.00  0.00    +0.050 A 
ATOM     11 BR   UNL     1       2.589   1.323 -21.390  0.00  0.00    -0.047 Br
ATOM     12  C   UNL     1       0.601   2.911 -24.345  0.00  0.00    -0.040 A 
ATOM     13  C   UNL     1      -0.062   3.440 -25.330  0.00  0.00    +0.036 C 
ATOM     14  C   UNL     1      -1.335   3.671 -25.208  0.00  0.00    +0.009 C 
ATOM     15  C   UNL     1      -1.946   3.372 -24.100  0.00  0.00    +0.000 C 
ATOM     16  C   UNL     1      -5.082   3.628 -23.000  0.00  0.00    +0.121 C 
ATOM     17  C   UNL     1      -5.245   4.127 -24.189  0.00  0.00    +0.032 C 
ATOM     18  C   UNL     1      -4.093   4.112 -24.793  0.00  0.00    +0.007 C 
ATOM     19  C   UNL     1      -3.219   3.602 -23.977  0.00  0.00    +0.001 C 
ENDROOT
BRANCH   9  20
ATOM     20  O   UNL     1       3.811   1.921 -23.605  0.00  0.00    -0.506 OA
ATOM     21  H   UNL     1       4.324   2.429 -24.202  0.00  0.00    +0.292 HD
ENDBRANCH   9  20
BRANCH  16  22
ATOM     22  O   UNL     1      -6.008   3.479 -22.101  0.00  0.00    -0.391 OA
ATOM     23  H   UNL     1      -6.878   3.623 -22.505  0.00  0.00    +0.210 HD
ENDBRANCH  16  22
TORSDOF 2
ENDMDL
