MODEL 1
REMARK VINA RESULT:    -9.312      0.000      0.000
REMARK INTER + INTRA:          -9.857
REMARK INTER:                  -9.857
REMARK INTRA:                   0.000
REMARK UNBOUND:                 0.000
REMARK  Name = ZINC000004104700
REMARK  4 active torsions:
REMARK  status: ('A' for Active; 'I' for Inactive)
REMARK    1  A    between atoms: C_1  and  C_2
REMARK    2  A    between atoms: C_5  and  O_6
REMARK    3  A    between atoms: C_14  and  C_15
REMARK    4  A    between atoms: C_14  and  C_16
REMARK                            x       y       z     vdW  Elec       q    Type
REMARK                         _______ _______ _______ _____ _____    ______ ____
ROOT
ATOM      1  C   UNL     1      -1.798   3.753 -25.442  0.00  0.00    +0.008 C 
ATOM      2  C   UNL     1      -2.928   3.775 -24.800  0.00  0.00    -0.007 C 
ATOM      3  C   UNL     1      -4.050   4.258 -25.246  0.00  0.00    +0.007 C 
ATOM      4  C   UNL     1      -4.951   4.100 -24.322  0.00  0.00    +0.043 C 
ATOM      5  C   UNL     1      -4.386   3.519 -23.306  0.00  0.00    +0.127 C 
ATOM      6  C   UNL     1      -5.019   3.218 -22.211  0.00  0.00    +0.165 C 
ATOM      7  C   UNL     1      -4.557   2.640 -21.141  0.00  0.00    +0.078 C 
ATOM      8  C   UNL     1      -3.350   2.223 -20.902  0.00  0.00    +0.012 C 
ATOM      9  C   UNL     1      -2.305   2.279 -21.674  0.00  0.00    -0.001 C 
ATOM     10  C   UNL     1      -2.210   2.766 -22.875  0.00  0.00    +0.005 C 
ATOM     11  C   UNL     1      -1.166   2.248 -22.300  0.00  0.00    -0.028 C 
ATOM     12  C   UNL     1      -0.428   1.670 -21.398  0.00  0.00    +0.011 C 
ATOM     13  C   UNL     1      -0.283   2.417 -23.238  0.00  0.00    +0.011 C 
ATOM     14  O   UNL     1      -6.279   3.535 -22.182  0.00  0.00    -0.294 OA
ATOM     15  C   UNL     1      -3.136   3.318 -23.601  0.00  0.00    +0.035 C 
ENDROOT
BRANCH   5  16
ATOM     16  O   UNL     1      -5.650   3.814 -23.223  0.00  0.00    -0.381 OA
ATOM     17  H   UNL     1      -5.920   3.818 -22.291  0.00  0.00    +0.211 HD
ENDBRANCH   5  16
TORSDOF 1
ENDMDL
