MODEL 1
REMARK VINA RESULT:   -11.160      0.000      0.000
REMARK INTER + INTRA:         -11.926
REMARK INTER:                 -11.776
REMARK INTRA:                  -0.150
REMARK UNBOUND:                -0.113
REMARK  Name = COc1ccc2c3c1O[C@@]1(C)C(=O)C=C[C@@H]4[C@@H](C2)N(C)CC[C@@]341        ZINC000253504792
REMARK  4 active torsions:
REMARK  status: ('A' for Active; 'I' for Inactive)
REMARK    1  A    between atoms: C_1  and  O_2
REMARK    2  A    between atoms: O_2  and  C_3
REMARK    3  A    between atoms: C_10  and  C_11
REMARK    4  A    between atoms: N_19  and  C_20
REMARK                            x       y       z     vdW  Elec       q    Type
REMARK                         _______ _______ _______ _____ _____    ______ ____
ROOT
ATOM      1  C   UNL     1       0.884   2.241 -23.216  0.00  0.00    +0.162 A 
ATOM      2  C   UNL     1       0.860   1.888 -22.002  0.00  0.00    +0.050 A 
ATOM      3  C   UNL     1      -0.211   1.913 -21.353  0.00  0.00    +0.008 A 
ATOM      4  C   UNL     1      -1.270   2.291 -21.910  0.00  0.00    -0.034 A 
ATOM      5  C   UNL     1      -1.266   2.646 -23.119  0.00  0.00    +0.013 A 
ATOM      6  C   UNL     1      -2.323   3.022 -23.672  0.00  0.00    +0.062 C 
ATOM      7  C   UNL     1      -3.461   3.468 -24.406  0.00  0.00    +0.067 C 
ATOM      8  C   UNL     1      -4.683   3.507 -23.700  0.00  0.00    +0.132 C 
ATOM      9  N   UNL     1      -4.669   3.106 -22.348  0.00  0.00    +0.236 N 
ATOM     10  H   UNL     1      -5.524   3.114 -21.790  0.00  0.00    +0.203 HD
ATOM     11  C   UNL     1      -5.709   3.111 -21.652  0.00  0.00    +0.190 C 
ATOM     12  C   UNL     1      -3.415   2.695 -21.811  0.00  0.00    +0.076 C 
ATOM     13  C   UNL     1      -3.395   3.048 -23.026  0.00  0.00    +0.076 C 
ATOM     14  C   UNL     1      -4.462   3.429 -23.587  0.00  0.00    -0.013 C 
ATOM     15  C   UNL     1      -4.449   3.780 -24.789  0.00  0.00    +0.046 C 
ATOM     16  C   UNL     1      -3.371   3.756 -25.447  0.00  0.00    +0.200 C 
ATOM     17  O   UNL     1      -3.360   4.108 -26.649  0.00  0.00    -0.288 OA
ATOM     18  C   UNL     1      -2.313   3.380 -24.895  0.00  0.00    +0.180 C 
ATOM     19  C   UNL     1      -2.014   3.668 -26.076  0.00  0.00    +0.065 C 
ATOM     20  O   UNL     1      -0.833   3.123 -25.037  0.00  0.00    -0.473 OA
ATOM     21  C   UNL     1      -2.360   2.318 -21.254  0.00  0.00    +0.090 C 
ATOM     22  C   UNL     1      -0.188   2.622 -23.777  0.00  0.00    +0.167 A 
ENDROOT
BRANCH   1  24
ATOM     23  C   UNL     1       2.642   3.253 -23.981  0.00  0.00    +0.277 C 
ATOM     24  O   UNL     1       1.956   2.214 -23.860  0.00  0.00    -0.491 OA
ENDBRANCH   1  24
TORSDOF 1
ENDMDL
