MODEL 1
REMARK VINA RESULT:    -8.729      0.000      0.000
REMARK INTER + INTRA:         -13.914
REMARK INTER:                 -12.480
REMARK INTRA:                  -1.434
REMARK UNBOUND:                -0.592
REMARK  Name = ZINC000002004334
REMARK  9 active torsions:
REMARK  status: ('A' for Active; 'I' for Inactive)
REMARK    1  A    between atoms: C_2  and  C_3
REMARK    2  A    between atoms: C_3  and  N_4
REMARK    3  A    between atoms: C_5  and  O_7
REMARK    4  A    between atoms: O_7  and  C_8
REMARK    5  A    between atoms: C_8  and  C_9
REMARK    6  A    between atoms: N_15  and  CA_16
REMARK    7  A    between atoms: CA_16  and  CB_17
REMARK    8  A    between atoms: CA_16  and  C_24
REMARK    9  A    between atoms: CB_17  and  CG_18
REMARK                            x       y       z     vdW  Elec       q    Type
REMARK                         _______ _______ _______ _____ _____    ______ ____
ROOT
ATOM      1  O   UNK A   0       5.389   0.650 -22.196  0.00  0.00    -0.274 OA
ATOM      2  C   UNK A   0       4.563   1.264 -21.401  0.00  0.00    +0.231 C 
ATOM      3  N   PHE A   1       4.561   2.562 -21.344  0.00  0.00    -0.306 N 
ATOM      4  H   PHE A   1       3.936   3.028 -20.742  0.00  0.00    +0.149 HD
ENDROOT
BRANCH   3   5
ATOM      5  CA  PHE A   1       5.385   3.247 -22.080  0.00  0.00    +0.123 C 
BRANCH   5   6
ATOM      6  C   PHE A   1       6.537   3.609 -21.600  0.00  0.00    +0.062 C 
ATOM      7  OXT PHE A   1       7.541   3.812 -22.400  0.00  0.00    -0.548 OA
ATOM      8  O   PHE A   1       6.685   3.769 -20.318  0.00  0.00    -0.548 OA
ENDBRANCH   5   6
BRANCH   5   9
ATOM      9  CB  PHE A   1       5.056   3.570 -23.295  0.00  0.00    +0.063 C 
BRANCH   9  10
ATOM     10  CG  PHE A   1       3.835   3.919 -23.567  0.00  0.00    -0.045 A 
ATOM     11  CD2 PHE A   1       3.070   3.132 -24.262  0.00  0.00    +0.004 A 
ATOM     12  CE2 PHE A   1       1.849   3.479 -24.535  0.00  0.00    +0.000 A 
ATOM     13  CZ  PHE A   1       1.388   4.622 -24.110  0.00  0.00    +0.000 A 
ATOM     14  CE1 PHE A   1       2.152   5.409 -23.415  0.00  0.00    +0.000 A 
ATOM     15  CD1 PHE A   1       3.374   5.062 -23.142  0.00  0.00    +0.004 A 
ENDBRANCH   9  10
ENDBRANCH   5   9
ENDBRANCH   3   5
BRANCH   2  16
ATOM     16  C   UNK A   0       3.739   0.579 -20.665  0.00  0.00    +0.203 C 
BRANCH  16  17
ATOM     17  N   UNK A   0       2.576   1.071 -20.361  0.00  0.00    -0.273 N 
ATOM     18  H   UNK A   0       2.425   1.470 -19.474  0.00  0.00    +0.153 HD
ATOM     19  C   UNK A   0       1.609   1.036 -21.230  0.00  0.00    +0.401 C 
ATOM     20  O   UNK A   0       1.806   0.509 -22.401  0.00  0.00    -0.226 OA
BRANCH  19  21
ATOM     21  O   UNK A   0       0.445   1.528 -20.926  0.00  0.00    -0.446 OA
BRANCH  21  22
ATOM     22  C   UNK A   0      -0.579   1.297 -21.694  0.00  0.00    +0.269 C 
BRANCH  22  23
ATOM     23  C   UNK A   0      -1.140   2.274 -22.340  0.00  0.00    -0.010 A 
ATOM     24  C   UNK A   0      -1.444   2.132 -23.599  0.00  0.00    +0.007 A 
ATOM     25  C   UNK A   0      -2.005   3.110 -24.244  0.00  0.00    +0.000 A 
ATOM     26  C   UNK A   0      -2.263   4.230 -23.637  0.00  0.00    +0.000 A 
ATOM     27  C   UNK A   0      -1.959   4.372 -22.378  0.00  0.00    +0.000 A 
ATOM     28  C   UNK A   0      -1.398   3.393 -21.735  0.00  0.00    +0.007 A 
ENDBRANCH  22  23
ENDBRANCH  21  22
ENDBRANCH  19  21
ENDBRANCH  16  17
ENDBRANCH   2  16
TORSDOF 9
ENDMDL
