MODEL 1
REMARK VINA RESULT:   -10.531      0.000      0.000
REMARK INTER + INTRA:         -11.815
REMARK INTER:                 -11.612
REMARK INTRA:                  -0.203
REMARK UNBOUND:                -0.053
REMARK  Name = ZINC000000338367
REMARK  4 active torsions:
REMARK  status: ('A' for Active; 'I' for Inactive)
REMARK    1  A    between atoms: C_1  and  O_2
REMARK    2  A    between atoms: O_2  and  C_3
REMARK    3  A    between atoms: C_8  and  O_9
REMARK    4  A    between atoms: O_9  and  C_10
REMARK                            x       y       z     vdW  Elec       q    Type
REMARK                         _______ _______ _______ _____ _____    ______ ____
ROOT
ATOM      1  C   UNL     1       2.546   1.968 -23.560  0.00  0.00    +0.162 A 
ATOM      2  C   UNL     1       1.983   2.644 -24.517  0.00  0.00    +0.053 A 
ATOM      3  C   UNL     1       0.716   2.929 -24.454  0.00  0.00    -0.033 A 
ATOM      4  C   UNL     1       0.012   2.539 -23.432  0.00  0.00    +0.006 A 
ATOM      5  C   UNL     1      -1.254   2.824 -23.369  0.00  0.00    +0.053 A 
ATOM      6  C   UNL     1      -1.958   2.434 -22.348  0.00  0.00    +0.035 A 
ATOM      7  C   UNL     1      -3.224   2.719 -22.284  0.00  0.00    -0.011 A 
ATOM      8  C   UNL     1      -3.928   2.329 -21.263  0.00  0.00    +0.009 A 
ATOM      9  C   UNL     1      -5.195   2.615 -21.199  0.00  0.00    +0.001 A 
ATOM     10  C   UNL     1      -5.758   3.290 -22.156  0.00  0.00    +0.001 A 
ATOM     11  C   UNL     1      -5.054   3.681 -23.177  0.00  0.00    +0.014 A 
ATOM     12  C   UNL     1      -3.787   3.395 -23.241  0.00  0.00    +0.047 A 
ATOM     13  C   UNL     1      -3.084   3.785 -24.262  0.00  0.00    +0.259 A 
ATOM     14  O   UNL     1      -3.647   4.461 -25.219  0.00  0.00    -0.267 OA
ATOM     15  N   UNL     1      -1.818   3.500 -24.326  0.00  0.00    -0.307 N 
ATOM     16  C   UNL     1      -1.113   3.890 -25.347  0.00  0.00    +0.130 C 
ATOM     17  C   UNL     1       0.575   1.863 -22.475  0.00  0.00    +0.059 A 
ATOM     18  C   UNL     1       0.153   3.605 -25.411  0.00  0.00    +0.057 C 
ATOM     19  C   UNL     1       1.842   1.577 -22.539  0.00  0.00    +0.162 A 
ENDROOT
BRANCH   1  21
ATOM     20  C   UNL     1       4.695   2.637 -23.618  0.00  0.00    +0.277 C 
ATOM     21  O   UNL     1       3.812   1.683 -23.624  0.00  0.00    -0.491 OA
ENDBRANCH   1  21
BRANCH  19  22
ATOM     22  O   UNL     1       2.405   0.902 -21.582  0.00  0.00    -0.491 OA
ATOM     23  C   UNL     1       2.681   1.482 -20.452  0.00  0.00    +0.277 C 
ENDBRANCH  19  22
TORSDOF 2
ENDMDL
