MODEL 1
REMARK VINA RESULT:    -8.882      0.000      0.000
REMARK INTER + INTRA:         -10.218
REMARK INTER:                  -9.989
REMARK INTRA:                  -0.229
REMARK UNBOUND:                 0.221
REMARK  Name = ZINC000000402468
REMARK  5 active torsions:
REMARK  status: ('A' for Active; 'I' for Inactive)
REMARK    1  A    between atoms: C_1  and  C_2
REMARK    2  A    between atoms: C_2  and  C_3
REMARK    3  A    between atoms: C_2  and  C_4
REMARK    4  A    between atoms: C_4  and  C_5
REMARK    5  A    between atoms: C_5  and  C_6
REMARK                            x       y       z     vdW  Elec       q    Type
REMARK                         _______ _______ _______ _____ _____    ______ ____
ROOT
ATOM      1  C   UNL     1      -1.147   2.804 -23.494  0.00  0.00    -0.009 C 
ATOM      2  C   UNL     1      -1.671   3.382 -24.533  0.00  0.00    +0.228 C 
ATOM      3  C   UNL     1      -2.933   3.694 -24.536  0.00  0.00    +0.233 C 
ATOM      4  C   UNL     1      -3.671   3.427 -23.500  0.00  0.00    +0.032 A 
ATOM      5  C   UNL     1      -4.933   3.739 -23.503  0.00  0.00    +0.012 A 
ATOM      6  C   UNL     1      -5.671   3.473 -22.466  0.00  0.00    +0.001 A 
ATOM      7  C   UNL     1      -5.147   2.894 -21.426  0.00  0.00    +0.001 A 
ATOM      8  C   UNL     1      -3.885   2.582 -21.424  0.00  0.00    +0.007 A 
ATOM      9  C   UNL     1      -3.147   2.849 -22.460  0.00  0.00    -0.027 A 
ATOM     10  O   UNL     1      -3.457   4.273 -25.576  0.00  0.00    -0.283 OA
ATOM     11  O   UNL     1      -0.933   3.649 -25.570  0.00  0.00    -0.284 OA
ATOM     12  C   UNL     1      -1.885   2.537 -22.457  0.00  0.00    -0.126 C 
ATOM     13  O   UNL     1      -1.362   1.959 -21.417  0.00  0.00    -0.828 OA
ENDROOT
BRANCH   1  14
ATOM     14  C   UNL     1       0.115   2.492 -23.490  0.00  0.00    +0.038 C 
BRANCH  14  15
ATOM     15  C   UNL     1       0.967   3.233 -22.846  0.00  0.00    +0.008 C 
BRANCH  15  17
ATOM     16  C   UNL     1       2.858   3.181 -24.068  0.00  0.00    +0.007 C 
ATOM     17  C   UNL     1       1.906   3.856 -23.494  0.00  0.00    -0.017 C 
ATOM     18  C   UNL     1       1.894   5.154 -23.570  0.00  0.00    +0.007 C 
ENDBRANCH  15  17
ENDBRANCH  14  15
ENDBRANCH   1  14
TORSDOF 3
ENDMDL
