MODEL 1
REMARK VINA RESULT:    -9.853      0.000      0.000
REMARK INTER + INTRA:         -15.375
REMARK INTER:                 -14.307
REMARK INTRA:                  -1.068
REMARK UNBOUND:                 1.391
REMARK  Name = ZINC000028218749
REMARK  16 active torsions:
REMARK  status: ('A' for Active; 'I' for Inactive)
REMARK    1  A    between atoms: C_1  and  C_2
REMARK    2  A    between atoms: C_2  and  O_3
REMARK    3  A    between atoms: O_3  and  C_4
REMARK    4  A    between atoms: C_6  and  O_7
REMARK    5  A    between atoms: O_7  and  C_8
REMARK    6  A    between atoms: C_8  and  C_9
REMARK    7  A    between atoms: C_13  and  O_14
REMARK    8  A    between atoms: O_14  and  C_15
REMARK    9  A    between atoms: C_15  and  C_16
REMARK   10  A    between atoms: C_19  and  C_20
REMARK   11  A    between atoms: C_23  and  O_24
REMARK   12  A    between atoms: O_24  and  C_25
REMARK   13  A    between atoms: C_25  and  C_26
REMARK   14  A    between atoms: C_27  and  O_28
REMARK   15  A    between atoms: O_28  and  C_29
REMARK   16  A    between atoms: C_29  and  C_30
REMARK                            x       y       z     vdW  Elec       q    Type
REMARK                         _______ _______ _______ _____ _____    ______ ____
ROOT
ATOM      1  C   UNL     1       4.828   7.114 -22.141  0.00  0.00    +0.127 A 
ATOM      2  C   UNL     1       5.787   6.248 -22.288  0.00  0.00    +0.092 A 
ATOM      3  C   UNL     1       5.521   5.051 -22.719  0.00  0.00    +0.138 A 
ATOM      4  C   UNL     1       4.297   4.718 -23.003  0.00  0.00    +0.109 A 
ATOM      5  C   UNL     1       4.031   3.522 -23.434  0.00  0.00    +0.238 A 
ATOM      6  C   UNL     1       2.807   3.190 -23.718  0.00  0.00    +0.211 A 
ATOM      7  C   UNL     1       1.848   4.055 -23.571  0.00  0.00    +0.181 A 
ATOM      8  O   UNL     1       2.114   5.253 -23.140  0.00  0.00    -0.451 OA
ATOM      9  O   UNL     1       4.990   2.656 -23.581  0.00  0.00    -0.283 OA
ATOM     10  C   UNL     1       3.338   5.584 -22.856  0.00  0.00    +0.147 A 
ATOM     11  C   UNL     1       3.604   6.782 -22.425  0.00  0.00    +0.092 A 
ENDROOT
BRANCH   7  12
ATOM     12  C   UNL     1       0.624   3.724 -23.854  0.00  0.00    +0.025 A 
ATOM     13  C   UNL     1       0.191   3.819 -25.076  0.00  0.00    +0.015 A 
ATOM     14  C   UNL     1      -1.034   3.487 -25.360  0.00  0.00    +0.050 A 
ATOM     15  C   UNL     1      -1.826   3.061 -24.421  0.00  0.00    +0.162 A 
ATOM     16  C   UNL     1      -1.393   2.966 -23.199  0.00  0.00    +0.163 A 
ATOM     17  C   UNL     1      -0.168   3.297 -22.916  0.00  0.00    +0.061 A 
BRANCH  16  18
ATOM     18  O   UNL     1      -2.184   2.539 -22.261  0.00  0.00    -0.489 OA
BRANCH  18  19
ATOM     19  C   UNL     1      -2.446   3.297 -21.237  0.00  0.00    +0.226 C 
ATOM     20  C   UNL     1      -3.677   3.480 -20.862  0.00  0.00    +0.048 C 
ENDBRANCH  18  19
ENDBRANCH  16  18
BRANCH  15  21
ATOM     21  O   UNL     1      -3.050   2.729 -24.705  0.00  0.00    -0.489 OA
BRANCH  21  22
ATOM     22  C   UNL     1      -3.865   3.613 -25.200  0.00  0.00    +0.226 C 
ATOM     23  C   UNL     1      -4.749   4.182 -24.435  0.00  0.00    +0.048 C 
ENDBRANCH  21  22
ENDBRANCH  15  21
ENDBRANCH   7  12
BRANCH   1  24
ATOM     24  O   UNL     1       5.094   8.311 -21.711  0.00  0.00    -0.492 OA
BRANCH  24  26
ATOM     25  C   UNL     1       4.192   9.998 -20.522  0.00  0.00    +0.048 C 
ATOM     26  C   UNL     1       4.537   8.748 -20.620  0.00  0.00    +0.225 C 
ENDBRANCH  24  26
ENDBRANCH   1  24
BRANCH   6  27
ATOM     27  O   UNL     1       2.541   1.993 -24.148  0.00  0.00    -0.479 OA
BRANCH  27  28
ATOM     28  C   UNL     1       3.044   0.957 -23.544  0.00  0.00    +0.281 C 
BRANCH  28  29
ATOM     29  C   UNL     1       2.498   0.514 -22.451  0.00  0.00    +0.079 C 
ATOM     30  O   UNL     1       3.246   0.079 -21.481  0.00  0.00    -0.546 OA
ATOM     31  O   UNL     1       1.204   0.504 -22.328  0.00  0.00    -0.546 OA
ENDBRANCH  28  29
ENDBRANCH  27  28
ENDBRANCH   6  27
BRANCH   3  32
ATOM     32  O   UNL     1       6.481   4.185 -22.866  0.00  0.00    -0.491 OA
BRANCH  32  33
ATOM     33  C   UNL     1       7.647   4.574 -23.289  0.00  0.00    +0.226 C 
ATOM     34  C   UNL     1       8.013   4.318 -24.511  0.00  0.00    +0.048 C 
ENDBRANCH  32  33
ENDBRANCH   3  32
TORSDOF 12
ENDMDL
