MODEL 1
REMARK VINA RESULT:   -10.383      0.000      0.000
REMARK INTER + INTRA:         -12.446
REMARK INTER:                 -13.162
REMARK INTRA:                   0.716
REMARK UNBOUND:                 0.668
REMARK  Name = COCO[C@@H]1C=C2[C@H]3Cc4ccc(OC)c5c4[C@]2(CCN3C)[C@@](C)(O5)[C@@H]1O  ZINC000100393643
REMARK  9 active torsions:
REMARK  status: ('A' for Active; 'I' for Inactive)
REMARK    1  A    between atoms: C_1  and  O_2
REMARK    2  A    between atoms: O_2  and  C_3
REMARK    3  A    between atoms: C_3  and  O_4
REMARK    4  A    between atoms: O_4  and  C_5
REMARK    5  A    between atoms: C_13  and  O_14
REMARK    6  A    between atoms: O_14  and  C_15
REMARK    7  A    between atoms: N_21  and  C_22
REMARK    8  A    between atoms: C_23  and  C_24
REMARK    9  A    between atoms: C_26  and  O_27
REMARK                            x       y       z     vdW  Elec       q    Type
REMARK                         _______ _______ _______ _____ _____    ______ ____
ROOT
ATOM      1  C   UNL     1       0.976   2.158 -22.651  0.00  0.00    +0.176 C 
ATOM      2  C   UNL     1       0.618   2.669 -23.744  0.00  0.00    +0.013 C 
ATOM      3  C   UNL     1      -0.598   2.986 -23.931  0.00  0.00    -0.009 C 
ATOM      4  C   UNL     1      -0.953   3.502 -25.037  0.00  0.00    +0.096 C 
ATOM      5  C   UNL     1      -2.155   3.817 -25.224  0.00  0.00    +0.094 C 
ATOM      6  C   UNL     1      -3.018   3.618 -24.301  0.00  0.00    -0.034 A 
ATOM      7  C   UNL     1      -4.225   3.933 -24.487  0.00  0.00    +0.008 A 
ATOM      8  C   UNL     1      -5.070   3.736 -23.577  0.00  0.00    +0.050 A 
ATOM      9  C   UNL     1      -4.719   3.221 -22.470  0.00  0.00    +0.162 A 
ATOM     10  C   UNL     1      -3.499   2.903 -22.285  0.00  0.00    +0.167 A 
ATOM     11  O   UNL     1      -2.482   2.319 -21.338  0.00  0.00    -0.478 OA
ATOM     12  C   UNL     1      -1.078   2.271 -21.913  0.00  0.00    +0.150 C 
ATOM     13  C   UNL     1      -1.007   1.790 -20.752  0.00  0.00    +0.060 C 
ATOM     14  C   UNL     1      -2.648   3.103 -23.205  0.00  0.00    +0.016 A 
ATOM     15  N   UNL     1       0.438   3.181 -24.929  0.00  0.00    +0.239 N 
ATOM     16  H   UNL     1       1.098   3.354 -25.687  0.00  0.00    +0.204 HD
ATOM     17  C   UNL     1       1.239   3.401 -25.872  0.00  0.00    +0.191 C 
ATOM     18  C   UNL     1       0.869   2.604 -23.708  0.00  0.00    +0.133 C 
ATOM     19  C   UNL     1      -0.108   2.394 -22.701  0.00  0.00    +0.071 C 
ATOM     20  C   UNL     1      -1.446   2.790 -23.023  0.00  0.00    +0.072 C 
ATOM     21  C   UNL     1       0.125   1.957 -21.730  0.00  0.00    +0.192 C 
ENDROOT
BRANCH   9  22
ATOM     22  O   UNL     1      -5.568   3.026 -21.564  0.00  0.00    -0.491 OA
ATOM     23  C   UNL     1      -6.716   2.602 -21.855  0.00  0.00    +0.277 C 
ENDBRANCH   9  22
BRANCH  21  24
ATOM     24  O   UNL     1       0.486   1.446 -20.638  0.00  0.00    -0.385 OA
ATOM     25  H   UNL     1       1.164   0.773 -20.805  0.00  0.00    +0.210 HD
ENDBRANCH  21  24
BRANCH   1  26
ATOM     26  O   UNL     1       2.182   1.845 -22.471  0.00  0.00    -0.344 OA
BRANCH  26  27
ATOM     27  C   UNL     1       2.574   0.674 -22.716  0.00  0.00    +0.323 C 
BRANCH  27  29
ATOM     28  C   UNL     1       3.863   0.392 -20.980  0.00  0.00    +0.196 C 
ATOM     29  O   UNL     1       3.003  -0.054 -21.783  0.00  0.00    -0.357 OA
ENDBRANCH  27  29
ENDBRANCH  26  27
ENDBRANCH   1  26
TORSDOF 5
ENDMDL
