MODEL 1
REMARK VINA RESULT:    -6.869      0.000      0.000
REMARK INTER + INTRA:          -8.051
REMARK INTER:                  -8.840
REMARK INTRA:                   0.789
REMARK UNBOUND:                 0.825
REMARK  Name = ZINC000001760775
REMARK  8 active torsions:
REMARK  status: ('A' for Active; 'I' for Inactive)
REMARK    1  A    between atoms: C_1  and  C_2
REMARK    2  A    between atoms: C_2  and  C_3
REMARK    3  A    between atoms: C_2  and  C_4
REMARK    4  A    between atoms: C_4  and  C_5
REMARK    5  A    between atoms: C_4  and  N_8
REMARK    6  A    between atoms: N_8  and  C_9
REMARK    7  A    between atoms: N_8  and  C_10
REMARK    8  A    between atoms: C_10  and  C_11
REMARK                            x       y       z     vdW  Elec       q    Type
REMARK                         _______ _______ _______ _____ _____    ______ ____
ROOT
ATOM      1  N   UNL     1      -1.116   3.056 -24.388  0.00  0.00    +0.243 N 
ATOM      2  H   UNL     1      -0.878   3.641 -25.189  0.00  0.00    +0.204 HD
ATOM      3  C   UNL     1      -1.231   3.602 -25.562  0.00  0.00    +0.191 C 
ENDROOT
BRANCH   1   4
ATOM      4  C   UNL     1      -0.096   3.343 -23.634  0.00  0.00    +0.114 C 
BRANCH   4   6
ATOM      5  C   UNL     1       1.283   5.122 -23.609  0.00  0.00    +0.013 C 
ATOM      6  C   UNL     1       0.141   4.578 -23.307  0.00  0.00    +0.037 C 
ATOM      7  C   UNL     1      -0.762   5.271 -22.679  0.00  0.00    +0.013 C 
ENDBRANCH   4   6
BRANCH   4   8
ATOM      8  C   UNL     1       0.685   2.395 -23.209  0.00  0.00    +0.090 C 
ATOM      9  O   UNL     1       1.441   1.752 -24.047  0.00  0.00    -0.544 OA
ATOM     10  O   UNL     1       0.710   2.091 -21.945  0.00  0.00    -0.544 OA
ENDBRANCH   4   8
ENDBRANCH   1   4
BRANCH   1  11
ATOM     11  C   UNL     1      -2.021   2.223 -23.967  0.00  0.00    +0.168 C 
BRANCH  11  12
ATOM     12  C   UNL     1      -2.960   2.634 -23.168  0.00  0.00    -0.003 A 
ATOM     13  C   UNL     1      -2.892   2.372 -21.896  0.00  0.00    +0.009 A 
ATOM     14  C   UNL     1      -3.830   2.782 -21.096  0.00  0.00    +0.000 A 
ATOM     15  C   UNL     1      -4.838   3.456 -21.567  0.00  0.00    +0.000 A 
ATOM     16  C   UNL     1      -4.906   3.718 -22.839  0.00  0.00    +0.000 A 
ATOM     17  C   UNL     1      -3.968   3.307 -23.639  0.00  0.00    +0.009 A 
ENDBRANCH  11  12
ENDBRANCH   1  11
TORSDOF 5
ENDMDL
