MODEL 1
REMARK VINA RESULT:    -9.066      0.000      0.000
REMARK INTER + INTRA:         -16.381
REMARK INTER:                 -14.622
REMARK INTRA:                  -1.760
REMARK UNBOUND:                 0.104
REMARK  Name = ZINC000034751324
REMARK  18 active torsions:
REMARK  status: ('A' for Active; 'I' for Inactive)
REMARK    1  A    between atoms: C_1  and  O_2
REMARK    2  A    between atoms: O_2  and  C_3
REMARK    3  A    between atoms: C_3  and  C_5
REMARK    4  A    between atoms: C_5  and  C_6
REMARK    5  A    between atoms: C_6  and  C_7
REMARK    6  A    between atoms: C_7  and  C_8
REMARK    7  A    between atoms: C_8  and  C_9
REMARK    8  A    between atoms: C_9  and  C_10
REMARK    9  A    between atoms: C_10  and  C_11
REMARK   10  A    between atoms: C_11  and  C_12
REMARK   11  A    between atoms: C_12  and  C_13
REMARK   12  A    between atoms: C_17  and  O_18
REMARK   13  A    between atoms: O_18  and  C_19
REMARK   14  A    between atoms: C_21  and  O_22
REMARK   15  A    between atoms: O_22  and  C_23
REMARK   16  A    between atoms: C_27  and  C_28
REMARK   17  A    between atoms: C_31  and  O_32
REMARK   18  A    between atoms: O_32  and  C_33
REMARK                            x       y       z     vdW  Elec       q    Type
REMARK                         _______ _______ _______ _____ _____    ______ ____
ROOT
ATOM      1  C   UNL     1       3.882   3.090 -23.289  0.00  0.00    +0.117 A 
ATOM      2  O   UNL     1       5.124   3.070 -22.907  0.00  0.00    -0.459 OA
ATOM      3  C   UNL     1       5.706   4.169 -22.530  0.00  0.00    +0.146 A 
ATOM      4  C   UNL     1       6.948   4.150 -22.147  0.00  0.00    +0.092 A 
ATOM      5  C   UNL     1       7.530   5.249 -21.770  0.00  0.00    +0.127 A 
ATOM      6  C   UNL     1       6.869   6.370 -21.775  0.00  0.00    +0.092 A 
ATOM      7  C   UNL     1       5.627   6.389 -22.158  0.00  0.00    +0.138 A 
ATOM      8  C   UNL     1       5.045   5.290 -22.535  0.00  0.00    +0.106 A 
ATOM      9  C   UNL     1       3.803   5.309 -22.918  0.00  0.00    +0.204 A 
ATOM     10  O   UNL     1       3.143   6.429 -22.924  0.00  0.00    -0.286 OA
ATOM     11  C   UNL     1       3.222   4.210 -23.295  0.00  0.00    +0.068 A 
ENDROOT
BRANCH  11  12
ATOM     12  C   UNL     1       1.980   4.230 -23.678  0.00  0.00    -0.011 A 
ATOM     13  C   UNL     1       1.648   3.742 -24.837  0.00  0.00    +0.012 A 
ATOM     14  C   UNL     1       0.406   3.762 -25.219  0.00  0.00    +0.046 A 
ATOM     15  C   UNL     1      -0.505   4.270 -24.444  0.00  0.00    +0.120 A 
ATOM     16  C   UNL     1      -0.174   4.758 -23.286  0.00  0.00    +0.046 A 
ATOM     17  C   UNL     1       1.069   4.738 -22.902  0.00  0.00    +0.012 A 
BRANCH  15  18
ATOM     18  O   UNL     1      -1.747   4.290 -24.827  0.00  0.00    -0.495 OA
ATOM     19  C   UNL     1      -2.161   3.458 -25.737  0.00  0.00    +0.277 C 
ENDBRANCH  15  18
ENDBRANCH  11  12
BRANCH   5  20
ATOM     20  O   UNL     1       8.772   5.230 -21.387  0.00  0.00    -0.495 OA
ATOM     21  C   UNL     1       9.062   5.235 -20.119  0.00  0.00    +0.277 C 
ENDBRANCH   5  20
BRANCH   7  22
ATOM     22  O   UNL     1       4.966   7.509 -22.163  0.00  0.00    -0.494 OA
ATOM     23  C   UNL     1       5.191   8.400 -21.244  0.00  0.00    +0.277 C 
ENDBRANCH   7  22
BRANCH   1  24
ATOM     24  C   UNL     1       3.300   1.990 -23.667  0.00  0.00    +0.075 C 
BRANCH  24  25
ATOM     25  C   UNL     1       3.204   0.990 -22.843  0.00  0.00    +0.008 C 
BRANCH  25  26
ATOM     26  C   UNL     1       2.321   1.016 -21.889  0.00  0.00    +0.000 C 
BRANCH  26  27
ATOM     27  C   UNL     1       1.055   1.079 -22.178  0.00  0.00    +0.000 C 
BRANCH  27  28
ATOM     28  C   UNL     1       0.208   1.526 -21.298  0.00  0.00    +0.000 C 
BRANCH  28  29
ATOM     29  C   UNL     1      -1.065   1.512 -21.556  0.00  0.00    +0.001 C 
BRANCH  29  30
ATOM     30  C   UNL     1      -1.785   2.571 -21.330  0.00  0.00    +0.011 C 
BRANCH  30  31
ATOM     31  C   UNL     1      -3.020   2.616 -21.735  0.00  0.00    +0.120 C 
BRANCH  31  32
ATOM     32  C   UNL     1      -3.843   3.476 -21.214  0.00  0.00    +0.307 C 
ATOM     33  O   UNL     1      -3.513   4.122 -20.136  0.00  0.00    -0.251 OA
BRANCH  32  35
ATOM     34  C   UNL     1      -5.121   3.607 -23.064  0.00  0.00    +0.280 C 
ATOM     35  O   UNL     1      -4.998   3.691 -21.772  0.00  0.00    -0.468 OA
ENDBRANCH  32  35
ENDBRANCH  31  32
ENDBRANCH  30  31
ENDBRANCH  29  30
ENDBRANCH  28  29
ENDBRANCH  27  28
ENDBRANCH  26  27
ENDBRANCH  25  26
ENDBRANCH  24  25
ENDBRANCH   1  24
TORSDOF 14
ENDMDL
