MODEL 1
REMARK VINA RESULT:    -8.780      0.000      0.000
REMARK INTER + INTRA:          -8.780
REMARK INTER:                  -8.780
REMARK INTRA:                   0.000
REMARK UNBOUND:                 0.000
REMARK  Name = ZINC000031460486
REMARK  0 active torsions:
REMARK  status: ('A' for Active; 'I' for Inactive)
REMARK                            x       y       z     vdW  Elec       q    Type
REMARK                         _______ _______ _______ _____ _____    ______ ____
ROOT
ATOM      1  O   UNL     1       0.630   1.499 -22.872  0.00  0.00    -0.246 OA
ATOM      2  C   UNL     1      -0.563   1.969 -22.669  0.00  0.00    +0.333 C 
ATOM      3  C   UNL     1      -1.133   2.129 -21.516  0.00  0.00    +0.099 C 
ATOM      4  C   UNL     1      -2.317   2.619 -21.719  0.00  0.00    +0.008 C 
ATOM      5  C   UNL     1      -3.270   2.954 -20.904  0.00  0.00    +0.009 C 
ATOM      6  C   UNL     1      -4.383   3.432 -21.369  0.00  0.00    +0.027 C 
ATOM      7  C   UNL     1      -4.543   3.574 -22.649  0.00  0.00    +0.093 C 
ATOM      8  C   UNL     1      -3.590   3.239 -23.463  0.00  0.00    +0.117 C 
ATOM      9  N   UNL     1      -4.260   3.538 -23.939  0.00  0.00    +0.246 N 
ATOM     10  H   UNL     1      -5.189   3.901 -23.726  0.00  0.00    +0.204 HD
ATOM     11  C   UNL     1      -4.781   3.819 -25.094  0.00  0.00    +0.132 C 
ATOM     12  C   UNL     1      -3.910   3.523 -26.009  0.00  0.00    +0.056 C 
ATOM     13  C   UNL     1      -2.851   3.060 -25.420  0.00  0.00    +0.064 C 
ATOM     14  C   UNL     1      -3.067   3.069 -24.141  0.00  0.00    +0.115 C 
ATOM     15  C   UNL     1      -2.478   2.762 -22.999  0.00  0.00    +0.186 C 
ATOM     16  O   UNL     1      -1.394   2.360 -23.585  0.00  0.00    -0.444 OA
ENDROOT
TORSDOF 0
ENDMDL
