MODEL 1
REMARK VINA RESULT:   -10.988      0.000      0.000
REMARK INTER + INTRA:         -12.067
REMARK INTER:                 -11.954
REMARK INTRA:                  -0.113
REMARK UNBOUND:                -0.116
REMARK  Name = COc1ccc2c3c1O[C@]1(C)[C@H](O)[C@@H](Cl)C=C4[C@@H](C2)N(C)CC[C@]431   ZINC000253505519
REMARK  5 active torsions:
REMARK  status: ('A' for Active; 'I' for Inactive)
REMARK    1  A    between atoms: C_1  and  O_2
REMARK    2  A    between atoms: O_2  and  C_3
REMARK    3  A    between atoms: C_10  and  C_11
REMARK    4  A    between atoms: C_12  and  O_13
REMARK    5  A    between atoms: N_20  and  C_21
REMARK                            x       y       z     vdW  Elec       q    Type
REMARK                         _______ _______ _______ _____ _____    ______ ____
ROOT
ATOM      1  C   UNL     1       1.629   2.273 -23.788  0.00  0.00    +0.162 A 
ATOM      2  C   UNL     1       1.917   1.802 -22.647  0.00  0.00    +0.050 A 
ATOM      3  C   UNL     1       1.033   1.683 -21.768  0.00  0.00    +0.008 A 
ATOM      4  C   UNL     1      -0.149   2.031 -22.016  0.00  0.00    -0.034 A 
ATOM      5  C   UNL     1      -0.454   2.502 -23.146  0.00  0.00    +0.016 A 
ATOM      6  C   UNL     1      -1.633   2.849 -23.390  0.00  0.00    +0.072 C 
ATOM      7  C   UNL     1      -2.936   3.276 -23.784  0.00  0.00    +0.071 C 
ATOM      8  C   UNL     1      -3.954   3.153 -22.811  0.00  0.00    +0.133 C 
ATOM      9  N   UNL     1      -3.596   2.624 -21.552  0.00  0.00    +0.239 N 
ATOM     10  H   UNL     1      -4.290   2.513 -20.812  0.00  0.00    +0.204 HD
ATOM     11  C   UNL     1      -4.437   2.482 -20.635  0.00  0.00    +0.191 C 
ATOM     12  C   UNL     1      -2.228   2.259 -21.372  0.00  0.00    +0.096 C 
ATOM     13  C   UNL     1      -2.519   2.730 -22.512  0.00  0.00    -0.010 C 
ATOM     14  C   UNL     1      -3.710   3.081 -22.762  0.00  0.00    +0.000 C 
ATOM     15  C   UNL     1      -4.005   3.548 -23.887  0.00  0.00    +0.136 C 
ATOM     16 CL   UNL     1      -5.183   3.894 -24.130  0.00  0.00    -0.115 Cl
ATOM     17  C   UNL     1      -3.114   3.671 -24.780  0.00  0.00    +0.180 C 
ATOM     18  C   UNL     1      -1.936   3.324 -24.534  0.00  0.00    +0.149 C 
ATOM     19  C   UNL     1      -1.945   3.747 -25.715  0.00  0.00    +0.060 C 
ATOM     20  O   UNL     1      -0.519   3.196 -25.048  0.00  0.00    -0.478 OA
ATOM     21  C   UNL     1      -1.051   1.912 -21.124  0.00  0.00    +0.094 C 
ATOM     22  C   UNL     1       0.436   2.624 -24.037  0.00  0.00    +0.167 A 
ENDROOT
BRANCH   1  24
ATOM     23  C   UNL     1       3.717   2.178 -24.376  0.00  0.00    +0.277 C 
ATOM     24  O   UNL     1       2.516   2.391 -24.665  0.00  0.00    -0.491 OA
ENDBRANCH   1  24
BRANCH  17  25
ATOM     25  O   UNL     1      -3.413   4.138 -25.905  0.00  0.00    -0.386 OA
ATOM     26  H   UNL     1      -2.614   4.482 -26.334  0.00  0.00    +0.210 HD
ENDBRANCH  17  25
TORSDOF 2
ENDMDL
