MODEL 1
REMARK VINA RESULT:   -10.343      0.000      0.000
REMARK INTER + INTRA:         -10.645
REMARK INTER:                 -10.645
REMARK INTRA:                   0.000
REMARK UNBOUND:                 0.000
REMARK  Name = CC1=C2CC[C@](C)(O)[C@@H]2[C@H]2OC(=O)[C@H](C)[C@H]2CC1               ZINC000106803356
REMARK  4 active torsions:
REMARK  status: ('A' for Active; 'I' for Inactive)
REMARK    1  A    between atoms: C_1  and  C_2
REMARK    2  A    between atoms: C_6  and  C_7
REMARK    3  A    between atoms: C_6  and  O_8
REMARK    4  A    between atoms: C_14  and  C_15
REMARK                            x       y       z     vdW  Elec       q    Type
REMARK                         _______ _______ _______ _____ _____    ______ ____
ROOT
ATOM      1  C   UNL     1      -5.758   3.382 -22.135  0.00  0.00    +0.039 C 
ATOM      2  C   UNL     1      -4.510   3.122 -22.391  0.00  0.00    -0.073 C 
ATOM      3  C   UNL     1      -4.142   3.286 -23.627  0.00  0.00    -0.061 C 
ATOM      4  C   UNL     1      -4.946   3.683 -24.567  0.00  0.00    +0.034 C 
ATOM      5  C   UNL     1      -4.270   3.743 -25.676  0.00  0.00    +0.039 C 
ATOM      6  C   UNL     1      -3.047   3.384 -25.421  0.00  0.00    +0.073 C 
ATOM      7  C   UNL     1      -2.863   3.601 -26.689  0.00  0.00    +0.042 C 
ATOM      8  C   UNL     1      -2.967   3.101 -24.154  0.00  0.00    +0.087 C 
ATOM      9  C   UNL     1      -1.872   2.707 -23.576  0.00  0.00    +0.190 C 
ATOM     10  O   UNL     1      -0.744   2.555 -24.205  0.00  0.00    -0.460 OA
ATOM     11  C   UNL     1       0.144   2.154 -23.345  0.00  0.00    +0.311 C 
ATOM     12  C   UNL     1      -0.434   2.059 -22.185  0.00  0.00    +0.101 C 
ATOM     13  C   UNL     1       0.134   1.687 -21.076  0.00  0.00    +0.019 C 
ATOM     14  O   UNL     1       1.392   1.895 -23.600  0.00  0.00    -0.251 OA
ATOM     15  C   UNL     1      -1.680   2.400 -22.327  0.00  0.00    +0.044 C 
ATOM     16  C   UNL     1      -2.536   2.412 -21.349  0.00  0.00    +0.012 C 
ATOM     17  C   UNL     1      -3.795   2.733 -21.377  0.00  0.00    +0.031 C 
ENDROOT
BRANCH   6  18
ATOM     18  O   UNL     1      -1.786   3.070 -25.431  0.00  0.00    -0.388 OA
ATOM     19  H   UNL     1      -1.641   2.331 -26.041  0.00  0.00    +0.210 HD
ENDBRANCH   6  18
TORSDOF 1
ENDMDL
