MODEL 1
REMARK VINA RESULT:    -8.794      0.000      0.000
REMARK INTER + INTRA:         -11.837
REMARK INTER:                 -11.308
REMARK INTRA:                  -0.528
REMARK UNBOUND:                -0.729
REMARK  Name = ZINC000039386789
REMARK  7 active torsions:
REMARK  status: ('A' for Active; 'I' for Inactive)
REMARK    1  A    between atoms: C_1  and  O_2
REMARK    2  A    between atoms: O_2  and  C_3
REMARK    3  A    between atoms: C_11  and  C_12
REMARK    4  A    between atoms: C_12  and  C_13
REMARK    5  A    between atoms: C_16  and  O_17
REMARK    6  A    between atoms: O_17  and  C_18
REMARK    7  A    between atoms: C_19  and  O_20
REMARK                            x       y       z     vdW  Elec       q    Type
REMARK                         _______ _______ _______ _____ _____    ______ ____
ROOT
ATOM      1  C   UNL     1      -4.405   3.378 -22.287  0.00  0.00    +0.098 C 
ATOM      2  C   UNL     1      -3.404   2.979 -21.560  0.00  0.00    +0.019 C 
ATOM      3  C   UNL     1      -2.238   2.794 -22.103  0.00  0.00    +0.066 C 
ATOM      4  C   UNL     1      -2.073   3.008 -23.375  0.00  0.00    -0.018 C 
ATOM      5  C   UNL     1      -3.073   3.407 -24.103  0.00  0.00    -0.052 C 
ATOM      6  C   UNL     1      -2.909   3.621 -25.374  0.00  0.00    +0.082 C 
ATOM      7  C   UNL     1      -1.743   3.436 -25.918  0.00  0.00    +0.134 C 
ATOM      8  N   UNL     1      -0.741   3.037 -25.191  0.00  0.00    +0.233 N 
ATOM      9  H   UNL     1      -0.539   2.108 -25.561  0.00  0.00    +0.202 HD
ATOM     10  H   UNL     1      -0.014   3.746 -25.278  0.00  0.00    +0.202 HD
ATOM     11  C   UNL     1      -0.907   2.823 -23.919  0.00  0.00    +0.094 C 
ATOM     12  C   UNL     1      -4.239   3.592 -23.559  0.00  0.00    +0.104 C 
ENDROOT
BRANCH   1  14
ATOM     13  C   UNL     1      -6.445   2.601 -21.735  0.00  0.00    +0.276 C 
ATOM     14  O   UNL     1      -5.571   3.563 -21.742  0.00  0.00    -0.499 OA
ENDBRANCH   1  14
BRANCH  11  15
ATOM     15  C   UNL     1       0.094   2.425 -23.192  0.00  0.00    +0.094 C 
BRANCH  15  16
ATOM     16  C   UNL     1       1.212   3.090 -23.203  0.00  0.00    -0.038 A 
ATOM     17  C   UNL     1       2.344   2.457 -23.147  0.00  0.00    +0.007 A 
ATOM     18  C   UNL     1       3.462   3.121 -23.158  0.00  0.00    +0.049 A 
ATOM     19  C   UNL     1       3.445   4.420 -23.226  0.00  0.00    +0.161 A 
ATOM     20  C   UNL     1       2.311   5.052 -23.283  0.00  0.00    +0.159 A 
ATOM     21  C   UNL     1       1.194   4.387 -23.271  0.00  0.00    +0.053 A 
BRANCH  20  22
ATOM     22  O   UNL     1       2.294   6.351 -23.351  0.00  0.00    -0.503 OA
ATOM     23  H   UNL     1       1.755   6.781 -23.986  0.00  0.00    +0.292 HD
ENDBRANCH  20  22
BRANCH  19  24
ATOM     24  O   UNL     1       4.562   5.085 -23.237  0.00  0.00    -0.491 OA
ATOM     25  C   UNL     1       5.695   4.453 -23.162  0.00  0.00    +0.277 C 
ENDBRANCH  19  24
ENDBRANCH  15  16
ENDBRANCH  11  15
TORSDOF 5
ENDMDL
