MODEL 1
REMARK VINA RESULT:   -12.469      0.000      0.000
REMARK INTER + INTRA:         -12.469
REMARK INTER:                 -12.469
REMARK INTRA:                   0.000
REMARK UNBOUND:                 0.000
REMARK  Name = C[C@]12CC[C@@H]3[C@H](CC(=O)[C@H]4CC(=O)CC[C@@]43C)[C@@H]1CCC2=O     ZINC000253504862
REMARK  2 active torsions:
REMARK  status: ('A' for Active; 'I' for Inactive)
REMARK    1  A    between atoms: C_1  and  C_2
REMARK    2  A    between atoms: C_16  and  C_17
REMARK                            x       y       z     vdW  Elec       q    Type
REMARK                         _______ _______ _______ _____ _____    ______ ____
ROOT
ATOM      1  C   UNL     1      -4.745   2.871 -21.545  0.00  0.00    +0.019 C 
ATOM      2  C   UNL     1      -3.897   3.115 -22.499  0.00  0.00    +0.029 C 
ATOM      3  C   UNL     1      -3.373   2.532 -21.462  0.00  0.00    +0.015 C 
ATOM      4  C   UNL     1      -2.104   2.247 -21.448  0.00  0.00    +0.005 C 
ATOM      5  C   UNL     1      -1.361   2.545 -22.472  0.00  0.00    -0.001 C 
ATOM      6  C   UNL     1      -1.885   3.128 -23.509  0.00  0.00    +0.004 C 
ATOM      7  C   UNL     1      -1.141   3.426 -24.532  0.00  0.00    +0.078 C 
ATOM      8  C   UNL     1       0.127   3.142 -24.519  0.00  0.00    +0.138 C 
ATOM      9  C   UNL     1       0.652   2.559 -23.481  0.00  0.00    +0.068 C 
ATOM     10  C   UNL     1       1.920   2.274 -23.468  0.00  0.00    +0.086 C 
ATOM     11  C   UNL     1       2.444   1.691 -22.431  0.00  0.00    +0.134 C 
ATOM     12  C   UNL     1       1.700   1.393 -21.407  0.00  0.00    +0.075 C 
ATOM     13  C   UNL     1       0.432   1.678 -21.421  0.00  0.00    +0.015 C 
ATOM     14  O   UNL     1       3.713   1.406 -22.417  0.00  0.00    -0.297 OA
ATOM     15  O   UNL     1       0.872   3.439 -25.542  0.00  0.00    -0.297 OA
ATOM     16  C   UNL     1      -0.093   2.261 -22.458  0.00  0.00    -0.019 C 
ATOM     17  C   UNL     1      -0.836   1.963 -21.435  0.00  0.00    +0.012 C 
ATOM     18  C   UNL     1      -5.111   3.499 -22.760  0.00  0.00    +0.139 C 
ATOM     19  O   UNL     1      -6.140   3.371 -21.974  0.00  0.00    -0.297 OA
ATOM     20  C   UNL     1      -5.118   4.035 -23.945  0.00  0.00    +0.075 C 
ATOM     21  C   UNL     1      -3.908   3.981 -24.416  0.00  0.00    +0.012 C 
ATOM     22  C   UNL     1      -3.153   3.413 -23.523  0.00  0.00    +0.006 C 
ENDROOT
TORSDOF 0
ENDMDL
