MODEL 1
REMARK VINA RESULT:    -9.375      0.000      0.000
REMARK INTER + INTRA:          -3.257
REMARK INTER:                 -11.125
REMARK INTRA:                   7.869
REMARK UNBOUND:                 8.310
REMARK  Name = ZINC000096316385
REMARK  8 active torsions:
REMARK  status: ('A' for Active; 'I' for Inactive)
REMARK    1  A    between atoms: C_1  and  O_2
REMARK    2  A    between atoms: O_2  and  C_3
REMARK    3  A    between atoms: C_3  and  C_5
REMARK    4  A    between atoms: C_8  and  O_9
REMARK    5  A    between atoms: O_9  and  C_10
REMARK    6  A    between atoms: N_18  and  C_19
REMARK    7  A    between atoms: C_25  and  O_26
REMARK    8  A    between atoms: O_26  and  C_27
REMARK                            x       y       z     vdW  Elec       q    Type
REMARK                         _______ _______ _______ _____ _____    ______ ____
ROOT
ATOM      1  C   UNL     1      -2.687   3.053 -22.730  0.00  0.00    +0.275 C 
ATOM      2  O   UNL     1      -1.555   2.678 -21.787  0.00  0.00    -0.461 OA
ATOM      3  C   UNL     1      -0.208   2.578 -22.470  0.00  0.00    +0.169 A 
ATOM      4  C   UNL     1       1.038   2.338 -22.337  0.00  0.00    +0.162 A 
ATOM      5  C   UNL     1       1.802   2.402 -23.356  0.00  0.00    +0.050 A 
ATOM      6  C   UNL     1       1.335   2.699 -24.488  0.00  0.00    +0.008 A 
ATOM      7  C   UNL     1       0.101   2.936 -24.617  0.00  0.00    -0.034 A 
ATOM      8  C   UNL     1      -0.379   3.239 -25.767  0.00  0.00    +0.094 C 
ATOM      9  C   UNL     1      -1.609   3.475 -25.896  0.00  0.00    +0.096 C 
ATOM     10  C   UNL     1      -2.376   3.411 -24.878  0.00  0.00    -0.006 C 
ATOM     11  C   UNL     1      -3.620   3.650 -25.010  0.00  0.00    +0.009 C 
ATOM     12  C   UNL     1      -4.385   3.590 -24.009  0.00  0.00    +0.046 C 
ATOM     13  N   UNL     1      -2.994   3.761 -26.150  0.00  0.00    +0.239 N 
ATOM     14  H   UNL     1      -3.338   3.998 -27.080  0.00  0.00    +0.204 HD
ATOM     15  C   UNL     1      -3.404   4.053 -27.304  0.00  0.00    +0.191 C 
ATOM     16  C   UNL     1      -3.876   3.700 -25.039  0.00  0.00    +0.133 C 
ATOM     17  C   UNL     1      -3.320   3.362 -23.774  0.00  0.00    +0.072 C 
ATOM     18  C   UNL     1      -0.677   2.878 -23.615  0.00  0.00    +0.017 A 
ATOM     19  C   UNL     1      -3.919   3.290 -22.863  0.00  0.00    +0.153 C 
ATOM     20  C   UNL     1      -1.907   3.114 -23.747  0.00  0.00    +0.088 C 
ENDROOT
BRANCH   1  21
ATOM     21  C   UNL     1      -3.097   2.877 -21.445  0.00  0.00    +0.360 C 
ATOM     22  O   UNL     1      -3.435   1.872 -21.035  0.00  0.00    -0.246 OA
BRANCH  21  24
ATOM     23  C   UNL     1      -3.227   3.649 -19.392  0.00  0.00    +0.280 C 
ATOM     24  O   UNL     1      -3.132   3.829 -20.606  0.00  0.00    -0.465 OA
ENDBRANCH  21  24
ENDBRANCH   1  21
BRANCH   4  25
ATOM     25  O   UNL     1       1.509   2.041 -21.207  0.00  0.00    -0.491 OA
ATOM     26  C   UNL     1       2.673   1.565 -21.113  0.00  0.00    +0.277 C 
ENDBRANCH   4  25
BRANCH  19  27
ATOM     27  O   UNL     1      -4.703   3.248 -21.942  0.00  0.00    -0.495 OA
ATOM     28  C   UNL     1      -5.932   3.245 -22.198  0.00  0.00    +0.276 C 
ENDBRANCH  19  27
TORSDOF 4
ENDMDL
