MODEL 1
REMARK VINA RESULT:   -10.144      0.000      0.000
REMARK INTER + INTRA:         -10.144
REMARK INTER:                 -10.144
REMARK INTRA:                   0.000
REMARK UNBOUND:                 0.000
REMARK  Name = ZINC000003159526
REMARK  1 active torsions:
REMARK  status: ('A' for Active; 'I' for Inactive)
REMARK    1  A    between atoms: C_6  and  C_7
REMARK                            x       y       z     vdW  Elec       q    Type
REMARK                         _______ _______ _______ _____ _____    ______ ____
ROOT
ATOM      1  C   UNL     1      -3.420   4.121 -25.519  0.00  0.00    +0.008 C 
ATOM      2  C   UNL     1      -3.898   3.779 -24.360  0.00  0.00    -0.073 C 
ATOM      3  C   UNL     1      -5.154   3.980 -24.089  0.00  0.00    +0.030 C 
ATOM      4  C   UNL     1      -5.632   3.639 -22.929  0.00  0.00    +0.005 C 
ATOM      5  C   UNL     1      -4.855   3.096 -22.040  0.00  0.00    +0.007 C 
ATOM      6  C   UNL     1      -3.600   2.894 -22.310  0.00  0.00    -0.022 C 
ATOM      7  C   UNL     1      -2.822   2.351 -21.421  0.00  0.00    +0.052 C 
ATOM      8  C   UNL     1      -1.567   2.149 -21.691  0.00  0.00    +0.185 C 
ATOM      9  O   UNL     1      -0.599   1.635 -20.992  0.00  0.00    -0.457 OA
ATOM     10  C   UNL     1       0.478   1.658 -21.720  0.00  0.00    +0.335 C 
ATOM     11  C   UNL     1       0.175   2.187 -22.868  0.00  0.00    +0.036 C 
ATOM     12  C   UNL     1       0.992   2.379 -23.860  0.00  0.00    +0.020 C 
ATOM     13  O   UNL     1       1.651   1.228 -21.363  0.00  0.00    -0.245 OA
ATOM     14  C   UNL     1      -1.089   2.491 -22.850  0.00  0.00    +0.067 C 
ATOM     15  C   UNL     1      -1.865   3.034 -23.740  0.00  0.00    +0.020 C 
ATOM     16  C   UNL     1      -4.079   2.553 -21.150  0.00  0.00    +0.012 C 
ATOM     17  C   UNL     1      -3.120   3.236 -23.470  0.00  0.00    +0.021 C 
ENDROOT
TORSDOF 0
ENDMDL
