MODEL 1
REMARK VINA RESULT:   -10.348      0.000      0.000
REMARK INTER + INTRA:         -10.651
REMARK INTER:                 -10.651
REMARK INTRA:                   0.000
REMARK UNBOUND:                 0.000
REMARK  Name = ZINC000071325822
REMARK  4 active torsions:
REMARK  status: ('A' for Active; 'I' for Inactive)
REMARK    1  A    between atoms: C_1  and  C_2
REMARK    2  A    between atoms: C_6  and  C_7
REMARK    3  A    between atoms: C_6  and  O_8
REMARK    4  A    between atoms: C_14  and  C_15
REMARK                            x       y       z     vdW  Elec       q    Type
REMARK                         _______ _______ _______ _____ _____    ______ ____
ROOT
ATOM      1  C   UNL     1      -5.767   3.398 -22.142  0.00  0.00    +0.039 C 
ATOM      2  C   UNL     1      -4.525   3.133 -22.417  0.00  0.00    -0.073 C 
ATOM      3  C   UNL     1      -4.175   3.290 -23.659  0.00  0.00    -0.061 C 
ATOM      4  C   UNL     1      -4.994   3.686 -24.588  0.00  0.00    +0.034 C 
ATOM      5  C   UNL     1      -4.335   3.740 -25.708  0.00  0.00    +0.039 C 
ATOM      6  C   UNL     1      -3.109   3.377 -25.471  0.00  0.00    +0.073 C 
ATOM      7  C   UNL     1      -2.945   3.588 -26.743  0.00  0.00    +0.042 C 
ATOM      8  C   UNL     1      -3.010   3.099 -24.204  0.00  0.00    +0.087 C 
ATOM      9  C   UNL     1      -1.907   2.703 -23.642  0.00  0.00    +0.190 C 
ATOM     10  O   UNL     1      -0.790   2.545 -24.288  0.00  0.00    -0.460 OA
ATOM     11  C   UNL     1       0.110   2.144 -23.441  0.00  0.00    +0.311 C 
ATOM     12  C   UNL     1      -0.450   2.055 -22.271  0.00  0.00    +0.101 C 
ATOM     13  C   UNL     1       0.135   1.685 -21.170  0.00  0.00    +0.019 C 
ATOM     14  O   UNL     1       1.353   1.879 -23.715  0.00  0.00    -0.251 OA
ATOM     15  C   UNL     1      -1.697   2.401 -22.395  0.00  0.00    +0.044 C 
ATOM     16  C   UNL     1      -2.537   2.419 -21.403  0.00  0.00    +0.012 C 
ATOM     17  C   UNL     1      -3.795   2.745 -21.413  0.00  0.00    +0.031 C 
ENDROOT
BRANCH   6  18
ATOM     18  O   UNL     1      -1.849   3.058 -25.499  0.00  0.00    -0.388 OA
ATOM     19  H   UNL     1      -1.704   2.374 -26.171  0.00  0.00    +0.210 HD
ENDBRANCH   6  18
TORSDOF 1
ENDMDL
