MODEL 1
REMARK VINA RESULT:   -10.228      0.000      0.000
REMARK INTER + INTRA:         -13.406
REMARK INTER:                 -12.786
REMARK INTRA:                  -0.620
REMARK UNBOUND:                 0.410
REMARK  Name = C=C[C@@H]1CN2CC[C@H]1C[C@H]2[C@H](OC(=O)c1ccccc1)c1ccnc2ccccc12      ZINC000253387606
REMARK  6 active torsions:
REMARK  status: ('A' for Active; 'I' for Inactive)
REMARK    1  A    between atoms: C_2  and  C_3
REMARK    2  A    between atoms: C_10  and  C_11
REMARK    3  A    between atoms: C_11  and  O_12
REMARK    4  A    between atoms: C_11  and  C_21
REMARK    5  A    between atoms: O_12  and  C_13
REMARK    6  A    between atoms: C_13  and  C_15
REMARK                            x       y       z     vdW  Elec       q    Type
REMARK                         _______ _______ _______ _____ _____    ______ ____
ROOT
ATOM      1  C   UNL     1      -1.029   2.674 -23.815  0.00  0.00    +0.255 C 
ENDROOT
BRANCH   1   2
ATOM      2  C   UNL     1      -2.124   3.071 -24.443  0.00  0.00    +0.009 A 
ATOM      3  C   UNL     1      -2.092   3.307 -25.740  0.00  0.00    +0.028 A 
ATOM      4  C   UNL     1      -3.184   3.704 -26.368  0.00  0.00    +0.112 A 
ATOM      5  N   UNL     1      -4.308   3.862 -25.693  0.00  0.00    -0.255 NA
ATOM      6  C   UNL     1      -4.341   3.626 -24.397  0.00  0.00    +0.071 A 
ATOM      7  C   UNL     1      -5.465   3.784 -23.721  0.00  0.00    +0.028 A 
ATOM      8  C   UNL     1      -5.496   3.547 -22.426  0.00  0.00    +0.002 A 
ATOM      9  C   UNL     1      -4.404   3.151 -21.797  0.00  0.00    +0.001 A 
ATOM     10  C   UNL     1      -3.280   2.993 -22.473  0.00  0.00    +0.010 A 
ATOM     11  C   UNL     1      -3.248   3.229 -23.769  0.00  0.00    +0.007 A 
ENDBRANCH   1   2
BRANCH   1  18
ATOM     12  C   UNL     1       2.010   5.204 -23.325  0.00  0.00    +0.060 C 
ATOM     13  C   UNL     1       0.865   5.391 -22.651  0.00  0.00    +0.139 C 
ATOM     14  N   UNL     1      -0.140   4.533 -22.829  0.00  0.00    +0.241 N 
ATOM     15  H   UNL     1      -1.078   4.480 -22.432  0.00  0.00    +0.204 HD
ATOM     16  C   UNL     1       0.871   4.784 -23.110  0.00  0.00    +0.132 C 
ATOM     17  C   UNL     1       1.185   3.990 -23.855  0.00  0.00    +0.055 C 
ATOM     18  C   UNL     1      -0.022   3.512 -23.653  0.00  0.00    +0.111 C 
ATOM     19  C   UNL     1       1.119   3.329 -24.322  0.00  0.00    +0.063 C 
ATOM     20  C   UNL     1       2.123   4.166 -24.159  0.00  0.00    +0.011 C 
BRANCH  12  22
ATOM     21  C   UNL     1       4.205   5.587 -22.799  0.00  0.00    +0.004 C 
ATOM     22  C   UNL     1       3.022   6.041 -23.165  0.00  0.00    -0.026 C 
ENDBRANCH  12  22
ENDBRANCH   1  18
BRANCH   1  23
ATOM     23  O   UNL     1      -0.944   1.442 -23.352  0.00  0.00    -0.447 OA
BRANCH  23  24
ATOM     24  C   UNL     1      -0.497   1.227 -22.130  0.00  0.00    +0.340 C 
ATOM     25  O   UNL     1      -1.347   1.095 -21.130  0.00  0.00    -0.245 OA
BRANCH  24  26
ATOM     26  C   UNL     1       0.800   1.143 -21.909  0.00  0.00    +0.059 A 
ATOM     27  C   UNL     1       1.330   1.741 -20.854  0.00  0.00    +0.015 A 
ATOM     28  C   UNL     1       2.628   1.657 -20.634  0.00  0.00    +0.001 A 
ATOM     29  C   UNL     1       3.399   0.979 -21.462  0.00  0.00    +0.000 A 
ATOM     30  C   UNL     1       2.870   0.381 -22.516  0.00  0.00    +0.001 A 
ATOM     31  C   UNL     1       1.572   0.465 -22.736  0.00  0.00    +0.015 A 
ENDBRANCH  24  26
ENDBRANCH  23  24
ENDBRANCH   1  23
TORSDOF 6
ENDMDL
