MODEL 1
REMARK VINA RESULT:   -11.063      0.000      0.000
REMARK INTER + INTRA:         -12.975
REMARK INTER:                 -12.359
REMARK INTRA:                  -0.616
REMARK UNBOUND:                 0.028
REMARK  Name = COc1ccc2c(c1Oc1ccccc1)[C@]13CCN(C)[C@@H](C2)[C@H]1CCC(=O)C3          ZINC000100393780
REMARK  5 active torsions:
REMARK  status: ('A' for Active; 'I' for Inactive)
REMARK    1  A    between atoms: C_1  and  O_2
REMARK    2  A    between atoms: O_2  and  C_3
REMARK    3  A    between atoms: C_8  and  O_9
REMARK    4  A    between atoms: O_9  and  C_10
REMARK    5  A    between atoms: N_19  and  C_20
REMARK                            x       y       z     vdW  Elec       q    Type
REMARK                         _______ _______ _______ _____ _____    ______ ____
ROOT
ATOM      1  C   UNL     1      -2.073   2.568 -21.365  0.00  0.00    +0.162 A 
ATOM      2  C   UNL     1      -3.123   2.544 -20.664  0.00  0.00    +0.050 A 
ATOM      3  C   UNL     1      -4.221   2.817 -21.216  0.00  0.00    +0.008 A 
ATOM      4  C   UNL     1      -4.245   3.151 -22.641  0.00  0.00    -0.035 A 
ATOM      5  C   UNL     1      -3.321   3.149 -23.159  0.00  0.00    +0.009 A 
ATOM      6  C   UNL     1      -3.111   3.330 -24.062  0.00  0.00    +0.019 C 
ATOM      7  C   UNL     1      -3.279   2.975 -22.434  0.00  0.00    +0.063 C 
ATOM      8  C   UNL     1      -4.615   3.010 -21.825  0.00  0.00    +0.132 C 
ATOM      9  N   UNL     1      -5.537   3.286 -22.489  0.00  0.00    +0.236 N 
ATOM     10  H   UNL     1      -6.104   3.548 -23.295  0.00  0.00    +0.203 HD
ATOM     11  C   UNL     1      -5.396   3.624 -24.024  0.00  0.00    +0.072 C 
ATOM     12  C   UNL     1      -6.345   3.149 -21.438  0.00  0.00    +0.190 C 
ATOM     13  C   UNL     1      -2.021   3.329 -24.677  0.00  0.00    +0.086 C 
ATOM     14  C   UNL     1      -2.001   3.617 -25.932  0.00  0.00    +0.134 C 
ATOM     15  O   UNL     1      -0.887   3.616 -26.563  0.00  0.00    -0.297 OA
ATOM     16  C   UNL     1      -3.100   3.913 -26.582  0.00  0.00    +0.075 C 
ATOM     17  C   UNL     1      -4.239   3.925 -25.982  0.00  0.00    +0.017 C 
ATOM     18  C   UNL     1      -4.304   3.650 -24.760  0.00  0.00    +0.050 C 
ATOM     19  C   UNL     1      -5.345   3.423 -23.188  0.00  0.00    +0.090 C 
ATOM     20  C   UNL     1      -2.154   2.868 -22.614  0.00  0.00    +0.174 A 
ENDROOT
BRANCH   1  22
ATOM     21  C   UNL     1      -0.191   1.213 -21.068  0.00  0.00    +0.277 C 
ATOM     22  O   UNL     1      -0.806   2.307 -20.964  0.00  0.00    -0.491 OA
ENDBRANCH   1  22
BRANCH  20  23
ATOM     23  O   UNL     1      -1.059   2.983 -23.733  0.00  0.00    -0.452 OA
BRANCH  23  24
ATOM     24  C   UNL     1       0.261   3.413 -23.743  0.00  0.00    +0.129 A 
ATOM     25  C   UNL     1       0.442   4.629 -23.390  0.00  0.00    +0.046 A 
ATOM     26  C   UNL     1       1.621   5.122 -23.367  0.00  0.00    +0.004 A 
ATOM     27  C   UNL     1       2.624   4.396 -23.697  0.00  0.00    +0.000 A 
ATOM     28  C   UNL     1       2.444   3.180 -24.050  0.00  0.00    +0.004 A 
ATOM     29  C   UNL     1       1.266   2.685 -24.075  0.00  0.00    +0.046 A 
ENDBRANCH  23  24
ENDBRANCH  20  23
TORSDOF 3
ENDMDL
