MODEL 1
REMARK VINA RESULT:   -10.915      0.000      0.000
REMARK INTER + INTRA:         -13.024
REMARK INTER:                 -12.442
REMARK INTRA:                  -0.582
REMARK UNBOUND:                -0.195
REMARK  Name = COc1ccc2c(c1Oc1ccccc1)[C@@]13CCN(C)[C@@H](C2)[C@@H]1CCC(=O)C3        ZINC000163790276
REMARK  5 active torsions:
REMARK  status: ('A' for Active; 'I' for Inactive)
REMARK    1  A    between atoms: C_1  and  O_2
REMARK    2  A    between atoms: O_2  and  C_3
REMARK    3  A    between atoms: C_8  and  O_9
REMARK    4  A    between atoms: O_9  and  C_10
REMARK    5  A    between atoms: N_19  and  C_20
REMARK                            x       y       z     vdW  Elec       q    Type
REMARK                         _______ _______ _______ _____ _____    ______ ____
ROOT
ATOM      1  C   UNL     1      -2.079   2.647 -21.340  0.00  0.00    +0.162 A 
ATOM      2  C   UNL     1      -3.149   2.632 -20.667  0.00  0.00    +0.050 A 
ATOM      3  C   UNL     1      -4.233   2.884 -21.255  0.00  0.00    +0.008 A 
ATOM      4  C   UNL     1      -4.220   3.186 -22.687  0.00  0.00    -0.035 A 
ATOM      5  C   UNL     1      -3.281   3.179 -23.180  0.00  0.00    +0.009 A 
ATOM      6  C   UNL     1      -3.048   3.342 -24.081  0.00  0.00    +0.019 C 
ATOM      7  C   UNL     1      -3.259   3.022 -22.450  0.00  0.00    +0.063 C 
ATOM      8  C   UNL     1      -4.611   3.061 -21.879  0.00  0.00    +0.132 C 
ATOM      9  N   UNL     1      -5.516   3.315 -22.574  0.00  0.00    +0.236 N 
ATOM     10  H   UNL     1      -6.063   3.554 -23.400  0.00  0.00    +0.203 HD
ATOM     11  C   UNL     1      -5.335   3.619 -24.112  0.00  0.00    +0.072 C 
ATOM     12  C   UNL     1      -6.352   3.195 -21.543  0.00  0.00    +0.190 C 
ATOM     13  C   UNL     1      -1.942   3.335 -24.666  0.00  0.00    +0.086 C 
ATOM     14  C   UNL     1      -1.889   3.595 -25.926  0.00  0.00    +0.134 C 
ATOM     15  O   UNL     1      -0.759   3.589 -26.526  0.00  0.00    -0.297 OA
ATOM     16  C   UNL     1      -2.973   3.868 -26.612  0.00  0.00    +0.075 C 
ATOM     17  C   UNL     1      -4.128   3.885 -26.044  0.00  0.00    +0.017 C 
ATOM     18  C   UNL     1      -4.224   3.637 -24.818  0.00  0.00    +0.050 C 
ATOM     19  C   UNL     1      -5.306   3.437 -23.271  0.00  0.00    +0.090 C 
ATOM     20  C   UNL     1      -2.128   2.919 -22.597  0.00  0.00    +0.174 A 
ENDROOT
BRANCH   1  22
ATOM     21  C   UNL     1      -0.187   1.321 -20.984  0.00  0.00    +0.277 C 
ATOM     22  O   UNL     1      -0.822   2.406 -20.899  0.00  0.00    -0.491 OA
ENDBRANCH   1  22
BRANCH  20  23
ATOM     23  O   UNL     1      -1.004   3.017 -23.688  0.00  0.00    -0.452 OA
BRANCH  23  24
ATOM     24  C   UNL     1       0.316   3.448 -23.670  0.00  0.00    +0.129 A 
ATOM     25  C   UNL     1       0.487   4.671 -23.338  0.00  0.00    +0.046 A 
ATOM     26  C   UNL     1       1.664   5.166 -23.291  0.00  0.00    +0.004 A 
ATOM     27  C   UNL     1       2.676   4.434 -23.577  0.00  0.00    +0.000 A 
ATOM     28  C   UNL     1       2.506   3.211 -23.909  0.00  0.00    +0.004 A 
ATOM     29  C   UNL     1       1.331   2.714 -23.957  0.00  0.00    +0.046 A 
ENDBRANCH  23  24
ENDBRANCH  20  23
TORSDOF 3
ENDMDL
