MODEL 1
REMARK VINA RESULT:    -8.022      0.000      0.000
REMARK INTER + INTRA:         -15.840
REMARK INTER:                 -13.815
REMARK INTRA:                  -2.025
REMARK UNBOUND:                -1.253
REMARK  Name = CCCCCCCCCCCC1=C(O)C(=O)C=C(NCCCC)C1=O                                ZINC000106618713
REMARK  16 active torsions:
REMARK  status: ('A' for Active; 'I' for Inactive)
REMARK    1  A    between atoms: C_1  and  C_2
REMARK    2  A    between atoms: C_2  and  C_3
REMARK    3  A    between atoms: C_3  and  C_4
REMARK    4  A    between atoms: C_4  and  C_5
REMARK    5  A    between atoms: C_5  and  C_6
REMARK    6  A    between atoms: C_6  and  C_7
REMARK    7  A    between atoms: C_7  and  C_8
REMARK    8  A    between atoms: C_8  and  C_9
REMARK    9  A    between atoms: C_9  and  C_10
REMARK   10  A    between atoms: C_10  and  C_11
REMARK   11  A    between atoms: C_11  and  C_12
REMARK   12  A    between atoms: C_18  and  N_19
REMARK   13  A    between atoms: N_19  and  C_20
REMARK   14  A    between atoms: C_20  and  C_21
REMARK   15  A    between atoms: C_21  and  C_22
REMARK   16  A    between atoms: C_22  and  C_23
REMARK                            x       y       z     vdW  Elec       q    Type
REMARK                         _______ _______ _______ _____ _____    ______ ____
ROOT
ATOM      1  C   UNL     1       0.245   3.433 -23.489  0.00  0.00    -0.008 C 
ATOM      2  C   UNL     1       0.363   2.220 -23.039  0.00  0.00    +0.228 C 
ATOM      3  C   UNL     1       1.502   1.811 -22.561  0.00  0.00    +0.227 C 
ATOM      4  C   UNL     1       2.522   2.617 -22.535  0.00  0.00    +0.076 C 
ATOM      5  C   UNL     1       2.404   3.830 -22.986  0.00  0.00    +0.018 C 
ATOM      6  O   UNL     1       1.620   0.598 -22.110  0.00  0.00    -0.284 OA
ATOM      7  O   UNL     1      -0.657   1.414 -23.065  0.00  0.00    -0.284 OA
ATOM      8  C   UNL     1       1.265   4.238 -23.463  0.00  0.00    -0.112 C 
ATOM      9  O   UNL     1       1.147   5.452 -23.914  0.00  0.00    -0.828 OA
ENDROOT
BRANCH   5  10
ATOM     10  N   UNL     1       3.424   4.636 -22.960  0.00  0.00    -0.344 N 
ATOM     11  H   UNL     1       3.290   5.593 -22.777  0.00  0.00    +0.146 HD
BRANCH  10  12
ATOM     12  C   UNL     1       4.620   4.176 -23.175  0.00  0.00    +0.101 C 
BRANCH  12  13
ATOM     13  C   UNL     1       5.638   4.695 -22.554  0.00  0.00    +0.018 C 
BRANCH  13  14
ATOM     14  C   UNL     1       6.599   3.930 -22.128  0.00  0.00    -0.002 C 
ATOM     15  C   UNL     1       7.093   3.014 -22.908  0.00  0.00    +0.004 C 
ENDBRANCH  13  14
ENDBRANCH  12  13
ENDBRANCH  10  12
ENDBRANCH   5  10
BRANCH   1  16
ATOM     16  C   UNL     1      -0.893   3.841 -23.967  0.00  0.00    +0.038 C 
BRANCH  16  17
ATOM     17  C   UNL     1      -1.231   3.542 -25.185  0.00  0.00    +0.005 C 
BRANCH  17  18
ATOM     18  C   UNL     1      -2.488   3.446 -25.507  0.00  0.00    +0.000 C 
BRANCH  18  19
ATOM     19  C   UNL     1      -3.329   4.357 -25.120  0.00  0.00    +0.000 C 
BRANCH  19  20
ATOM     20  C   UNL     1      -4.582   4.055 -24.949  0.00  0.00    +0.000 C 
BRANCH  20  21
ATOM     21  C   UNL     1      -5.176   4.353 -23.831  0.00  0.00    +0.000 C 
BRANCH  21  22
ATOM     22  C   UNL     1      -5.565   3.407 -23.030  0.00  0.00    -0.000 C 
BRANCH  22  23
ATOM     23  C   UNL     1      -5.062   3.320 -21.834  0.00  0.00    -0.000 C 
BRANCH  23  24
ATOM     24  C   UNL     1      -4.020   2.572 -21.619  0.00  0.00    -0.000 C 
BRANCH  24  26
ATOM     25  C   UNL     1      -3.071   4.135 -20.307  0.00  0.00    +0.004 C 
ATOM     26  C   UNL     1      -2.965   3.075 -21.051  0.00  0.00    -0.003 C 
ENDBRANCH  24  26
ENDBRANCH  23  24
ENDBRANCH  22  23
ENDBRANCH  21  22
ENDBRANCH  20  21
ENDBRANCH  19  20
ENDBRANCH  18  19
ENDBRANCH  17  18
ENDBRANCH  16  17
ENDBRANCH   1  16
TORSDOF 14
ENDMDL
