MODEL 1
REMARK VINA RESULT:   -11.537      0.000      0.000
REMARK INTER + INTRA:         -12.325
REMARK INTER:                 -12.175
REMARK INTRA:                  -0.149
REMARK UNBOUND:                 0.224
REMARK  Name = COc1ccc2c3c1O[C@]1(C)[C@@H](O)C=C[C@H]4[C@@H](C2)N(C)CC[C@@]341      ZINC000253505004
REMARK  5 active torsions:
REMARK  status: ('A' for Active; 'I' for Inactive)
REMARK    1  A    between atoms: C_1  and  O_2
REMARK    2  A    between atoms: O_2  and  C_3
REMARK    3  A    between atoms: C_10  and  C_11
REMARK    4  A    between atoms: C_12  and  O_13
REMARK    5  A    between atoms: N_19  and  C_20
REMARK                            x       y       z     vdW  Elec       q    Type
REMARK                         _______ _______ _______ _____ _____    ______ ____
ROOT
ATOM      1  C   UNL     1       0.447   2.239 -23.323  0.00  0.00    +0.162 A 
ATOM      2  C   UNL     1       0.406   1.881 -22.110  0.00  0.00    +0.050 A 
ATOM      3  C   UNL     1      -0.667   1.934 -21.468  0.00  0.00    +0.008 A 
ATOM      4  C   UNL     1      -1.712   2.344 -22.030  0.00  0.00    -0.034 A 
ATOM      5  C   UNL     1      -1.691   2.704 -23.237  0.00  0.00    +0.012 A 
ATOM      6  C   UNL     1      -2.733   3.112 -23.794  0.00  0.00    +0.058 C 
ATOM      7  C   UNL     1      -3.853   3.593 -24.532  0.00  0.00    +0.067 C 
ATOM      8  C   UNL     1      -5.078   3.663 -23.834  0.00  0.00    +0.132 C 
ATOM      9  N   UNL     1      -5.084   3.256 -22.484  0.00  0.00    +0.236 N 
ATOM     10  H   UNL     1      -5.941   3.286 -21.931  0.00  0.00    +0.203 HD
ATOM     11  C   UNL     1      -6.128   3.287 -21.794  0.00  0.00    +0.190 C 
ATOM     12  C   UNL     1      -3.845   2.807 -21.941  0.00  0.00    +0.076 C 
ATOM     13  C   UNL     1      -3.808   3.166 -23.155  0.00  0.00    +0.075 C 
ATOM     14  C   UNL     1      -4.860   3.579 -23.719  0.00  0.00    -0.019 C 
ATOM     15  C   UNL     1      -4.830   3.935 -24.920  0.00  0.00    +0.004 C 
ATOM     16  C   UNL     1      -3.749   3.884 -25.572  0.00  0.00    +0.181 C 
ATOM     17  C   UNL     1      -2.706   3.476 -25.015  0.00  0.00    +0.148 C 
ATOM     18  C   UNL     1      -2.391   3.760 -26.193  0.00  0.00    +0.060 C 
ATOM     19  O   UNL     1      -1.232   3.177 -25.149  0.00  0.00    -0.478 OA
ATOM     20  C   UNL     1      -2.805   2.398 -21.380  0.00  0.00    +0.090 C 
ATOM     21  C   UNL     1      -0.610   2.653 -23.888  0.00  0.00    +0.167 A 
ENDROOT
BRANCH   1  23
ATOM     22  C   UNL     1       2.192   3.224 -24.151  0.00  0.00    +0.277 C 
ATOM     23  O   UNL     1       1.522   2.185 -23.960  0.00  0.00    -0.491 OA
ENDBRANCH   1  23
BRANCH  16  24
ATOM     24  O   UNL     1      -3.721   4.241 -26.772  0.00  0.00    -0.384 OA
ATOM     25  H   UNL     1      -3.052   3.723 -27.248  0.00  0.00    +0.210 HD
ENDBRANCH  16  24
TORSDOF 2
ENDMDL
