MODEL 1
REMARK VINA RESULT:   -10.234      0.000      0.000
REMARK INTER + INTRA:         -10.234
REMARK INTER:                 -10.234
REMARK INTRA:                   0.000
REMARK UNBOUND:                 0.000
REMARK  Name = C=C1C(=O)O[C@@H]2C[C@]3(C)CCC[C@H](C)[C@]34O[C@H]4[C@@H]12           ZINC001857795304
REMARK  2 active torsions:
REMARK  status: ('A' for Active; 'I' for Inactive)
REMARK    1  A    between atoms: C_8  and  C_9
REMARK    2  A    between atoms: C_13  and  C_14
REMARK                            x       y       z     vdW  Elec       q    Type
REMARK                         _______ _______ _______ _____ _____    ______ ____
ROOT
ATOM      1  C   UNL     1       0.953   2.688 -24.196  0.00  0.00    +0.020 C 
ATOM      2  C   UNL     1       0.255   2.436 -23.129  0.00  0.00    +0.039 C 
ATOM      3  C   UNL     1       0.704   1.915 -22.027  0.00  0.00    +0.335 C 
ATOM      4  O   UNL     1      -0.289   1.819 -21.194  0.00  0.00    -0.457 OA
ATOM      5  C   UNL     1      -1.353   2.280 -21.781  0.00  0.00    +0.188 C 
ATOM      6  C   UNL     1      -2.583   2.403 -21.382  0.00  0.00    +0.055 C 
ATOM      7  C   UNL     1      -3.479   2.906 -22.179  0.00  0.00    +0.003 C 
ATOM      8  C   UNL     1      -4.710   3.028 -21.779  0.00  0.00    +0.010 C 
ATOM      9  C   UNL     1      -5.605   3.532 -22.575  0.00  0.00    +0.001 C 
ATOM     10  C   UNL     1      -5.269   3.914 -23.772  0.00  0.00    +0.006 C 
ATOM     11  C   UNL     1      -4.039   3.792 -24.172  0.00  0.00    +0.021 C 
ATOM     12  C   UNL     1      -3.702   4.174 -25.368  0.00  0.00    +0.010 C 
ATOM     13  C   UNL     1      -3.814   2.524 -20.982  0.00  0.00    +0.014 C 
ATOM     14  C   UNL     1      -3.143   3.288 -23.375  0.00  0.00    +0.105 C 
ATOM     15  O   UNL     1      -2.807   3.670 -24.572  0.00  0.00    -0.363 OA
ATOM     16  C   UNL     1      -1.912   3.166 -23.775  0.00  0.00    +0.163 C 
ATOM     17  O   UNL     1       1.931   1.554 -21.797  0.00  0.00    -0.245 OA
ATOM     18  C   UNL     1      -1.016   2.662 -22.978  0.00  0.00    +0.098 C 
ENDROOT
TORSDOF 0
ENDMDL
