MODEL 1
REMARK VINA RESULT:   -10.748      0.000      0.000
REMARK INTER + INTRA:         -12.153
REMARK INTER:                 -12.001
REMARK INTRA:                  -0.151
REMARK UNBOUND:                -0.148
REMARK  Name = ZINC000014447051
REMARK  4 active torsions:
REMARK  status: ('A' for Active; 'I' for Inactive)
REMARK    1  A    between atoms: C_1  and  O_2
REMARK    2  A    between atoms: O_2  and  C_3
REMARK    3  A    between atoms: C_15  and  O_16
REMARK    4  A    between atoms: N_19  and  C_20
REMARK                            x       y       z     vdW  Elec       q    Type
REMARK                         _______ _______ _______ _____ _____    ______ ____
ROOT
ATOM      1  C   UNL     1       0.517   2.578 -23.278  0.00  0.00    +0.162 A 
ATOM      2  C   UNL     1       0.499   2.053 -22.127  0.00  0.00    +0.050 A 
ATOM      3  C   UNL     1      -0.575   1.951 -21.493  0.00  0.00    +0.008 A 
ATOM      4  C   UNL     1      -1.639   2.372 -21.998  0.00  0.00    -0.034 A 
ATOM      5  C   UNL     1      -1.644   2.899 -23.145  0.00  0.00    +0.015 A 
ATOM      6  C   UNL     1      -2.709   3.318 -23.648  0.00  0.00    +0.086 C 
ATOM      7  C   UNL     1      -3.858   3.830 -24.321  0.00  0.00    +0.070 C 
ATOM      8  C   UNL     1      -5.083   3.729 -23.630  0.00  0.00    +0.132 C 
ATOM      9  N   UNL     1      -5.067   3.140 -22.352  0.00  0.00    +0.238 N 
ATOM     10  H   UNL     1      -5.933   3.049 -21.820  0.00  0.00    +0.203 HD
ATOM     11  C   UNL     1      -6.111   3.013 -21.674  0.00  0.00    +0.191 C 
ATOM     12  C   UNL     1      -3.804   2.692 -21.864  0.00  0.00    +0.106 C 
ATOM     13  C   UNL     1      -3.779   3.216 -23.014  0.00  0.00    +0.141 C 
ATOM     14  C   UNL     1      -4.862   3.638 -23.516  0.00  0.00    +0.017 C 
ATOM     15  C   UNL     1      -4.857   4.161 -24.656  0.00  0.00    +0.049 C 
ATOM     16  C   UNL     1      -3.777   4.269 -25.308  0.00  0.00    +0.197 C 
ATOM     17  O   UNL     1      -3.776   4.791 -26.445  0.00  0.00    -0.289 OA
ATOM     18  C   UNL     1      -2.707   3.849 -24.804  0.00  0.00    +0.257 C 
ATOM     19  O   UNL     1      -1.216   3.660 -24.968  0.00  0.00    -0.476 OA
ATOM     20  C   UNL     1      -2.740   2.273 -21.360  0.00  0.00    +0.093 C 
ATOM     21  C   UNL     1      -0.562   3.003 -23.789  0.00  0.00    +0.167 A 
ENDROOT
BRANCH   1  23
ATOM     22  C   UNL     1       2.234   3.752 -23.891  0.00  0.00    +0.277 C 
ATOM     23  O   UNL     1       1.593   2.677 -23.908  0.00  0.00    -0.491 OA
ENDBRANCH   1  23
BRANCH  13  24
ATOM     24  O   UNL     1      -2.717   2.794 -22.504  0.00  0.00    -0.378 OA
ATOM     25  H   UNL     1      -1.967   3.042 -23.068  0.00  0.00    +0.211 HD
ENDBRANCH  13  24
TORSDOF 2
ENDMDL
