MODEL 1
REMARK VINA RESULT:    -7.679      0.000      0.000
REMARK INTER + INTRA:          -9.294
REMARK INTER:                  -9.024
REMARK INTRA:                  -0.270
REMARK UNBOUND:                -0.268
REMARK  Name = ZINC000000334890
REMARK  4 active torsions:
REMARK  status: ('A' for Active; 'I' for Inactive)
REMARK    1  A    between atoms: C_1  and  C_2
REMARK    2  A    between atoms: C_2  and  O_4
REMARK    3  A    between atoms: O_4  and  C_5
REMARK    4  A    between atoms: C_11  and  C_12
REMARK                            x       y       z     vdW  Elec       q    Type
REMARK                         _______ _______ _______ _____ _____    ______ ____
ROOT
ATOM      1  C   UNL     1       0.867   2.024 -22.299  0.00  0.00    +0.135 A 
ATOM      2  C   UNL     1      -0.070   1.764 -21.436  0.00  0.00    +0.047 A 
ATOM      3  C   UNL     1      -1.303   2.077 -21.702  0.00  0.00    +0.019 A 
ATOM      4  C   UNL     1      -1.599   2.649 -22.831  0.00  0.00    +0.065 A 
ATOM      5  C   UNL     1      -2.833   2.963 -23.098  0.00  0.00    +0.203 A 
ATOM      6  C   UNL     1      -3.129   3.535 -24.227  0.00  0.00    +0.096 A 
ATOM      7  C   UNL     1      -2.191   3.794 -25.090  0.00  0.00    +0.210 A 
ATOM      8  O   UNL     1      -0.959   3.481 -24.823  0.00  0.00    -0.462 OA
ATOM      9  O   UNL     1      -3.770   2.703 -22.234  0.00  0.00    -0.286 OA
ATOM     10  C   UNL     1      -0.662   2.909 -23.694  0.00  0.00    +0.142 A 
ATOM     11  C   UNL     1       0.571   2.596 -23.428  0.00  0.00    +0.093 A 
ENDROOT
BRANCH   6  12
ATOM     12  C   UNL     1      -4.362   3.848 -24.493  0.00  0.00    +0.265 C 
ATOM     13  O   UNL     1      -4.630   4.949 -25.131  0.00  0.00    -0.295 OA
ENDBRANCH   6  12
BRANCH   1  14
ATOM     14  O   UNL     1       2.101   1.710 -22.032  0.00  0.00    -0.426 OA
BRANCH  14  16
ATOM     15  C   UNL     1       3.807   1.210 -23.415  0.00  0.00    +0.136 C 
ATOM     16  C   UNL     1       2.730   0.852 -22.779  0.00  0.00    +0.309 C 
ATOM     17  O   UNL     1       2.282  -0.363 -22.891  0.00  0.00    -0.251 OA
ENDBRANCH  14  16
ENDBRANCH   1  14
TORSDOF 3
ENDMDL
