MODEL 1
REMARK VINA RESULT:   -10.992      0.000      0.000
REMARK INTER + INTRA:         -12.073
REMARK INTER:                 -11.961
REMARK INTRA:                  -0.112
REMARK UNBOUND:                -0.117
REMARK  Name = COc1ccc2c3c1O[C@]1(C)[C@H](O)[C@H](Cl)C=C4[C@@H](C2)N(C)CC[C@@]431   ZINC000100393464
REMARK  5 active torsions:
REMARK  status: ('A' for Active; 'I' for Inactive)
REMARK    1  A    between atoms: C_1  and  O_2
REMARK    2  A    between atoms: O_2  and  C_3
REMARK    3  A    between atoms: C_10  and  C_11
REMARK    4  A    between atoms: C_12  and  O_13
REMARK    5  A    between atoms: N_20  and  C_21
REMARK                            x       y       z     vdW  Elec       q    Type
REMARK                         _______ _______ _______ _____ _____    ______ ____
ROOT
ATOM      1  C   UNL     1       1.631   2.267 -23.774  0.00  0.00    +0.162 A 
ATOM      2  C   UNL     1       1.914   1.793 -22.633  0.00  0.00    +0.050 A 
ATOM      3  C   UNL     1       1.026   1.669 -21.758  0.00  0.00    +0.008 A 
ATOM      4  C   UNL     1      -0.155   2.016 -22.011  0.00  0.00    -0.034 A 
ATOM      5  C   UNL     1      -0.457   2.489 -23.141  0.00  0.00    +0.016 A 
ATOM      6  C   UNL     1      -1.635   2.834 -23.390  0.00  0.00    +0.072 C 
ATOM      7  C   UNL     1      -2.937   3.260 -23.788  0.00  0.00    +0.071 C 
ATOM      8  C   UNL     1      -3.960   3.131 -22.821  0.00  0.00    +0.133 C 
ATOM      9  N   UNL     1      -3.606   2.599 -21.562  0.00  0.00    +0.239 N 
ATOM     10  H   UNL     1      -4.303   2.484 -20.825  0.00  0.00    +0.204 HD
ATOM     11  C   UNL     1      -4.451   2.452 -20.650  0.00  0.00    +0.191 C 
ATOM     12  C   UNL     1      -2.238   2.237 -21.377  0.00  0.00    +0.096 C 
ATOM     13  C   UNL     1      -2.524   2.711 -22.517  0.00  0.00    -0.010 C 
ATOM     14  C   UNL     1      -3.716   3.060 -22.771  0.00  0.00    +0.000 C 
ATOM     15  C   UNL     1      -4.005   3.529 -23.896  0.00  0.00    +0.136 C 
ATOM     16 CL   UNL     1      -5.184   3.874 -24.143  0.00  0.00    -0.115 Cl
ATOM     17  C   UNL     1      -3.111   3.657 -24.784  0.00  0.00    +0.180 C 
ATOM     18  C   UNL     1      -1.933   3.312 -24.534  0.00  0.00    +0.149 C 
ATOM     19  C   UNL     1      -1.937   3.739 -25.714  0.00  0.00    +0.060 C 
ATOM     20  O   UNL     1      -0.514   3.189 -25.041  0.00  0.00    -0.478 OA
ATOM     21  C   UNL     1      -1.061   1.891 -21.124  0.00  0.00    +0.094 C 
ATOM     22  C   UNL     1       0.438   2.616 -24.027  0.00  0.00    +0.167 A 
ENDROOT
BRANCH   1  24
ATOM     23  C   UNL     1       3.709   2.091 -24.378  0.00  0.00    +0.277 C 
ATOM     24  O   UNL     1       2.521   2.390 -24.647  0.00  0.00    -0.491 OA
ENDBRANCH   1  24
BRANCH  17  25
ATOM     25  O   UNL     1      -3.405   4.127 -25.909  0.00  0.00    -0.386 OA
ATOM     26  H   UNL     1      -4.353   4.331 -25.937  0.00  0.00    +0.210 HD
ENDBRANCH  17  25
TORSDOF 2
ENDMDL
