MODEL 1
REMARK VINA RESULT:   -11.086      0.000      0.000
REMARK INTER + INTRA:         -11.390
REMARK INTER:                 -12.391
REMARK INTRA:                   1.001
REMARK UNBOUND:                 0.993
REMARK  Name = COc1c(O)cc2c(c1O)[C@@]13CCN[C@@H](C2)[C@@H]1CCC(=O)C3                ZINC000144855621
REMARK  4 active torsions:
REMARK  status: ('A' for Active; 'I' for Inactive)
REMARK    1  A    between atoms: C_1  and  O_2
REMARK    2  A    between atoms: O_2  and  C_3
REMARK    3  A    between atoms: C_4  and  O_5
REMARK    4  A    between atoms: C_9  and  O_10
REMARK                            x       y       z     vdW  Elec       q    Type
REMARK                         _______ _______ _______ _____ _____    ______ ____
ROOT
ATOM      1  C   UNL     1      -0.973   2.696 -23.993  0.00  0.00    +0.203 A 
ATOM      2  C   UNL     1      -1.171   3.239 -25.146  0.00  0.00    +0.162 A 
ATOM      3  C   UNL     1      -2.319   3.723 -25.474  0.00  0.00    +0.053 A 
ATOM      4  C   UNL     1      -3.524   3.652 -24.442  0.00  0.00    -0.031 A 
ATOM      5  C   UNL     1      -3.172   3.112 -23.407  0.00  0.00    +0.009 A 
ATOM      6  C   UNL     1      -3.682   2.937 -22.623  0.00  0.00    +0.019 C 
ATOM      7  C   UNL     1      -4.152   2.620 -21.531  0.00  0.00    +0.063 C 
ATOM      8  C   UNL     1      -5.386   2.927 -21.377  0.00  0.00    +0.130 C 
ATOM      9  N   UNL     1      -5.965   3.531 -22.400  0.00  0.00    +0.230 N 
ATOM     10  H   UNL     1      -6.705   2.902 -22.715  0.00  0.00    +0.202 HD
ATOM     11  H   UNL     1      -6.308   4.436 -22.078  0.00  0.00    +0.202 HD
ATOM     12  C   UNL     1      -5.216   3.731 -23.415  0.00  0.00    +0.071 C 
ATOM     13  C   UNL     1      -2.495   2.913 -23.416  0.00  0.00    +0.086 C 
ATOM     14  C   UNL     1      -2.494   3.456 -24.712  0.00  0.00    +0.134 C 
ATOM     15  O   UNL     1      -3.694   4.471 -26.270  0.00  0.00    -0.297 OA
ATOM     16  C   UNL     1      -3.430   3.961 -25.245  0.00  0.00    +0.075 C 
ATOM     17  C   UNL     1      -4.283   4.002 -24.729  0.00  0.00    +0.017 C 
ATOM     18  C   UNL     1      -4.402   3.436 -23.295  0.00  0.00    +0.049 C 
ATOM     19  C   UNL     1      -4.995   4.043 -24.316  0.00  0.00    +0.090 C 
ATOM     20  C   UNL     1      -1.901   2.616 -23.136  0.00  0.00    +0.166 A 
ENDROOT
BRANCH   1  22
ATOM     21  C   UNL     1       1.238   2.723 -23.369  0.00  0.00    +0.277 C 
ATOM     22  O   UNL     1       0.160   2.157 -23.522  0.00  0.00    -0.489 OA
ENDBRANCH   1  22
BRANCH   2  23
ATOM     23  O   UNL     1      -0.108   3.229 -25.883  0.00  0.00    -0.503 OA
ATOM     24  H   UNL     1       0.688   2.862 -25.553  0.00  0.00    +0.292 HD
ENDBRANCH   2  23
BRANCH  20  25
ATOM     25  O   UNL     1      -1.122   2.037 -22.315  0.00  0.00    -0.503 OA
ATOM     26  H   UNL     1      -1.097   1.101 -22.275  0.00  0.00    +0.292 HD
ENDBRANCH  20  25
TORSDOF 3
ENDMDL
