MODEL 1
REMARK VINA RESULT:    -9.316      0.000      0.000
REMARK INTER + INTRA:         -12.702
REMARK INTER:                 -12.263
REMARK INTRA:                  -0.439
REMARK UNBOUND:                -0.663
REMARK  Name = ZINC000001559620
REMARK  7 active torsions:
REMARK  status: ('A' for Active; 'I' for Inactive)
REMARK    1  A    between atoms: C_8  and  O_9
REMARK    2  A    between atoms: O_9  and  C_10
REMARK    3  A    between atoms: C_12  and  C_13
REMARK    4  A    between atoms: C_13  and  O_14
REMARK    5  A    between atoms: C_15  and  O_16
REMARK    6  A    between atoms: C_17  and  O_18
REMARK    7  A    between atoms: C_19  and  O_20
REMARK                            x       y       z     vdW  Elec       q    Type
REMARK                         _______ _______ _______ _____ _____    ______ ____
ROOT
ATOM      1  C   UNL     1       1.075   3.083 -23.799  0.00  0.00    +0.339 C 
ATOM      2  O   UNL     1       1.938   2.554 -22.983  0.00  0.00    -0.331 OA
ATOM      3  C   UNL     1       2.813   1.701 -23.424  0.00  0.00    +0.179 C 
ATOM      4  C   UNL     1       2.827   1.377 -24.684  0.00  0.00    +0.177 C 
ATOM      5  C   UNL     1       1.965   1.906 -25.499  0.00  0.00    +0.180 C 
ATOM      6  C   UNL     1       1.089   2.759 -25.058  0.00  0.00    +0.214 C 
ENDROOT
BRANCH   4   7
ATOM      7  O   UNL     1       3.702   0.524 -25.125  0.00  0.00    -0.386 OA
ATOM      8  H   UNL     1       3.424   0.195 -25.994  0.00  0.00    +0.210 HD
ENDBRANCH   4   7
BRANCH   5   9
ATOM      9  O   UNL     1       1.979   1.582 -26.759  0.00  0.00    -0.386 OA
ATOM     10  H   UNL     1       2.649   2.109 -27.221  0.00  0.00    +0.210 HD
ENDBRANCH   5   9
BRANCH   6  11
ATOM     11  O   UNL     1       0.227   3.288 -25.875  0.00  0.00    -0.383 OA
ATOM     12  H   UNL     1       0.473   3.073 -26.788  0.00  0.00    +0.210 HD
ENDBRANCH   6  11
BRANCH   1  13
ATOM     13  O   UNL     1       0.200   3.936 -23.357  0.00  0.00    -0.461 OA
BRANCH  13  21
ATOM     14  O   UNL     1      -6.537   3.661 -22.936  0.00  0.00    -0.245 OA
ATOM     15  C   UNL     1      -5.365   3.331 -22.479  0.00  0.00    +0.337 A 
ATOM     16  C   UNL     1      -5.268   2.577 -21.423  0.00  0.00    +0.092 A 
ATOM     17  C   UNL     1      -4.097   2.246 -20.966  0.00  0.00    +0.018 A 
ATOM     18  C   UNL     1      -3.023   2.669 -21.564  0.00  0.00    +0.018 A 
ATOM     19  C   UNL     1      -1.851   2.338 -21.107  0.00  0.00    +0.015 A 
ATOM     20  C   UNL     1      -0.777   2.761 -21.704  0.00  0.00    +0.046 A 
ATOM     21  C   UNL     1      -0.874   3.514 -22.759  0.00  0.00    +0.128 A 
ATOM     22  C   UNL     1      -2.045   3.845 -23.217  0.00  0.00    +0.092 A 
ATOM     23  C   UNL     1      -3.120   3.422 -22.619  0.00  0.00    +0.143 A 
ATOM     24  O   UNL     1      -4.291   3.753 -23.076  0.00  0.00    -0.422 OA
ENDBRANCH  13  21
ENDBRANCH   1  13
BRANCH   3  25
ATOM     25  C   UNL     1       3.675   1.172 -22.607  0.00  0.00    +0.190 C 
BRANCH  25  26
ATOM     26  O   UNL     1       3.427   0.020 -22.057  0.00  0.00    -0.392 OA
ATOM     27  H   UNL     1       2.527  -0.260 -22.286  0.00  0.00    +0.210 HD
ENDBRANCH  25  26
ENDBRANCH   3  25
TORSDOF 7
ENDMDL
