MODEL 1
REMARK VINA RESULT:   -11.448      0.000      0.000
REMARK INTER + INTRA:         -12.131
REMARK INTER:                 -11.981
REMARK INTRA:                  -0.151
REMARK UNBOUND:                -0.013
REMARK  Name = COc1ccc2c3c1O[C@@]1(C)C(=O)C=C[C@]4(Br)[C@@H](C2)N(C)CC[C@]314       ZINC000253505040
REMARK  4 active torsions:
REMARK  status: ('A' for Active; 'I' for Inactive)
REMARK    1  A    between atoms: C_1  and  O_2
REMARK    2  A    between atoms: O_2  and  C_3
REMARK    3  A    between atoms: C_10  and  C_11
REMARK    4  A    between atoms: N_20  and  C_21
REMARK                            x       y       z     vdW  Elec       q    Type
REMARK                         _______ _______ _______ _____ _____    ______ ____
ROOT
ATOM      1  C   UNL     1       0.455   2.248 -23.255  0.00  0.00    +0.162 A 
ATOM      2  C   UNL     1       0.408   1.838 -22.058  0.00  0.00    +0.050 A 
ATOM      3  C   UNL     1      -0.670   1.860 -21.420  0.00  0.00    +0.008 A 
ATOM      4  C   UNL     1      -1.710   2.291 -21.969  0.00  0.00    -0.034 A 
ATOM      5  C   UNL     1      -1.687   2.706 -23.163  0.00  0.00    +0.014 A 
ATOM      6  C   UNL     1      -2.728   3.136 -23.708  0.00  0.00    +0.075 C 
ATOM      7  C   UNL     1      -3.848   3.647 -24.431  0.00  0.00    +0.069 C 
ATOM      8  C   UNL     1      -5.077   3.685 -23.736  0.00  0.00    +0.132 C 
ATOM      9  N   UNL     1      -5.092   3.220 -22.406  0.00  0.00    +0.237 N 
ATOM     10  H   UNL     1      -5.960   3.231 -21.871  0.00  0.00    +0.203 HD
ATOM     11  C   UNL     1      -6.141   3.220 -21.723  0.00  0.00    +0.191 C 
ATOM     12  C   UNL     1      -3.855   2.749 -21.872  0.00  0.00    +0.090 C 
ATOM     13  C   UNL     1      -3.802   3.158 -23.069  0.00  0.00    +0.101 C 
ATOM     14 BR   UNL     1      -2.764   2.726 -22.517  0.00  0.00    -0.073 Br
ATOM     15  C   UNL     1      -4.860   3.592 -23.614  0.00  0.00    +0.001 C 
ATOM     16  C   UNL     1      -4.827   4.002 -24.801  0.00  0.00    +0.048 C 
ATOM     17  C   UNL     1      -3.743   3.985 -25.459  0.00  0.00    +0.200 C 
ATOM     18  O   UNL     1      -3.715   4.394 -26.641  0.00  0.00    -0.288 OA
ATOM     19  C   UNL     1      -2.697   3.553 -24.912  0.00  0.00    +0.181 C 
ATOM     20  C   UNL     1      -2.377   3.890 -26.079  0.00  0.00    +0.065 C 
ATOM     21  O   UNL     1      -1.218   3.263 -25.052  0.00  0.00    -0.473 OA
ATOM     22  C   UNL     1      -2.814   2.318 -21.325  0.00  0.00    +0.091 C 
ATOM     23  C   UNL     1      -0.600   2.684 -23.809  0.00  0.00    +0.168 A 
ENDROOT
BRANCH   1  25
ATOM     24  C   UNL     1       2.195   3.276 -24.046  0.00  0.00    +0.277 C 
ATOM     25  O   UNL     1       1.535   2.223 -23.889  0.00  0.00    -0.491 OA
ENDBRANCH   1  25
TORSDOF 1
ENDMDL
