MODEL 1
REMARK VINA RESULT:   -11.058      0.000      0.000
REMARK INTER + INTRA:          -9.256
REMARK INTER:                 -12.945
REMARK INTRA:                   3.688
REMARK UNBOUND:                 3.741
REMARK  Name = COc1ccc2c3c1OC1=C[C@@H](C(C)(C)O)C=C4[C@H](C2)N(C)CC[C@]143          ZINC000100393821
REMARK  7 active torsions:
REMARK  status: ('A' for Active; 'I' for Inactive)
REMARK    1  A    between atoms: C_1  and  O_2
REMARK    2  A    between atoms: O_2  and  C_3
REMARK    3  A    between atoms: C_12  and  C_13
REMARK    4  A    between atoms: C_13  and  C_14
REMARK    5  A    between atoms: C_13  and  C_15
REMARK    6  A    between atoms: C_13  and  O_16
REMARK    7  A    between atoms: N_21  and  C_22
REMARK                            x       y       z     vdW  Elec       q    Type
REMARK                         _______ _______ _______ _____ _____    ______ ____
ROOT
ATOM      1  C   UNL     1      -4.496   3.439 -22.470  0.00  0.00    +0.162 A 
ATOM      2  C   UNL     1      -4.742   3.933 -23.611  0.00  0.00    +0.050 A 
ATOM      3  C   UNL     1      -3.845   3.992 -24.486  0.00  0.00    +0.008 A 
ATOM      4  C   UNL     1      -2.694   3.559 -24.228  0.00  0.00    -0.034 A 
ATOM      5  C   UNL     1      -2.427   3.063 -23.098  0.00  0.00    +0.020 A 
ATOM      6  C   UNL     1      -1.278   2.632 -22.847  0.00  0.00    +0.088 C 
ATOM      7  C   UNL     1      -0.009   2.110 -22.443  0.00  0.00    +0.075 C 
ATOM      8  C   UNL     1       1.024   2.163 -23.409  0.00  0.00    +0.133 C 
ATOM      9  N   UNL     1       0.713   2.721 -24.671  0.00  0.00    +0.239 N 
ATOM     10  H   UNL     1       1.421   2.783 -25.402  0.00  0.00    +0.204 HD
ATOM     11  C   UNL     1       1.571   2.805 -25.581  0.00  0.00    +0.191 C 
ATOM     12  C   UNL     1      -0.626   3.184 -24.860  0.00  0.00    +0.096 C 
ATOM     13  C   UNL     1      -0.377   2.689 -23.719  0.00  0.00    -0.007 C 
ATOM     14  C   UNL     1       0.784   2.253 -23.461  0.00  0.00    -0.011 C 
ATOM     15  C   UNL     1       1.036   1.762 -22.333  0.00  0.00    +0.069 C 
ATOM     16  C   UNL     1       0.131   1.700 -21.447  0.00  0.00    +0.026 C 
ATOM     17  C   UNL     1      -1.019   2.131 -21.698  0.00  0.00    +0.117 C 
ATOM     18  O   UNL     1      -2.426   2.360 -21.198  0.00  0.00    -0.455 OA
ATOM     19  C   UNL     1      -1.775   3.616 -25.115  0.00  0.00    +0.094 C 
ATOM     20  C   UNL     1      -3.332   3.002 -22.214  0.00  0.00    +0.174 A 
ENDROOT
BRANCH  15  21
ATOM     21  C   UNL     1       2.189   1.330 -22.081  0.00  0.00    +0.070 C 
ATOM     22  C   UNL     1       2.998   2.037 -21.432  0.00  0.00    +0.042 C 
ATOM     23  C   UNL     1       3.053   0.422 -22.164  0.00  0.00    +0.042 C 
BRANCH  21  24
ATOM     24  O   UNL     1       1.922   0.262 -22.684  0.00  0.00    -0.388 OA
ATOM     25  H   UNL     1       1.041  -0.046 -22.421  0.00  0.00    +0.210 HD
ENDBRANCH  21  24
ENDBRANCH  15  21
BRANCH   1  27
ATOM     26  C   UNL     1      -6.438   2.716 -21.814  0.00  0.00    +0.277 C 
ATOM     27  O   UNL     1      -5.397   3.382 -21.599  0.00  0.00    -0.491 OA
ENDBRANCH   1  27
TORSDOF 3
ENDMDL
