MODEL 1
REMARK VINA RESULT:    -9.324      0.000      0.000
REMARK INTER + INTRA:          -8.615
REMARK INTER:                 -10.715
REMARK INTRA:                   2.100
REMARK UNBOUND:                 2.071
REMARK  Name = ZINC000000289909
REMARK  3 active torsions:
REMARK  status: ('A' for Active; 'I' for Inactive)
REMARK    1  A    between atoms: C_2  and  C_3
REMARK    2  A    between atoms: C_4  and  N_5
REMARK    3  A    between atoms: C_18  and  C_19
REMARK                            x       y       z     vdW  Elec       q    Type
REMARK                         _______ _______ _______ _____ _____    ______ ____
ROOT
ATOM      1  C   UNL     1      -1.270   3.430 -24.182  0.00  0.00    +0.098 C 
ATOM      2  C   UNL     1      -0.285   3.305 -25.020  0.00  0.00    +0.199 C 
ATOM      3  O   UNL     1       0.825   2.746 -24.640  0.00  0.00    -0.440 OA
ATOM      4  C   UNL     1       0.950   2.311 -23.421  0.00  0.00    +0.152 A 
ATOM      5  C   UNL     1      -0.036   2.435 -22.582  0.00  0.00    +0.092 A 
ATOM      6  C   UNL     1       0.089   2.000 -21.364  0.00  0.00    +0.345 A 
ATOM      7  O   UNL     1       1.199   1.440 -20.983  0.00  0.00    -0.422 OA
ATOM      8  C   UNL     1       2.185   1.316 -21.822  0.00  0.00    +0.143 A 
ATOM      9  C   UNL     1       3.295   0.757 -21.442  0.00  0.00    +0.047 A 
ATOM     10  C   UNL     1       4.280   0.632 -22.281  0.00  0.00    +0.004 A 
ATOM     11  C   UNL     1       4.155   1.067 -23.499  0.00  0.00    +0.001 A 
ATOM     12  C   UNL     1       3.045   1.627 -23.879  0.00  0.00    +0.015 A 
ATOM     13  O   UNL     1      -0.897   2.125 -20.525  0.00  0.00    -0.245 OA
ATOM     14  C   UNL     1       2.060   1.751 -23.041  0.00  0.00    +0.060 A 
ATOM     15  C   UNL     1      -1.146   2.995 -22.963  0.00  0.00    +0.108 C 
ENDROOT
BRANCH  15  16
ATOM     16  C   UNL     1      -2.131   3.119 -22.124  0.00  0.00    +0.001 A 
ATOM     17  C   UNL     1      -2.983   2.149 -21.972  0.00  0.00    +0.007 A 
ATOM     18  C   UNL     1      -3.969   2.274 -21.133  0.00  0.00    +0.000 A 
ATOM     19  C   UNL     1      -4.101   3.369 -20.446  0.00  0.00    +0.003 A 
ATOM     20  C   UNL     1      -3.250   4.339 -20.597  0.00  0.00    +0.038 A 
ATOM     21  C   UNL     1      -2.264   4.214 -21.436  0.00  0.00    +0.127 A 
ATOM     22  F   UNL     1      -1.412   5.185 -21.587  0.00  0.00    -0.205 F 
ENDBRANCH  15  16
BRANCH   2  23
ATOM     23  N   UNL     1      -0.410   3.740 -26.239  0.00  0.00    -0.328 N 
ATOM     24  H   UNL     1      -0.477   3.102 -26.985  0.00  0.00    +0.145 HD
ATOM     25  H   UNL     1      -0.436   4.708 -26.415  0.00  0.00    +0.145 HD
ENDBRANCH   2  23
BRANCH   1  27
ATOM     26  N   UNL     1      -3.490   4.549 -24.944  0.00  0.00    -0.191 NA
ATOM     27  C   UNL     1      -2.380   3.989 -24.562  0.00  0.00    +0.101 C 
ENDBRANCH   1  27
TORSDOF 3
ENDMDL
