MODEL 1
REMARK VINA RESULT:    -9.999      0.000      0.000
REMARK INTER + INTRA:          -9.042
REMARK INTER:                 -10.878
REMARK INTRA:                   1.836
REMARK UNBOUND:                 1.833
REMARK  Name = ZINC000004104704
REMARK  6 active torsions:
REMARK  status: ('A' for Active; 'I' for Inactive)
REMARK    1  A    between atoms: C_1  and  C_2
REMARK    2  A    between atoms: C_5  and  O_6
REMARK    3  A    between atoms: C_7  and  C_8
REMARK    4  A    between atoms: C_8  and  O_9
REMARK    5  A    between atoms: C_15  and  C_16
REMARK    6  A    between atoms: C_15  and  C_17
REMARK                            x       y       z     vdW  Elec       q    Type
REMARK                         _______ _______ _______ _____ _____    ______ ____
ROOT
ATOM      1  C   UNL     1      -3.706   2.501 -21.008  0.00  0.00    +0.008 C 
ATOM      2  C   UNL     1      -3.984   3.005 -22.174  0.00  0.00    -0.010 C 
ATOM      3  C   UNL     1      -5.199   3.378 -22.447  0.00  0.00    +0.006 C 
ATOM      4  C   UNL     1      -5.477   3.882 -23.613  0.00  0.00    +0.032 C 
ATOM      5  C   UNL     1      -4.541   4.014 -24.505  0.00  0.00    +0.123 C 
ATOM      6  C   UNL     1      -3.326   3.641 -24.232  0.00  0.00    +0.023 C 
ATOM      7  C   UNL     1      -2.389   3.772 -25.124  0.00  0.00    +0.012 C 
ATOM      8  C   UNL     1      -1.174   3.399 -24.850  0.00  0.00    +0.005 C 
ATOM      9  C   UNL     1      -0.896   2.895 -23.685  0.00  0.00    -0.001 C 
ATOM     10  C   UNL     1      -1.832   2.764 -22.793  0.00  0.00    +0.003 C 
ATOM     11  C   UNL     1      -0.617   2.391 -22.519  0.00  0.00    -0.028 C 
ATOM     12  C   UNL     1       0.655   2.166 -22.669  0.00  0.00    +0.011 C 
ATOM     13  C   UNL     1      -0.780   1.965 -21.302  0.00  0.00    +0.011 C 
ATOM     14  C   UNL     1      -3.047   3.137 -23.066  0.00  0.00    +0.007 C 
ENDROOT
BRANCH   5  15
ATOM     15  O   UNL     1      -4.819   4.518 -25.671  0.00  0.00    -0.391 OA
ATOM     16  H   UNL     1      -4.771   3.821 -26.343  0.00  0.00    +0.210 HD
ENDBRANCH   5  15
BRANCH   6  17
ATOM     17  C   UNL     1      -3.604   4.145 -25.397  0.00  0.00    +0.165 C 
BRANCH  17  18
ATOM     18  O   UNL     1      -4.081   5.351 -25.487  0.00  0.00    -0.394 OA
ATOM     19  H   UNL     1      -3.353   5.977 -25.630  0.00  0.00    +0.209 HD
ENDBRANCH  17  18
ENDBRANCH   6  17
TORSDOF 3
ENDMDL
