MODEL 1
REMARK VINA RESULT:    -9.513      0.000      0.000
REMARK INTER + INTRA:         -10.954
REMARK INTER:                 -11.969
REMARK INTRA:                   1.015
REMARK UNBOUND:                 1.896
REMARK  Name = ZINC000004610556
REMARK  12 active torsions:
REMARK  status: ('A' for Active; 'I' for Inactive)
REMARK    1  A    between atoms: C_1  and  C_2
REMARK    2  A    between atoms: C_2  and  N_3
REMARK    3  A    between atoms: C_8  and  O_9
REMARK    4  A    between atoms: O_9  and  C_10
REMARK    5  A    between atoms: C_11  and  O_12
REMARK    6  A    between atoms: O_12  and  C_13
REMARK    7  A    between atoms: C_16  and  C_17
REMARK    8  A    between atoms: C_17  and  C_18
REMARK    9  A    between atoms: C_21  and  O_22
REMARK   10  A    between atoms: O_22  and  C_23
REMARK   11  A    between atoms: C_24  and  O_25
REMARK   12  A    between atoms: O_25  and  C_26
REMARK                            x       y       z     vdW  Elec       q    Type
REMARK                         _______ _______ _______ _____ _____    ______ ____
ROOT
ATOM      1  N   UNL     1       0.674   1.721 -22.069  0.00  0.00    +0.241 N 
ATOM      2  H   UNL     1       1.303   1.183 -21.471  0.00  0.00    +0.204 HD
ATOM      3  C   UNL     1      -0.168   1.279 -21.182  0.00  0.00    +0.136 C 
ATOM      4  C   UNL     1      -1.427   1.590 -21.268  0.00  0.00    +0.086 C 
ATOM      5  C   UNL     1      -1.845   2.343 -22.241  0.00  0.00    -0.030 A 
ATOM      6  C   UNL     1      -3.104   2.655 -22.328  0.00  0.00    +0.053 A 
ATOM      7  C   UNL     1      -3.521   3.409 -23.302  0.00  0.00    +0.162 A 
ATOM      8  C   UNL     1      -2.680   3.851 -24.188  0.00  0.00    +0.162 A 
ATOM      9  C   UNL     1      -1.420   3.539 -24.101  0.00  0.00    +0.058 A 
ATOM     10  C   UNL     1      -1.003   2.786 -23.128  0.00  0.00    +0.008 A 
ATOM     11  C   UNL     1       0.256   2.474 -23.041  0.00  0.00    +0.100 C 
ENDROOT
BRANCH   8  12
ATOM     12  O   UNL     1      -3.097   4.605 -25.162  0.00  0.00    -0.491 OA
ATOM     13  C   UNL     1      -3.406   4.075 -26.308  0.00  0.00    +0.277 C 
ENDBRANCH   8  12
BRANCH   7  14
ATOM     14  O   UNL     1      -4.780   3.721 -23.388  0.00  0.00    -0.491 OA
ATOM     15  C   UNL     1      -5.594   3.415 -22.421  0.00  0.00    +0.277 C 
ENDBRANCH   7  14
BRANCH   1  17
ATOM     16  C   UNL     1       2.533   1.443 -20.829  0.00  0.00    +0.060 C 
ATOM     17  C   UNL     1       1.933   1.409 -21.982  0.00  0.00    +0.128 C 
ENDBRANCH   1  17
BRANCH  11  18
ATOM     18  C   UNL     1       1.098   2.917 -23.929  0.00  0.00    +0.094 C 
BRANCH  18  19
ATOM     19  C   UNL     1       2.017   3.769 -23.584  0.00  0.00    -0.038 A 
ATOM     20  C   UNL     1       1.682   4.955 -23.171  0.00  0.00    +0.007 A 
ATOM     21  C   UNL     1       2.601   5.807 -22.826  0.00  0.00    +0.049 A 
ATOM     22  C   UNL     1       3.856   5.473 -22.895  0.00  0.00    +0.161 A 
ATOM     23  C   UNL     1       4.191   4.287 -23.308  0.00  0.00    +0.162 A 
ATOM     24  C   UNL     1       3.272   3.435 -23.652  0.00  0.00    +0.053 A 
BRANCH  22  25
ATOM     25  O   UNL     1       4.775   6.325 -22.550  0.00  0.00    -0.491 OA
ATOM     26  C   UNL     1       4.441   7.460 -22.011  0.00  0.00    +0.277 C 
ENDBRANCH  22  25
BRANCH  23  27
ATOM     27  O   UNL     1       5.445   3.953 -23.376  0.00  0.00    -0.491 OA
ATOM     28  C   UNL     1       5.887   2.941 -22.691  0.00  0.00    +0.277 C 
ENDBRANCH  23  27
ENDBRANCH  18  19
ENDBRANCH  11  18
TORSDOF 7
ENDMDL
