MODEL 1
REMARK VINA RESULT:   -11.199      0.000      0.000
REMARK INTER + INTRA:         -11.997
REMARK INTER:                 -11.889
REMARK INTRA:                  -0.108
REMARK UNBOUND:                -0.144
REMARK  Name = COc1ccc2c3c1OC1=C[C@H](C)C=C4[C@H](C2)N(C)CC[C@]143                  ZINC000100393879
REMARK  4 active torsions:
REMARK  status: ('A' for Active; 'I' for Inactive)
REMARK    1  A    between atoms: C_1  and  O_2
REMARK    2  A    between atoms: O_2  and  C_3
REMARK    3  A    between atoms: C_12  and  C_13
REMARK    4  A    between atoms: N_18  and  C_19
REMARK                            x       y       z     vdW  Elec       q    Type
REMARK                         _______ _______ _______ _____ _____    ______ ____
ROOT
ATOM      1  C   UNL     1      -4.781   3.656 -22.918  0.00  0.00    +0.162 A 
ATOM      2  C   UNL     1      -4.913   4.091 -24.097  0.00  0.00    +0.050 A 
ATOM      3  C   UNL     1      -3.942   4.098 -24.883  0.00  0.00    +0.008 A 
ATOM      4  C   UNL     1      -2.830   3.671 -24.500  0.00  0.00    -0.034 A 
ATOM      5  C   UNL     1      -2.675   3.234 -23.331  0.00  0.00    +0.020 A 
ATOM      6  C   UNL     1      -1.563   2.810 -22.954  0.00  0.00    +0.088 C 
ATOM      7  C   UNL     1      -0.348   2.302 -22.411  0.00  0.00    +0.075 C 
ATOM      8  C   UNL     1       0.766   2.297 -23.274  0.00  0.00    +0.133 C 
ATOM      9  N   UNL     1       0.580   2.790 -24.582  0.00  0.00    +0.239 N 
ATOM     10  H   UNL     1       1.354   2.808 -25.245  0.00  0.00    +0.204 HD
ATOM     11  C   UNL     1       1.516   2.820 -25.409  0.00  0.00    +0.191 C 
ATOM     12  C   UNL     1      -0.725   3.251 -24.916  0.00  0.00    +0.096 C 
ATOM     13  C   UNL     1      -0.589   2.816 -23.738  0.00  0.00    -0.007 C 
ATOM     14  C   UNL     1       0.534   2.386 -23.353  0.00  0.00    -0.014 C 
ATOM     15  C   UNL     1       0.674   1.954 -22.187  0.00  0.00    +0.035 C 
ATOM     16  C   UNL     1       1.787   1.530 -21.811  0.00  0.00    +0.016 C 
ATOM     17  C   UNL     1      -0.305   1.945 -21.390  0.00  0.00    +0.023 C 
ATOM     18  C   UNL     1      -1.417   2.370 -21.768  0.00  0.00    +0.117 C 
ATOM     19  O   UNL     1      -2.857   2.634 -21.413  0.00  0.00    -0.455 OA
ATOM     20  C   UNL     1      -1.836   3.676 -25.298  0.00  0.00    +0.094 C 
ATOM     21  C   UNL     1      -3.654   3.226 -22.535  0.00  0.00    +0.174 A 
ENDROOT
BRANCH   1  23
ATOM     22  C   UNL     1      -6.252   2.567 -21.762  0.00  0.00    +0.277 C 
ATOM     23  O   UNL     1      -5.754   3.651 -22.136  0.00  0.00    -0.491 OA
ENDBRANCH   1  23
TORSDOF 1
ENDMDL
