MODEL 1
REMARK VINA RESULT:    -6.605      0.000      0.000
REMARK INTER + INTRA:          -9.161
REMARK INTER:                  -9.061
REMARK INTRA:                  -0.100
REMARK UNBOUND:                -0.239
REMARK  Name = ZINC000001628282
REMARK  9 active torsions:
REMARK  status: ('A' for Active; 'I' for Inactive)
REMARK    1  A    between atoms: C_1  and  O_2
REMARK    2  A    between atoms: O_2  and  C_3
REMARK    3  A    between atoms: C_5  and  C_6
REMARK    4  A    between atoms: C_6  and  C_7
REMARK    5  A    between atoms: C_7  and  C_9
REMARK    6  A    between atoms: C_13  and  O_14
REMARK    7  A    between atoms: O_14  and  C_15
REMARK    8  A    between atoms: C_16  and  O_17
REMARK    9  A    between atoms: O_17  and  C_18
REMARK                            x       y       z     vdW  Elec       q    Type
REMARK                         _______ _______ _______ _____ _____    ______ ____
ROOT
ATOM      1  C   UNL     1      -0.151   2.856 -24.106  0.00  0.00    +0.165 A 
ATOM      2  C   UNL     1       0.838   2.430 -23.377  0.00  0.00    +0.053 A 
ATOM      3  C   UNL     1       0.612   1.950 -22.191  0.00  0.00    -0.033 A 
ATOM      4  C   UNL     1      -0.603   1.894 -21.733  0.00  0.00    +0.053 A 
ATOM      5  C   UNL     1      -1.592   2.319 -22.461  0.00  0.00    +0.165 A 
ATOM      6  C   UNL     1      -1.366   2.799 -23.647  0.00  0.00    +0.204 A 
ENDROOT
BRANCH   5   7
ATOM      7  O   UNL     1      -2.807   2.263 -22.003  0.00  0.00    -0.491 OA
ATOM      8  C   UNL     1      -3.138   2.954 -20.951  0.00  0.00    +0.277 C 
ENDBRANCH   5   7
BRANCH   6   9
ATOM      9  O   UNL     1      -2.356   3.225 -24.376  0.00  0.00    -0.488 OA
ATOM     10  C   UNL     1      -2.690   4.481 -24.348  0.00  0.00    +0.277 C 
ENDBRANCH   6   9
BRANCH   1  12
ATOM     11  C   UNL     1       1.129   4.065 -25.508  0.00  0.00    +0.277 C 
ATOM     12  O   UNL     1       0.075   3.336 -25.293  0.00  0.00    -0.491 OA
ENDBRANCH   1  12
BRANCH   3  13
ATOM     13  C   UNL     1       1.601   1.525 -21.463  0.00  0.00    +0.116 C 
BRANCH  13  14
ATOM     14  C   UNL     1       2.606   0.916 -22.021  0.00  0.00    +0.182 C 
ATOM     15  O   UNL     1       2.409  -0.180 -22.692  0.00  0.00    -0.290 OA
BRANCH  14  16
ATOM     16  C   UNL     1       3.806   1.402 -21.907  0.00  0.00    +0.107 C 
ATOM     17  O   UNL     1       4.783   0.888 -22.593  0.00  0.00    -0.542 OA
ATOM     18  O   UNL     1       4.028   2.403 -21.108  0.00  0.00    -0.542 OA
ENDBRANCH  14  16
ENDBRANCH  13  14
ENDBRANCH   3  13
TORSDOF 6
ENDMDL
