MODEL 1
REMARK VINA RESULT:   -10.939      0.000      0.000
REMARK INTER + INTRA:         -11.578
REMARK INTER:                 -11.578
REMARK INTRA:                   0.000
REMARK UNBOUND:                 0.000
REMARK  Name = ZINC000003978002
REMARK  3 active torsions:
REMARK  status: ('A' for Active; 'I' for Inactive)
REMARK    1  A    between atoms: C_1  and  C_2
REMARK    2  A    between atoms: C_9  and  O_10
REMARK    3  A    between atoms: C_19  and  O_20
REMARK                            x       y       z     vdW  Elec       q    Type
REMARK                         _______ _______ _______ _____ _____    ______ ____
ROOT
ATOM      1  C   UNL     1      -4.540   3.802 -23.890  0.00  0.00    +0.014 C 
ATOM      2  C   UNL     1      -3.688   3.264 -23.069  0.00  0.00    -0.003 C 
ATOM      3  C   UNL     1      -3.180   3.583 -24.223  0.00  0.00    +0.010 C 
ATOM      4  C   UNL     1      -1.924   3.356 -24.466  0.00  0.00    +0.009 C 
ATOM      5  C   UNL     1      -1.175   2.810 -23.556  0.00  0.00    +0.023 C 
ATOM      6  C   UNL     1       0.082   2.582 -23.798  0.00  0.00    -0.041 A 
ATOM      7  C   UNL     1       0.589   2.902 -24.951  0.00  0.00    +0.008 A 
ATOM      8  C   UNL     1       1.846   2.675 -25.195  0.00  0.00    +0.046 A 
ATOM      9  C   UNL     1       2.596   2.128 -24.284  0.00  0.00    +0.117 A 
ATOM     10  C   UNL     1       2.088   1.808 -23.131  0.00  0.00    +0.049 A 
ATOM     11  C   UNL     1       0.832   2.035 -22.888  0.00  0.00    -0.040 A 
ATOM     12  C   UNL     1       0.324   1.716 -21.734  0.00  0.00    +0.036 C 
ATOM     13  C   UNL     1      -0.933   1.943 -21.492  0.00  0.00    +0.009 C 
ATOM     14  C   UNL     1      -1.682   2.490 -22.401  0.00  0.00    +0.000 C 
ATOM     15  C   UNL     1      -4.888   3.382 -22.584  0.00  0.00    +0.121 C 
ATOM     16  C   UNL     1      -4.881   2.908 -21.373  0.00  0.00    +0.032 C 
ATOM     17  C   UNL     1      -3.675   2.497 -21.111  0.00  0.00    +0.007 C 
ATOM     18  C   UNL     1      -2.938   2.717 -22.159  0.00  0.00    +0.001 C 
ENDROOT
BRANCH   9  19
ATOM     19  O   UNL     1       3.852   1.901 -24.528  0.00  0.00    -0.507 OA
ATOM     20  H   UNL     1       4.206   2.083 -25.375  0.00  0.00    +0.292 HD
ENDBRANCH   9  19
BRANCH  15  21
ATOM     21  O   UNL     1      -5.916   3.885 -23.201  0.00  0.00    -0.391 OA
ATOM     22  H   UNL     1      -5.749   4.821 -23.398  0.00  0.00    +0.210 HD
ENDBRANCH  15  21
TORSDOF 2
ENDMDL
