MODEL 1
REMARK VINA RESULT:   -11.371      0.000      0.000
REMARK INTER + INTRA:         -12.035
REMARK INTER:                 -12.035
REMARK INTRA:                   0.000
REMARK UNBOUND:                 0.000
REMARK  Name = ZINC000017419101
REMARK  3 active torsions:
REMARK  status: ('A' for Active; 'I' for Inactive)
REMARK    1  A    between atoms: C_1  and  C_2
REMARK    2  A    between atoms: C_9  and  O_10
REMARK    3  A    between atoms: C_20  and  O_21
REMARK                            x       y       z     vdW  Elec       q    Type
REMARK                         _______ _______ _______ _____ _____    ______ ____
ROOT
ATOM      1  C   UNL     1      -4.525   3.821 -23.863  0.00  0.00    +0.014 C 
ATOM      2  C   UNL     1      -3.681   3.261 -23.048  0.00  0.00    -0.003 C 
ATOM      3  C   UNL     1      -3.168   3.591 -24.197  0.00  0.00    +0.010 C 
ATOM      4  C   UNL     1      -1.914   3.351 -24.441  0.00  0.00    +0.009 C 
ATOM      5  C   UNL     1      -1.172   2.782 -23.538  0.00  0.00    +0.023 C 
ATOM      6  C   UNL     1       0.082   2.543 -23.782  0.00  0.00    -0.040 A 
ATOM      7  C   UNL     1       0.594   2.872 -24.931  0.00  0.00    +0.008 A 
ATOM      8  C   UNL     1       1.848   2.633 -25.176  0.00  0.00    +0.047 A 
ATOM      9  C   UNL     1       2.589   2.064 -24.271  0.00  0.00    +0.131 A 
ATOM     10  C   UNL     1       2.077   1.735 -23.123  0.00  0.00    +0.063 A 
ATOM     11 BR   UNL     1       2.819   1.167 -22.219  0.00  0.00    -0.046 Br
ATOM     12  C   UNL     1       0.823   1.974 -22.878  0.00  0.00    -0.026 A 
ATOM     13  C   UNL     1       0.310   1.645 -21.730  0.00  0.00    +0.037 C 
ATOM     14  C   UNL     1      -0.944   1.885 -21.485  0.00  0.00    +0.009 C 
ATOM     15  C   UNL     1      -1.686   2.453 -22.389  0.00  0.00    +0.000 C 
ATOM     16  C   UNL     1      -4.880   3.388 -22.562  0.00  0.00    +0.121 C 
ATOM     17  C   UNL     1      -4.880   2.897 -21.358  0.00  0.00    +0.032 C 
ATOM     18  C   UNL     1      -3.680   2.468 -21.100  0.00  0.00    +0.007 C 
ATOM     19  C   UNL     1      -2.939   2.693 -22.144  0.00  0.00    +0.001 C 
ENDROOT
BRANCH   9  20
ATOM     20  O   UNL     1       3.844   1.824 -24.516  0.00  0.00    -0.506 OA
ATOM     21  H   UNL     1       4.105   1.512 -25.360  0.00  0.00    +0.292 HD
ENDBRANCH   9  20
BRANCH  16  22
ATOM     22  O   UNL     1      -5.900   3.912 -23.173  0.00  0.00    -0.391 OA
ATOM     23  H   UNL     1      -6.356   3.229 -23.690  0.00  0.00    +0.210 HD
ENDBRANCH  16  22
TORSDOF 2
ENDMDL
