MODEL 1
REMARK VINA RESULT:    -6.126      0.000      0.000
REMARK INTER + INTRA:          -7.370
REMARK INTER:                  -6.915
REMARK INTRA:                  -0.455
REMARK UNBOUND:                -0.348
REMARK  Name = ZINC000000162391
REMARK  4 active torsions:
REMARK  status: ('A' for Active; 'I' for Inactive)
REMARK    1  A    between atoms: C_1  and  O_2
REMARK    2  A    between atoms: O_2  and  C_3
REMARK    3  A    between atoms: C_6  and  C_7
REMARK    4  A    between atoms: C_10  and  O_11
REMARK                            x       y       z     vdW  Elec       q    Type
REMARK                         _______ _______ _______ _____ _____    ______ ____
ROOT
ATOM      1  C   UNL     1      -3.877   3.385 -21.902  0.00  0.00    +0.124 A 
ATOM      2  C   UNL     1      -3.022   3.339 -20.924  0.00  0.00    +0.046 A 
ATOM      3  C   UNL     1      -1.808   2.929 -21.141  0.00  0.00    +0.017 A 
ATOM      4  C   UNL     1      -1.449   2.565 -22.336  0.00  0.00    +0.039 A 
ATOM      5  C   UNL     1      -2.304   2.611 -23.314  0.00  0.00    +0.129 A 
ATOM      6  C   UNL     1      -3.518   3.021 -23.097  0.00  0.00    +0.091 A 
ENDROOT
BRANCH   4   7
ATOM      7  C   UNL     1      -0.234   2.154 -22.553  0.00  0.00    +0.075 C 
ATOM      8  O   UNL     1       0.063   0.897 -22.407  0.00  0.00    -0.545 OA
ATOM      9  O   UNL     1       0.683   3.001 -22.916  0.00  0.00    -0.545 OA
ENDBRANCH   4   7
BRANCH   1  11
ATOM     10  C   UNL     1      -6.101   3.073 -22.069  0.00  0.00    +0.277 C 
ATOM     11  O   UNL     1      -5.092   3.796 -21.685  0.00  0.00    -0.495 OA
ENDBRANCH   1  11
BRANCH   5  12
ATOM     12  O   UNL     1      -1.944   2.246 -24.509  0.00  0.00    -0.506 OA
ATOM     13  H   UNL     1      -1.744   2.893 -25.156  0.00  0.00    +0.292 HD
ENDBRANCH   5  12
TORSDOF 3
ENDMDL
