MODEL 1
REMARK VINA RESULT:    -7.016      0.000      0.000
REMARK INTER + INTRA:          -7.016
REMARK INTER:                  -7.016
REMARK INTRA:                   0.000
REMARK UNBOUND:                 0.000
REMARK  Name = ZINC000000074709
REMARK  0 active torsions:
REMARK  status: ('A' for Active; 'I' for Inactive)
REMARK                            x       y       z     vdW  Elec       q    Type
REMARK                         _______ _______ _______ _____ _____    ______ ____
ROOT
ATOM      1  O   UNL     1       0.250   2.235 -23.792  0.00  0.00    -0.245 OA
ATOM      2  C   UNL     1      -0.903   2.388 -23.212  0.00  0.00    +0.337 A 
ATOM      3  C   UNL     1      -1.065   2.014 -21.978  0.00  0.00    +0.092 A 
ATOM      4  C   UNL     1      -2.217   2.167 -21.398  0.00  0.00    +0.018 A 
ATOM      5  C   UNL     1      -3.210   2.695 -22.052  0.00  0.00    +0.018 A 
ATOM      6  C   UNL     1      -4.363   2.848 -21.472  0.00  0.00    +0.011 A 
ATOM      7  C   UNL     1      -5.354   3.376 -22.127  0.00  0.00    +0.001 A 
ATOM      8  C   UNL     1      -5.193   3.750 -23.361  0.00  0.00    +0.004 A 
ATOM      9  C   UNL     1      -4.040   3.597 -23.941  0.00  0.00    +0.047 A 
ATOM     10  C   UNL     1      -3.048   3.069 -23.287  0.00  0.00    +0.139 A 
ATOM     11  O   UNL     1      -1.895   2.916 -23.867  0.00  0.00    -0.422 OA
ENDROOT
TORSDOF 0
ENDMDL
