MODEL 1
REMARK VINA RESULT:   -12.046      0.000      0.000
REMARK INTER + INTRA:         -14.648
REMARK INTER:                 -13.997
REMARK INTRA:                  -0.651
REMARK UNBOUND:                 0.215
REMARK  Name = COc1ccc2c(c1Oc1nnnn1-c1ccccc1)[C@@]13C=CC=C[C@@H]1[C@H](C2)N(C)CC3   ZINC000100393801
REMARK  6 active torsions:
REMARK  status: ('A' for Active; 'I' for Inactive)
REMARK    1  A    between atoms: C_1  and  O_2
REMARK    2  A    between atoms: O_2  and  C_3
REMARK    3  A    between atoms: C_8  and  O_9
REMARK    4  A    between atoms: O_9  and  C_10
REMARK    5  A    between atoms: N_14  and  C_15
REMARK    6  A    between atoms: N_29  and  C_30
REMARK                            x       y       z     vdW  Elec       q    Type
REMARK                         _______ _______ _______ _____ _____    ______ ____
ROOT
ATOM      1  C   UNL     1      -1.506   3.324 -25.416  0.00  0.00    +0.163 A 
ATOM      2  C   UNL     1      -2.486   3.455 -26.202  0.00  0.00    +0.050 A 
ATOM      3  C   UNL     1      -3.645   3.573 -25.715  0.00  0.00    +0.008 A 
ATOM      4  C   UNL     1      -3.812   3.554 -24.262  0.00  0.00    -0.034 A 
ATOM      5  C   UNL     1      -2.941   3.441 -23.666  0.00  0.00    +0.013 A 
ATOM      6  C   UNL     1      -2.822   3.403 -22.729  0.00  0.00    +0.034 C 
ATOM      7  C   UNL     1      -1.788   3.269 -22.020  0.00  0.00    -0.014 C 
ATOM      8  C   UNL     1      -1.889   3.247 -20.729  0.00  0.00    -0.004 C 
ATOM      9  C   UNL     1      -3.060   3.363 -20.143  0.00  0.00    -0.004 C 
ATOM     10  C   UNL     1      -4.149   3.504 -20.834  0.00  0.00    -0.017 C 
ATOM     11  C   UNL     1      -2.827   3.447 -24.405  0.00  0.00    +0.067 C 
ATOM     12  C   UNL     1      -4.102   3.609 -25.117  0.00  0.00    +0.132 C 
ATOM     13  N   UNL     1      -5.094   3.704 -24.505  0.00  0.00    +0.236 N 
ATOM     14  H   UNL     1      -5.742   3.757 -23.717  0.00  0.00    +0.203 HD
ATOM     15  C   UNL     1      -5.797   3.812 -25.614  0.00  0.00    +0.190 C 
ATOM     16  C   UNL     1      -5.116   3.666 -22.920  0.00  0.00    +0.076 C 
ATOM     17  C   UNL     1      -4.090   3.529 -22.091  0.00  0.00    +0.075 C 
ATOM     18  C   UNL     1      -4.973   3.672 -23.773  0.00  0.00    +0.090 C 
ATOM     19  C   UNL     1      -1.720   3.316 -24.147  0.00  0.00    +0.178 A 
ENDROOT
BRANCH   1  21
ATOM     20  C   UNL     1       0.647   4.110 -25.897  0.00  0.00    +0.277 C 
ATOM     21  O   UNL     1      -0.192   3.185 -25.731  0.00  0.00    -0.491 OA
ENDBRANCH   1  21
BRANCH  19  22
ATOM     22  O   UNL     1      -0.727   3.173 -22.942  0.00  0.00    -0.418 OA
BRANCH  22  23
ATOM     23  C   UNL     1       0.244   2.237 -22.589  0.00  0.00    +0.347 A 
ATOM     24  N   UNL     1      -0.042   1.023 -22.289  0.00  0.00    -0.070 NA
ATOM     25  N   UNL     1       1.047   0.414 -22.013  0.00  0.00    -0.019 NA
ATOM     26  N   UNL     1       2.013   1.247 -22.140  0.00  0.00    -0.036 NA
ATOM     27  N   UNL     1       1.517   2.374 -22.497  0.00  0.00    -0.162 N 
BRANCH  27  28
ATOM     28  C   UNL     1       2.221   3.435 -22.712  0.00  0.00    +0.072 A 
ATOM     29  C   UNL     1       1.665   4.588 -22.800  0.00  0.00    +0.028 A 
ATOM     30  C   UNL     1       2.381   5.629 -23.014  0.00  0.00    +0.002 A 
ATOM     31  C   UNL     1       3.653   5.519 -23.142  0.00  0.00    +0.000 A 
ATOM     32  C   UNL     1       4.208   4.366 -23.054  0.00  0.00    +0.002 A 
ATOM     33  C   UNL     1       3.492   3.325 -22.839  0.00  0.00    +0.028 A 
ENDBRANCH  27  28
ENDBRANCH  22  23
ENDBRANCH  19  22
TORSDOF 4
ENDMDL
