MODEL 1
REMARK VINA RESULT:   -11.367      0.000      0.000
REMARK INTER + INTRA:         -12.144
REMARK INTER:                 -12.024
REMARK INTRA:                  -0.120
REMARK UNBOUND:                -0.112
REMARK  Name = ZINC000096316378
REMARK  4 active torsions:
REMARK  status: ('A' for Active; 'I' for Inactive)
REMARK    1  A    between atoms: C_1  and  O_2
REMARK    2  A    between atoms: O_2  and  C_3
REMARK    3  A    between atoms: C_10  and  C_11
REMARK    4  A    between atoms: N_19  and  C_20
REMARK                            x       y       z     vdW  Elec       q    Type
REMARK                         _______ _______ _______ _____ _____    ______ ____
ROOT
ATOM      1  C   UNL     1       1.264   1.942 -22.717  0.00  0.00    +0.162 A 
ATOM      2  C   UNL     1       1.101   1.530 -21.531  0.00  0.00    +0.050 A 
ATOM      3  C   UNL     1      -0.027   1.582 -20.991  0.00  0.00    +0.008 A 
ATOM      4  C   UNL     1      -1.005   2.043 -21.627  0.00  0.00    -0.034 A 
ATOM      5  C   UNL     1      -0.862   2.457 -22.809  0.00  0.00    +0.016 A 
ATOM      6  C   UNL     1      -1.838   2.917 -23.442  0.00  0.00    +0.074 C 
ATOM      7  C   UNL     1      -2.873   3.458 -24.257  0.00  0.00    +0.071 C 
ATOM      8  C   UNL     1      -4.157   3.529 -23.675  0.00  0.00    +0.133 C 
ATOM      9  N   UNL     1      -4.300   3.061 -22.351  0.00  0.00    +0.239 N 
ATOM     10  H   UNL     1      -5.207   3.091 -21.887  0.00  0.00    +0.204 HD
ATOM     11  C   UNL     1      -5.402   3.088 -21.761  0.00  0.00    +0.191 C 
ATOM     12  C   UNL     1      -3.127   2.557 -21.717  0.00  0.00    +0.096 C 
ATOM     13  C   UNL     1      -2.967   2.969 -22.904  0.00  0.00    -0.006 C 
ATOM     14  C   UNL     1      -3.953   3.433 -23.544  0.00  0.00    +0.025 C 
ATOM     15  C   UNL     1      -3.802   3.843 -24.718  0.00  0.00    +0.041 C 
ATOM     16 CL   UNL     1      -4.779   4.302 -25.348  0.00  0.00    -0.084 Cl
ATOM     17  C   UNL     1      -2.664   3.793 -25.268  0.00  0.00    +0.041 C 
ATOM     18  C   UNL     1      -1.687   3.333 -24.635  0.00  0.00    +0.141 C 
ATOM     19  C   UNL     1      -1.258   3.663 -25.765  0.00  0.00    +0.061 C 
ATOM     20  O   UNL     1      -0.215   3.004 -24.646  0.00  0.00    -0.477 OA
ATOM     21  C   UNL     1      -2.154   2.096 -21.081  0.00  0.00    +0.094 C 
ATOM     22  C   UNL     1       0.275   2.407 -23.357  0.00  0.00    +0.168 A 
ENDROOT
BRANCH   1  24
ATOM     23  C   UNL     1       3.038   0.816 -23.254  0.00  0.00    +0.277 C 
ATOM     24  O   UNL     1       2.393   1.889 -23.253  0.00  0.00    -0.491 OA
ENDBRANCH   1  24
TORSDOF 1
ENDMDL
