MODEL 1
REMARK VINA RESULT:   -11.372      0.000      0.000
REMARK INTER + INTRA:         -12.639
REMARK INTER:                 -12.704
REMARK INTRA:                   0.065
REMARK UNBOUND:                 0.063
REMARK  Name = ZINC000004104664
REMARK  5 active torsions:
REMARK  status: ('A' for Active; 'I' for Inactive)
REMARK    1  A    between atoms: C_1  and  C_2
REMARK    2  A    between atoms: C_2  and  C_3
REMARK    3  A    between atoms: C_3  and  O_4
REMARK    4  A    between atoms: C_18  and  C_19
REMARK    5  A    between atoms: C_23  and  C_24
REMARK                            x       y       z     vdW  Elec       q    Type
REMARK                         _______ _______ _______ _____ _____    ______ ____
ROOT
ATOM      1  C   UNL     1       2.502   2.148 -23.519  0.00  0.00    +0.071 C 
ATOM      2  C   UNL     1       2.541   2.709 -24.703  0.00  0.00    +0.035 C 
ATOM      3  C   UNL     1       1.329   3.120 -24.994  0.00  0.00    +0.007 C 
ATOM      4  C   UNL     1       0.542   2.814 -23.994  0.00  0.00    +0.002 C 
ATOM      5  C   UNL     1      -0.737   3.005 -23.797  0.00  0.00    +0.004 C 
ATOM      6  C   UNL     1      -1.458   3.608 -24.715  0.00  0.00    +0.083 C 
ATOM      7  C   UNL     1      -2.740   3.800 -24.519  0.00  0.00    +0.160 C 
ATOM      8  C   UNL     1      -3.302   3.391 -23.409  0.00  0.00    +0.004 C 
ATOM      9  C   UNL     1      -4.585   3.583 -23.213  0.00  0.00    +0.053 C 
ATOM     10  C   UNL     1      -5.148   3.173 -22.103  0.00  0.00    +0.157 C 
ATOM     11  C   UNL     1      -4.429   2.570 -21.184  0.00  0.00    +0.080 C 
ATOM     12  C   UNL     1      -3.146   2.379 -21.382  0.00  0.00    +0.019 C 
ATOM     13  O   UNL     1      -6.432   3.366 -21.907  0.00  0.00    -0.293 OA
ATOM     14  C   UNL     1      -2.583   2.788 -22.491  0.00  0.00    -0.000 C 
ATOM     15  C   UNL     1      -1.864   2.186 -21.575  0.00  0.00    +0.016 C 
ATOM     16  O   UNL     1      -3.459   4.402 -25.436  0.00  0.00    -0.292 OA
ATOM     17  C   UNL     1      -1.301   2.595 -22.686  0.00  0.00    +0.003 C 
ATOM     18  C   UNL     1      -0.580   1.992 -21.769  0.00  0.00    +0.005 C 
ATOM     19  C   UNL     1       0.702   1.801 -21.966  0.00  0.00    +0.010 C 
ATOM     20  C   UNL     1       1.264   2.211 -23.076  0.00  0.00    -0.000 C 
ATOM     21  C   UNL     1       2.009   1.622 -22.201  0.00  0.00    +0.014 C 
ENDROOT
BRANCH   1  23
ATOM     22  C   UNL     1       4.629   2.960 -23.640  0.00  0.00    +0.007 C 
ATOM     23  C   UNL     1       3.786   1.975 -23.758  0.00  0.00    +0.032 C 
ENDBRANCH   1  23
BRANCH   1  24
ATOM     24  O   UNL     1       2.798   1.670 -22.667  0.00  0.00    -0.388 OA
ATOM     25  H   UNL     1       2.259   1.976 -21.920  0.00  0.00    +0.210 HD
ENDBRANCH   1  24
TORSDOF 2
ENDMDL
