MODEL 1
REMARK VINA RESULT:   -10.981      0.000      0.000
REMARK INTER + INTRA:         -12.024
REMARK INTER:                 -12.248
REMARK INTRA:                   0.224
REMARK UNBOUND:                 0.240
REMARK  Name = ZINC000019701796
REMARK  4 active torsions:
REMARK  status: ('A' for Active; 'I' for Inactive)
REMARK    1  A    between atoms: C_1  and  O_2
REMARK    2  A    between atoms: O_2  and  C_3
REMARK    3  A    between atoms: C_8  and  O_9
REMARK    4  A    between atoms: O_9  and  C_10
REMARK                            x       y       z     vdW  Elec       q    Type
REMARK                         _______ _______ _______ _____ _____    ______ ____
ROOT
ATOM      1  C   UNL     1      -4.288   3.314 -22.508  0.00  0.00    +0.162 A 
ATOM      2  C   UNL     1      -3.932   2.704 -21.417  0.00  0.00    +0.050 A 
ATOM      3  C   UNL     1      -2.704   2.305 -21.265  0.00  0.00    +0.008 A 
ATOM      4  C   UNL     1      -1.831   2.516 -22.206  0.00  0.00    -0.030 A 
ATOM      5  C   UNL     1      -2.187   3.126 -23.297  0.00  0.00    +0.046 A 
ATOM      6  C   UNL     1      -1.314   3.336 -24.237  0.00  0.00    +0.172 C 
ATOM      7  N   UNL     1      -0.086   2.937 -24.086  0.00  0.00    +0.244 N 
ATOM      8  H   UNL     1      -0.293   3.408 -24.967  0.00  0.00    +0.204 HD
ATOM      9  C   UNL     1       0.787   3.148 -25.026  0.00  0.00    +0.137 C 
ATOM     10  C   UNL     1       2.014   2.749 -24.875  0.00  0.00    +0.086 C 
ATOM     11  C   UNL     1       2.370   2.139 -23.783  0.00  0.00    -0.030 A 
ATOM     12  C   UNL     1       3.598   1.740 -23.631  0.00  0.00    +0.053 A 
ATOM     13  C   UNL     1       3.952   1.130 -22.539  0.00  0.00    +0.167 A 
ATOM     14  C   UNL     1       3.080   0.920 -21.599  0.00  0.00    +0.167 A 
ATOM     15  O   UNL     1       3.680   0.301 -20.626  0.00  0.00    -0.453 OA
ATOM     16  C   UNL     1       4.923   0.129 -20.964  0.00  0.00    +0.466 C 
ATOM     17  C   UNL     1       1.852   1.319 -21.751  0.00  0.00    +0.059 A 
ATOM     18  O   UNL     1       5.091   0.642 -22.147  0.00  0.00    -0.453 OA
ATOM     19  C   UNL     1       1.497   1.929 -22.843  0.00  0.00    +0.008 A 
ATOM     20  C   UNL     1       0.269   2.327 -22.994  0.00  0.00    +0.100 C 
ATOM     21  C   UNL     1      -0.603   2.117 -22.054  0.00  0.00    +0.095 C 
ATOM     22  C   UNL     1      -3.415   3.525 -23.449  0.00  0.00    +0.170 A 
ENDROOT
BRANCH   1  24
ATOM     23  C   UNL     1      -6.489   3.038 -22.125  0.00  0.00    +0.277 C 
ATOM     24  O   UNL     1      -5.515   3.713 -22.660  0.00  0.00    -0.491 OA
ENDBRANCH   1  24
BRANCH  22  25
ATOM     25  O   UNL     1      -3.770   4.135 -24.541  0.00  0.00    -0.491 OA
ATOM     26  C   UNL     1      -4.326   3.466 -25.507  0.00  0.00    +0.277 C 
ENDBRANCH  22  25
TORSDOF 2
ENDMDL
