MODEL 1
REMARK VINA RESULT:   -11.800      0.000      0.000
REMARK INTER + INTRA:         -12.145
REMARK INTER:                 -12.145
REMARK INTRA:                   0.000
REMARK UNBOUND:                 0.000
REMARK  Name = ZINC000006623656
REMARK  3 active torsions:
REMARK  status: ('A' for Active; 'I' for Inactive)
REMARK    1  A    between atoms: C_1  and  C_2
REMARK    2  A    between atoms: C_15  and  C_16
REMARK    3  A    between atoms: C_20  and  O_21
REMARK                            x       y       z     vdW  Elec       q    Type
REMARK                         _______ _______ _______ _____ _____    ______ ____
ROOT
ATOM      1  C   UNL     1      -4.903   3.093 -21.929  0.00  0.00    +0.014 C 
ATOM      2  C   UNL     1      -3.981   3.284 -22.825  0.00  0.00    -0.003 C 
ATOM      3  C   UNL     1      -3.553   2.711 -21.739  0.00  0.00    +0.010 C 
ATOM      4  C   UNL     1      -2.300   2.384 -21.626  0.00  0.00    +0.005 C 
ATOM      5  C   UNL     1      -1.474   2.630 -22.600  0.00  0.00    -0.001 C 
ATOM      6  C   UNL     1      -1.902   3.203 -23.686  0.00  0.00    -0.004 C 
ATOM      7  C   UNL     1      -1.077   3.449 -24.660  0.00  0.00    +0.004 C 
ATOM      8  C   UNL     1       0.177   3.122 -24.548  0.00  0.00    +0.005 C 
ATOM      9  C   UNL     1       0.604   2.549 -23.462  0.00  0.00    +0.002 C 
ATOM     10  C   UNL     1       1.857   2.222 -23.350  0.00  0.00    +0.078 C 
ATOM     11  C   UNL     1       2.285   1.650 -22.264  0.00  0.00    +0.134 C 
ATOM     12  C   UNL     1       1.460   1.404 -21.290  0.00  0.00    +0.075 C 
ATOM     13  C   UNL     1       0.207   1.730 -21.402  0.00  0.00    +0.015 C 
ATOM     14  O   UNL     1       3.539   1.323 -22.152  0.00  0.00    -0.297 OA
ATOM     15  C   UNL     1      -0.222   2.303 -22.488  0.00  0.00    -0.025 C 
ATOM     16  C   UNL     1      -1.047   2.057 -21.515  0.00  0.00    +0.012 C 
ATOM     17  C   UNL     1      -5.159   3.702 -23.182  0.00  0.00    +0.121 C 
ATOM     18  C   UNL     1      -5.062   4.206 -24.376  0.00  0.00    +0.032 C 
ATOM     19  C   UNL     1      -3.824   4.100 -24.757  0.00  0.00    +0.007 C 
ATOM     20  C   UNL     1      -3.156   3.530 -23.798  0.00  0.00    +0.001 C 
ENDROOT
BRANCH  17  21
ATOM     21  O   UNL     1      -6.245   3.629 -22.470  0.00  0.00    -0.391 OA
ATOM     22  H   UNL     1      -6.407   4.482 -22.040  0.00  0.00    +0.210 HD
ENDBRANCH  17  21
TORSDOF 1
ENDMDL
