MODEL 1
REMARK VINA RESULT:   -12.583      0.000      0.000
REMARK INTER + INTRA:         -12.165
REMARK INTER:                 -12.299
REMARK INTRA:                   0.135
REMARK UNBOUND:                 3.361
REMARK  Name = ZINC000019535049
REMARK  8 active torsions:
REMARK  status: ('A' for Active; 'I' for Inactive)
REMARK    1  A    between atoms: C_1  and  O_2
REMARK    2  A    between atoms: O_2  and  C_3
REMARK    3  A    between atoms: C_8  and  O_9
REMARK    4  A    between atoms: O_9  and  C_10
REMARK    5  A    between atoms: C_16  and  O_17
REMARK    6  A    between atoms: O_17  and  C_18
REMARK    7  A    between atoms: C_19  and  O_20
REMARK    8  A    between atoms: O_20  and  C_21
REMARK                            x       y       z     vdW  Elec       q    Type
REMARK                         _______ _______ _______ _____ _____    ______ ____
ROOT
ATOM      1  C   UNL     1       3.903   2.536 -23.024  0.00  0.00    +0.162 A 
ATOM      2  C   UNL     1       3.367   3.075 -24.078  0.00  0.00    +0.053 A 
ATOM      3  C   UNL     1       2.081   3.258 -24.134  0.00  0.00    -0.030 A 
ATOM      4  C   UNL     1       1.331   2.901 -23.134  0.00  0.00    +0.008 A 
ATOM      5  C   UNL     1       0.044   3.083 -23.189  0.00  0.00    +0.100 C 
ATOM      6  C   UNL     1      -0.706   2.726 -22.189  0.00  0.00    +0.095 C 
ATOM      7  C   UNL     1      -1.992   2.909 -22.245  0.00  0.00    -0.030 A 
ATOM      8  C   UNL     1      -2.742   2.552 -21.245  0.00  0.00    +0.008 A 
ATOM      9  C   UNL     1      -4.028   2.734 -21.300  0.00  0.00    +0.050 A 
ATOM     10  C   UNL     1      -4.564   3.274 -22.355  0.00  0.00    +0.162 A 
ATOM     11  C   UNL     1      -3.813   3.631 -23.354  0.00  0.00    +0.170 A 
ATOM     12  C   UNL     1      -2.528   3.448 -23.299  0.00  0.00    +0.046 A 
ATOM     13  C   UNL     1      -1.776   3.805 -24.299  0.00  0.00    +0.172 C 
ATOM     14  N   UNL     1      -0.491   3.623 -24.244  0.00  0.00    +0.244 N 
ATOM     15  H   UNL     1      -1.020   3.320 -23.426  0.00  0.00    +0.204 HD
ATOM     16  C   UNL     1       0.259   3.980 -25.244  0.00  0.00    +0.137 C 
ATOM     17  C   UNL     1       1.866   2.361 -22.079  0.00  0.00    +0.058 A 
ATOM     18  C   UNL     1       1.546   3.797 -25.188  0.00  0.00    +0.086 C 
ATOM     19  C   UNL     1       3.152   2.179 -22.024  0.00  0.00    +0.162 A 
ENDROOT
BRANCH   1  21
ATOM     20  C   UNL     1       5.996   3.308 -23.322  0.00  0.00    +0.277 C 
ATOM     21  O   UNL     1       5.188   2.353 -22.969  0.00  0.00    -0.491 OA
ENDBRANCH   1  21
BRANCH  11  22
ATOM     22  O   UNL     1      -4.348   4.170 -24.409  0.00  0.00    -0.491 OA
ATOM     23  C   UNL     1      -4.787   3.417 -25.373  0.00  0.00    +0.277 C 
ENDBRANCH  11  22
BRANCH  10  24
ATOM     24  O   UNL     1      -5.850   3.456 -22.410  0.00  0.00    -0.491 OA
ATOM     25  C   UNL     1      -6.646   2.672 -21.746  0.00  0.00    +0.277 C 
ENDBRANCH  10  24
BRANCH  19  26
ATOM     26  O   UNL     1       3.688   1.639 -20.969  0.00  0.00    -0.491 OA
ATOM     27  C   UNL     1       3.768   0.346 -20.871  0.00  0.00    +0.277 C 
ENDBRANCH  19  26
TORSDOF 4
ENDMDL
