MODEL 1
REMARK VINA RESULT:   -11.098      0.000      0.000
REMARK INTER + INTRA:         -11.871
REMARK INTER:                 -11.727
REMARK INTRA:                  -0.143
REMARK UNBOUND:                -0.123
REMARK  Name = COc1ccc2c3c1O[C@H]1C=CC=C4[C@H](C2)NCC[C@]431                        ZINC000100393368
REMARK  2 active torsions:
REMARK  status: ('A' for Active; 'I' for Inactive)
REMARK    1  A    between atoms: C_1  and  O_2
REMARK    2  A    between atoms: O_2  and  C_3
REMARK                            x       y       z     vdW  Elec       q    Type
REMARK                         _______ _______ _______ _____ _____    ______ ____
ROOT
ATOM      1  C   UNL     1      -0.056   2.771 -23.921  0.00  0.00    +0.162 A 
ATOM      2  C   UNL     1      -0.157   3.303 -25.058  0.00  0.00    +0.050 A 
ATOM      3  C   UNL     1      -1.254   3.744 -25.450  0.00  0.00    +0.008 A 
ATOM      4  C   UNL     1      -2.257   3.659 -24.718  0.00  0.00    -0.034 A 
ATOM      5  C   UNL     1      -2.178   3.134 -23.584  0.00  0.00    +0.016 A 
ATOM      6  C   UNL     1      -3.181   3.049 -22.851  0.00  0.00    +0.071 C 
ATOM      7  C   UNL     1      -4.252   2.899 -21.935  0.00  0.00    +0.071 C 
ATOM      8  C   UNL     1      -5.501   3.387 -22.350  0.00  0.00    +0.131 C 
ATOM      9  N   UNL     1      -5.575   3.973 -23.624  0.00  0.00    +0.233 N 
ATOM     10  H   UNL     1      -5.820   4.949 -23.452  0.00  0.00    +0.202 HD
ATOM     11  H   UNL     1      -6.261   3.447 -24.166  0.00  0.00    +0.202 HD
ATOM     12  C   UNL     1      -4.378   4.022 -24.380  0.00  0.00    +0.095 C 
ATOM     13  C   UNL     1      -4.278   3.490 -23.244  0.00  0.00    -0.007 C 
ATOM     14  C   UNL     1      -5.293   3.404 -22.502  0.00  0.00    +0.006 C 
ATOM     15  C   UNL     1      -5.201   2.880 -21.377  0.00  0.00    -0.000 C 
ATOM     16  C   UNL     1      -4.096   2.432 -20.973  0.00  0.00    +0.018 C 
ATOM     17  C   UNL     1      -3.092   2.516 -21.706  0.00  0.00    +0.212 C 
ATOM     18  O   UNL     1      -1.624   2.234 -21.871  0.00  0.00    -0.480 OA
ATOM     19  C   UNL     1      -3.375   4.106 -25.113  0.00  0.00    +0.094 C 
ATOM     20  C   UNL     1      -1.072   2.686 -23.180  0.00  0.00    +0.167 A 
ENDROOT
BRANCH   1  22
ATOM     21  C   UNL     1       1.839   3.072 -22.913  0.00  0.00    +0.277 C 
ATOM     22  O   UNL     1       1.052   2.327 -23.528  0.00  0.00    -0.491 OA
ENDBRANCH   1  22
TORSDOF 1
ENDMDL
