MODEL 1
REMARK VINA RESULT:    -8.907      0.000      0.000
REMARK INTER + INTRA:          -6.874
REMARK INTER:                 -11.676
REMARK INTRA:                   4.802
REMARK UNBOUND:                 4.635
REMARK  Name = CCCC[C@@]12Oc3c(OC)ccc4c3[C@@]13CCN(C)[C@@H](C4)C3=CC=C2OC           ZINC000253505415
REMARK  9 active torsions:
REMARK  status: ('A' for Active; 'I' for Inactive)
REMARK    1  A    between atoms: C_1  and  C_2
REMARK    2  A    between atoms: C_2  and  C_3
REMARK    3  A    between atoms: C_3  and  C_4
REMARK    4  A    between atoms: C_4  and  C_5
REMARK    5  A    between atoms: C_8  and  O_9
REMARK    6  A    between atoms: O_9  and  C_10
REMARK    7  A    between atoms: N_18  and  C_19
REMARK    8  A    between atoms: C_25  and  O_26
REMARK    9  A    between atoms: O_26  and  C_27
REMARK                            x       y       z     vdW  Elec       q    Type
REMARK                         _______ _______ _______ _____ _____    ______ ____
ROOT
ATOM      1  C   UNL     1      -1.536   3.213 -23.827  0.00  0.00    +0.181 C 
ATOM      2  O   UNL     1      -1.861   3.082 -22.354  0.00  0.00    -0.473 OA
ATOM      3  C   UNL     1      -3.336   3.157 -22.055  0.00  0.00    +0.168 A 
ATOM      4  C   UNL     1      -4.240   3.129 -21.162  0.00  0.00    +0.162 A 
ATOM      5  C   UNL     1      -5.458   3.251 -21.499  0.00  0.00    +0.050 A 
ATOM      6  C   UNL     1      -5.773   3.399 -22.706  0.00  0.00    +0.008 A 
ATOM      7  C   UNL     1      -4.875   3.427 -23.589  0.00  0.00    -0.034 A 
ATOM      8  C   UNL     1      -5.192   3.578 -24.817  0.00  0.00    +0.094 C 
ATOM      9  C   UNL     1      -4.296   3.605 -25.697  0.00  0.00    +0.096 C 
ATOM     10  C   UNL     1      -3.078   3.483 -25.361  0.00  0.00    -0.007 C 
ATOM     11  C   UNL     1      -2.175   3.511 -26.252  0.00  0.00    +0.009 C 
ATOM     12  C   UNL     1      -0.966   3.391 -25.928  0.00  0.00    +0.045 C 
ATOM     13  N   UNL     1      -3.357   3.650 -26.775  0.00  0.00    +0.239 N 
ATOM     14  H   UNL     1      -3.644   3.772 -27.747  0.00  0.00    +0.204 HD
ATOM     15  C   UNL     1      -3.730   3.800 -27.964  0.00  0.00    +0.191 C 
ATOM     16  C   UNL     1      -1.990   3.517 -26.436  0.00  0.00    +0.133 C 
ATOM     17  C   UNL     1      -1.665   3.351 -25.068  0.00  0.00    +0.071 C 
ATOM     18  C   UNL     1      -3.657   3.307 -23.272  0.00  0.00    +0.016 A 
ATOM     19  C   UNL     1      -0.643   3.241 -24.710  0.00  0.00    +0.142 C 
ATOM     20  C   UNL     1      -2.766   3.335 -24.155  0.00  0.00    +0.077 C 
ENDROOT
BRANCH   4  21
ATOM     21  O   UNL     1      -3.930   2.981 -19.954  0.00  0.00    -0.491 OA
ATOM     22  C   UNL     1      -3.077   3.735 -19.426  0.00  0.00    +0.277 C 
ENDBRANCH   4  21
BRANCH  19  23
ATOM     23  O   UNL     1       0.566   3.121 -24.390  0.00  0.00    -0.495 OA
ATOM     24  C   UNL     1       1.439   2.972 -25.279  0.00  0.00    +0.276 C 
ENDBRANCH  19  23
BRANCH   1  25
ATOM     25  C   UNL     1      -0.408   3.070 -23.233  0.00  0.00    +0.057 C 
BRANCH  25  26
ATOM     26  C   UNL     1      -0.313   2.598 -22.052  0.00  0.00    +0.004 C 
BRANCH  26  28
ATOM     27  C   UNL     1       1.492   1.482 -21.550  0.00  0.00    +0.004 C 
ATOM     28  C   UNL     1       0.259   1.503 -21.828  0.00  0.00    -0.003 C 
ENDBRANCH  26  28
ENDBRANCH  25  26
ENDBRANCH   1  25
TORSDOF 5
ENDMDL
