MODEL 1
REMARK VINA RESULT:   -10.969      0.000      0.000
REMARK INTER + INTRA:         -12.066
REMARK INTER:                 -11.953
REMARK INTRA:                  -0.113
REMARK UNBOUND:                -0.135
REMARK  Name = COc1ccc2c3c1O[C@@]1(C)[C@@H](O)[C@H](Cl)C=C4[C@@H](C2)N(C)CC[C@@]431 ZINC000100393471
REMARK  5 active torsions:
REMARK  status: ('A' for Active; 'I' for Inactive)
REMARK    1  A    between atoms: C_1  and  O_2
REMARK    2  A    between atoms: O_2  and  C_3
REMARK    3  A    between atoms: C_10  and  C_11
REMARK    4  A    between atoms: C_12  and  O_13
REMARK    5  A    between atoms: N_20  and  C_21
REMARK                            x       y       z     vdW  Elec       q    Type
REMARK                         _______ _______ _______ _____ _____    ______ ____
ROOT
ATOM      1  C   UNL     1       1.613   2.248 -23.784  0.00  0.00    +0.162 A 
ATOM      2  C   UNL     1       1.903   1.777 -22.644  0.00  0.00    +0.050 A 
ATOM      3  C   UNL     1       1.021   1.659 -21.762  0.00  0.00    +0.008 A 
ATOM      4  C   UNL     1      -0.160   2.010 -22.007  0.00  0.00    -0.034 A 
ATOM      5  C   UNL     1      -0.469   2.482 -23.136  0.00  0.00    +0.016 A 
ATOM      6  C   UNL     1      -1.647   2.831 -23.377  0.00  0.00    +0.072 C 
ATOM      7  C   UNL     1      -2.951   3.261 -23.766  0.00  0.00    +0.071 C 
ATOM      8  C   UNL     1      -3.966   3.139 -22.790  0.00  0.00    +0.133 C 
ATOM      9  N   UNL     1      -3.605   2.610 -21.532  0.00  0.00    +0.239 N 
ATOM     10  H   UNL     1      -4.297   2.499 -20.790  0.00  0.00    +0.204 HD
ATOM     11  C   UNL     1      -4.444   2.469 -20.613  0.00  0.00    +0.191 C 
ATOM     12  C   UNL     1      -2.237   2.242 -21.357  0.00  0.00    +0.096 C 
ATOM     13  C   UNL     1      -2.531   2.714 -22.496  0.00  0.00    -0.010 C 
ATOM     14  C   UNL     1      -3.722   3.067 -22.742  0.00  0.00    +0.000 C 
ATOM     15  C   UNL     1      -4.019   3.535 -23.866  0.00  0.00    +0.136 C 
ATOM     16 CL   UNL     1      -5.198   3.883 -24.105  0.00  0.00    -0.115 Cl
ATOM     17  C   UNL     1      -3.131   3.656 -24.761  0.00  0.00    +0.180 C 
ATOM     18  C   UNL     1      -1.953   3.307 -24.520  0.00  0.00    +0.149 C 
ATOM     19  C   UNL     1      -1.964   3.730 -25.700  0.00  0.00    +0.060 C 
ATOM     20  O   UNL     1      -0.538   3.176 -25.038  0.00  0.00    -0.478 OA
ATOM     21  C   UNL     1      -1.060   1.892 -21.112  0.00  0.00    +0.094 C 
ATOM     22  C   UNL     1       0.419   2.602 -24.029  0.00  0.00    +0.167 A 
ENDROOT
BRANCH   1  24
ATOM     23  C   UNL     1       3.703   2.201 -24.367  0.00  0.00    +0.277 C 
ATOM     24  O   UNL     1       2.497   2.365 -24.664  0.00  0.00    -0.491 OA
ENDBRANCH   1  24
BRANCH  17  25
ATOM     25  O   UNL     1      -3.432   4.124 -25.885  0.00  0.00    -0.386 OA
ATOM     26  H   UNL     1      -4.397   4.169 -25.969  0.00  0.00    +0.210 HD
ENDBRANCH  17  25
TORSDOF 2
ENDMDL
