MODEL 1
REMARK VINA RESULT:   -11.057      0.000      0.000
REMARK INTER + INTRA:         -11.811
REMARK INTER:                 -11.685
REMARK INTRA:                  -0.127
REMARK UNBOUND:                -0.108
REMARK  Name = ZINC000096316328
REMARK  2 active torsions:
REMARK  status: ('A' for Active; 'I' for Inactive)
REMARK    1  A    between atoms: C_1  and  O_2
REMARK    2  A    between atoms: O_2  and  C_3
REMARK                            x       y       z     vdW  Elec       q    Type
REMARK                         _______ _______ _______ _____ _____    ______ ____
ROOT
ATOM      1  C   UNL     1      -0.010   2.880 -23.829  0.00  0.00    +0.162 A 
ATOM      2  C   UNL     1      -0.104   3.363 -24.987  0.00  0.00    +0.050 A 
ATOM      3  C   UNL     1      -1.205   3.762 -25.415  0.00  0.00    +0.008 A 
ATOM      4  C   UNL     1      -2.218   3.683 -24.696  0.00  0.00    -0.034 A 
ATOM      5  C   UNL     1      -2.145   3.205 -23.541  0.00  0.00    +0.016 A 
ATOM      6  C   UNL     1      -3.158   3.126 -22.821  0.00  0.00    +0.071 C 
ATOM      7  C   UNL     1      -4.242   2.988 -21.917  0.00  0.00    +0.071 C 
ATOM      8  C   UNL     1      -5.494   3.429 -22.372  0.00  0.00    +0.131 C 
ATOM      9  N   UNL     1      -5.560   3.962 -23.669  0.00  0.00    +0.233 N 
ATOM     10  H   UNL     1      -5.830   4.937 -23.542  0.00  0.00    +0.202 HD
ATOM     11  H   UNL     1      -6.224   3.398 -24.201  0.00  0.00    +0.202 HD
ATOM     12  C   UNL     1      -4.352   4.008 -24.407  0.00  0.00    +0.095 C 
ATOM     13  C   UNL     1      -4.259   3.525 -23.249  0.00  0.00    -0.007 C 
ATOM     14  C   UNL     1      -5.284   3.445 -22.521  0.00  0.00    +0.006 C 
ATOM     15  C   UNL     1      -5.199   2.969 -21.374  0.00  0.00    -0.000 C 
ATOM     16  C   UNL     1      -4.091   2.564 -20.935  0.00  0.00    +0.018 C 
ATOM     17  C   UNL     1      -3.077   2.642 -21.654  0.00  0.00    +0.212 C 
ATOM     18  O   UNL     1      -1.600   2.389 -21.783  0.00  0.00    -0.480 OA
ATOM     19  C   UNL     1      -3.339   4.087 -25.127  0.00  0.00    +0.094 C 
ATOM     20  C   UNL     1      -1.037   2.801 -23.101  0.00  0.00    +0.167 A 
ENDROOT
BRANCH   1  22
ATOM     21  C   UNL     1       2.036   3.287 -23.239  0.00  0.00    +0.277 C 
ATOM     22  O   UNL     1       1.101   2.479 -23.400  0.00  0.00    -0.491 OA
ENDBRANCH   1  22
TORSDOF 1
ENDMDL
