MODEL 1
REMARK VINA RESULT:   -11.037      0.000      0.000
REMARK INTER + INTRA:         -11.517
REMARK INTER:                 -11.983
REMARK INTRA:                   0.467
REMARK UNBOUND:                 0.489
REMARK  Name = COc1cc(Br)c2c(c1O)[C@]13CCN(C)[C@@H](C2)[C@H]1CCC(=O)C3              ZINC000100392444
REMARK  4 active torsions:
REMARK  status: ('A' for Active; 'I' for Inactive)
REMARK    1  A    between atoms: C_1  and  O_2
REMARK    2  A    between atoms: O_2  and  C_3
REMARK    3  A    between atoms: C_9  and  O_10
REMARK    4  A    between atoms: N_14  and  C_15
REMARK                            x       y       z     vdW  Elec       q    Type
REMARK                         _______ _______ _______ _____ _____    ______ ____
ROOT
ATOM      1  C   UNL     1       0.564   2.788 -24.226  0.00  0.00    +0.163 A 
ATOM      2  C   UNL     1       0.974   2.339 -23.095  0.00  0.00    +0.065 A 
ATOM      3  C   UNL     1       0.169   2.176 -22.126  0.00  0.00    +0.025 A 
ATOM      4  C   UNL     1      -1.401   2.547 -22.338  0.00  0.00    -0.021 A 
ATOM      5  C   UNL     1      -1.587   2.945 -23.444  0.00  0.00    +0.009 A 
ATOM      6  C   UNL     1      -2.389   3.232 -23.851  0.00  0.00    +0.019 C 
ATOM      7  C   UNL     1      -3.295   3.644 -24.576  0.00  0.00    +0.063 C 
ATOM      8  C   UNL     1      -4.452   3.681 -24.010  0.00  0.00    +0.132 C 
ATOM      9  N   UNL     1      -4.490   3.276 -22.751  0.00  0.00    +0.236 N 
ATOM     10  H   UNL     1      -4.611   2.982 -21.783  0.00  0.00    +0.203 HD
ATOM     11  C   UNL     1      -3.372   2.902 -22.265  0.00  0.00    +0.072 C 
ATOM     12  C   UNL     1      -5.567   3.303 -22.202  0.00  0.00    +0.190 C 
ATOM     13  C   UNL     1      -0.966   2.928 -23.757  0.00  0.00    +0.086 C 
ATOM     14  C   UNL     1      -0.431   2.424 -22.532  0.00  0.00    +0.134 C 
ATOM     15  O   UNL     1      -0.559   1.877 -20.786  0.00  0.00    -0.297 OA
ATOM     16  C   UNL     1      -1.004   2.235 -21.618  0.00  0.00    +0.075 C 
ATOM     17  C   UNL     1      -1.974   2.422 -21.620  0.00  0.00    +0.017 C 
ATOM     18  C   UNL     1      -2.712   2.966 -22.847  0.00  0.00    +0.050 C 
ATOM     19  C   UNL     1      -2.754   2.559 -21.579  0.00  0.00    +0.091 C 
ATOM     20 BR   UNL     1       1.736   2.056 -22.678  0.00  0.00    -0.050 Br
ATOM     21  C   UNL     1      -0.660   3.088 -24.425  0.00  0.00    +0.163 A 
ENDROOT
BRANCH   1  23
ATOM     22  C   UNL     1       1.989   1.952 -25.771  0.00  0.00    +0.277 C 
ATOM     23  O   UNL     1       1.341   2.978 -25.264  0.00  0.00    -0.491 OA
ENDBRANCH   1  23
BRANCH  21  24
ATOM     24  O   UNL     1      -0.853   3.549 -25.721  0.00  0.00    -0.503 OA
ATOM     25  H   UNL     1      -1.718   3.749 -26.022  0.00  0.00    +0.292 HD
ENDBRANCH  21  24
TORSDOF 2
ENDMDL
