MODEL 1
REMARK VINA RESULT:    -8.856      0.000      0.000
REMARK INTER + INTRA:         -12.360
REMARK INTER:                 -12.072
REMARK INTRA:                  -0.289
REMARK UNBOUND:                -0.139
REMARK  Name = ZINC000004104885
REMARK  10 active torsions:
REMARK  status: ('A' for Active; 'I' for Inactive)
REMARK    1  A    between atoms: C_1  and  O_2
REMARK    2  A    between atoms: O_2  and  C_3
REMARK    3  A    between atoms: C_4  and  C_5
REMARK    4  A    between atoms: C_5  and  O_6
REMARK    5  A    between atoms: O_6  and  S_7
REMARK    6  A    between atoms: S_7  and  C_10
REMARK    7  A    between atoms: C_13  and  C_14
REMARK    8  A    between atoms: C_18  and  O_19
REMARK    9  A    between atoms: C_20  and  O_21
REMARK   10  A    between atoms: C_22  and  O_23
REMARK                            x       y       z     vdW  Elec       q    Type
REMARK                         _______ _______ _______ _____ _____    ______ ____
ROOT
ATOM      1  C   UNL     1       2.401   1.223 -23.209  0.00  0.00    +0.180 C 
ATOM      2  C   UNL     1       1.881   1.063 -22.028  0.00  0.00    +0.181 C 
ATOM      3  O   UNL     1       2.646   0.805 -21.010  0.00  0.00    -0.341 OA
ATOM      4  C   UNL     1       3.933   0.708 -21.172  0.00  0.00    +0.279 C 
ATOM      5  C   UNL     1       4.453   0.868 -22.352  0.00  0.00    +0.201 C 
ATOM      6  C   UNL     1       3.687   1.126 -23.370  0.00  0.00    +0.179 C 
ENDROOT
BRANCH   4   7
ATOM      7  O   UNL     1       4.698   0.450 -20.153  0.00  0.00    -0.365 OA
ATOM      8  H   UNL     1       4.333  -0.299 -19.656  0.00  0.00    +0.213 HD
ENDBRANCH   4   7
BRANCH   6   9
ATOM      9  O   UNL     1       4.208   1.287 -24.551  0.00  0.00    -0.386 OA
ATOM     10  H   UNL     1       3.500   1.332 -25.213  0.00  0.00    +0.210 HD
ENDBRANCH   6   9
BRANCH   5  11
ATOM     11  O   UNL     1       5.739   0.771 -22.514  0.00  0.00    -0.384 OA
ATOM     12  H   UNL     1       5.995  -0.165 -22.518  0.00  0.00    +0.210 HD
ENDBRANCH   5  11
BRANCH   1  14
ATOM     13  C   UNL     1       1.707   2.639 -24.817  0.00  0.00    +0.194 C 
ATOM     14  O   UNL     1       1.636   1.481 -24.227  0.00  0.00    -0.374 OA
ENDBRANCH   1  14
BRANCH   2  15
ATOM     15  C   UNL     1       0.595   1.160 -21.866  0.00  0.00    +0.228 C 
BRANCH  15  16
ATOM     16  O   UNL     1       0.061   2.310 -21.574  0.00  0.00    -0.232 OA
BRANCH  16  17
ATOM     17  S   UNL     1      -1.062   2.664 -22.126  0.00  0.00    +0.112 S 
ATOM     18  O   UNL     1      -1.610   1.556 -21.720  0.00  0.00    -0.142 OA
ATOM     19  O   UNL     1      -0.514   3.770 -22.531  0.00  0.00    -0.142 OA
BRANCH  17  20
ATOM     20  C   UNL     1      -2.184   3.018 -22.678  0.00  0.00    +0.117 A 
ATOM     21  C   UNL     1      -3.280   3.019 -21.978  0.00  0.00    +0.030 A 
ATOM     22  C   UNL     1      -4.403   3.373 -22.530  0.00  0.00    +0.005 A 
ATOM     23  C   UNL     1      -4.430   3.726 -23.781  0.00  0.00    -0.050 A 
ATOM     24  C   UNL     1      -3.333   3.725 -24.480  0.00  0.00    +0.005 A 
ATOM     25  C   UNL     1      -5.552   4.081 -24.332  0.00  0.00    +0.044 C 
ATOM     26  C   UNL     1      -2.211   3.371 -23.928  0.00  0.00    +0.030 A 
ENDBRANCH  17  20
ENDBRANCH  16  17
ENDBRANCH  15  16
ENDBRANCH   2  15
TORSDOF 8
ENDMDL
