MODEL 1
REMARK VINA RESULT:    -7.131      0.000      0.000
REMARK INTER + INTRA:          -7.855
REMARK INTER:                  -7.764
REMARK INTRA:                  -0.091
REMARK UNBOUND:                -0.099
REMARK  Name = ZINC000000338406
REMARK  4 active torsions:
REMARK  status: ('A' for Active; 'I' for Inactive)
REMARK    1  A    between atoms: C_1  and  O_2
REMARK    2  A    between atoms: O_2  and  C_3
REMARK    3  A    between atoms: C_8  and  O_9
REMARK    4  A    between atoms: N_11  and  C_12
REMARK                            x       y       z     vdW  Elec       q    Type
REMARK                         _______ _______ _______ _____ _____    ______ ____
ROOT
ATOM      1  C   UNL     1      -4.155   3.624 -23.770  0.00  0.00    +0.162 A 
ATOM      2  C   UNL     1      -3.180   3.138 -23.062  0.00  0.00    +0.053 A 
ATOM      3  C   UNL     1      -1.990   3.034 -23.578  0.00  0.00    -0.030 A 
ATOM      4  C   UNL     1      -1.777   3.416 -24.802  0.00  0.00    +0.004 A 
ATOM      5  C   UNL     1      -0.588   3.313 -25.317  0.00  0.00    +0.168 C 
ATOM      6  N   UNL     1       0.387   2.826 -24.609  0.00  0.00    +0.237 N 
ATOM      7  H   UNL     1      -0.415   2.796 -23.980  0.00  0.00    +0.203 HD
ATOM      8  C   UNL     1       0.174   2.443 -23.385  0.00  0.00    +0.136 C 
ATOM      9  C   UNL     1       1.577   2.722 -25.125  0.00  0.00    +0.191 C 
ATOM     10  C   UNL     1      -2.753   3.903 -25.510  0.00  0.00    +0.058 A 
ATOM     11  C   UNL     1      -1.015   2.547 -22.870  0.00  0.00    +0.086 C 
ATOM     12  C   UNL     1      -3.941   4.007 -24.994  0.00  0.00    +0.159 A 
ENDROOT
BRANCH   1  14
ATOM     13  C   UNL     1      -5.590   3.222 -22.082  0.00  0.00    +0.277 C 
ATOM     14  O   UNL     1      -5.343   3.728 -23.254  0.00  0.00    -0.491 OA
ENDBRANCH   1  14
BRANCH  12  15
ATOM     15  O   UNL     1      -4.916   4.494 -25.702  0.00  0.00    -0.503 OA
ATOM     16  H   UNL     1      -4.733   4.967 -26.490  0.00  0.00    +0.292 HD
ENDBRANCH  12  15
TORSDOF 2
ENDMDL
