MODEL 1
REMARK VINA RESULT:    -8.159      0.000      0.000
REMARK INTER + INTRA:          -8.159
REMARK INTER:                  -8.159
REMARK INTRA:                   0.000
REMARK UNBOUND:                 0.000
REMARK  Name = ZINC000000073700
REMARK  0 active torsions:
REMARK  status: ('A' for Active; 'I' for Inactive)
REMARK                            x       y       z     vdW  Elec       q    Type
REMARK                         _______ _______ _______ _____ _____    ______ ____
ROOT
ATOM      1  O   UNL     1       0.799   2.230 -24.006  0.00  0.00    -0.245 OA
ATOM      2  C   UNL     1      -0.274   2.309 -23.275  0.00  0.00    +0.337 A 
ATOM      3  C   UNL     1      -0.238   1.942 -22.028  0.00  0.00    +0.092 A 
ATOM      4  C   UNL     1      -1.311   2.021 -21.297  0.00  0.00    +0.018 A 
ATOM      5  C   UNL     1      -2.417   2.467 -21.812  0.00  0.00    +0.018 A 
ATOM      6  C   UNL     1      -3.490   2.546 -21.081  0.00  0.00    +0.015 A 
ATOM      7  C   UNL     1      -4.597   2.992 -21.596  0.00  0.00    +0.047 A 
ATOM      8  C   UNL     1      -4.631   3.360 -22.843  0.00  0.00    +0.138 A 
ATOM      9  O   UNL     1      -5.589   3.831 -23.585  0.00  0.00    -0.463 OA
ATOM     10  C   UNL     1      -5.109   4.044 -24.774  0.00  0.00    +0.196 A 
ATOM     11  C   UNL     1      -3.855   3.704 -24.768  0.00  0.00    +0.053 A 
ATOM     12  C   UNL     1      -3.559   3.281 -23.574  0.00  0.00    +0.063 A 
ATOM     13  C   UNL     1      -2.452   2.834 -23.059  0.00  0.00    +0.150 A 
ATOM     14  O   UNL     1      -1.380   2.756 -23.790  0.00  0.00    -0.421 OA
ENDROOT
TORSDOF 0
ENDMDL
