MODEL 1
REMARK VINA RESULT:    -8.886      0.000      0.000
REMARK INTER + INTRA:         -11.674
REMARK INTER:                 -11.722
REMARK INTRA:                   0.048
REMARK UNBOUND:                 0.329
REMARK  Name = ZINC000000621833
REMARK  11 active torsions:
REMARK  status: ('A' for Active; 'I' for Inactive)
REMARK    1  A    between atoms: C_1  and  O_2
REMARK    2  A    between atoms: O_2  and  C_3
REMARK    3  A    between atoms: C_6  and  C_7
REMARK    4  A    between atoms: C_7  and  C_8
REMARK    5  A    between atoms: C_11  and  O_12
REMARK    6  A    between atoms: O_12  and  C_13
REMARK    7  A    between atoms: C_14  and  O_15
REMARK    8  A    between atoms: O_15  and  C_16
REMARK    9  A    between atoms: N_21  and  C_22
REMARK   10  A    between atoms: C_24  and  O_25
REMARK   11  A    between atoms: O_25  and  C_26
REMARK                            x       y       z     vdW  Elec       q    Type
REMARK                         _______ _______ _______ _____ _____    ______ ____
ROOT
ATOM      1  C   UNL     1      -0.898   3.933 -24.067  0.00  0.00    +0.100 C 
ATOM      2  C   UNL     1      -2.102   3.855 -23.583  0.00  0.00    +0.008 A 
ATOM      3  C   UNL     1      -2.309   4.070 -22.318  0.00  0.00    +0.058 A 
ATOM      4  C   UNL     1      -3.513   3.992 -21.833  0.00  0.00    +0.162 A 
ATOM      5  C   UNL     1      -4.510   3.698 -22.614  0.00  0.00    +0.162 A 
ATOM      6  C   UNL     1      -4.303   3.483 -23.879  0.00  0.00    +0.053 A 
ATOM      7  C   UNL     1      -3.099   3.561 -24.364  0.00  0.00    -0.030 A 
ATOM      8  C   UNL     1      -2.892   3.346 -25.629  0.00  0.00    +0.086 C 
ATOM      9  C   UNL     1      -1.688   3.424 -26.113  0.00  0.00    +0.136 C 
ATOM     10  N   UNL     1      -0.691   3.717 -25.332  0.00  0.00    +0.239 N 
ATOM     11  H   UNL     1       0.171   3.937 -24.834  0.00  0.00    +0.204 HD
ATOM     12  C   UNL     1       0.513   3.795 -25.817  0.00  0.00    +0.191 C 
ENDROOT
BRANCH   5  13
ATOM     13  O   UNL     1      -5.713   3.620 -22.130  0.00  0.00    -0.491 OA
ATOM     14  C   UNL     1      -6.180   2.475 -21.729  0.00  0.00    +0.277 C 
ENDBRANCH   5  13
BRANCH   4  15
ATOM     15  O   UNL     1      -3.720   4.207 -20.568  0.00  0.00    -0.491 OA
ATOM     16  C   UNL     1      -2.995   3.596 -19.678  0.00  0.00    +0.277 C 
ENDBRANCH   4  15
BRANCH   1  17
ATOM     17  C   UNL     1       0.099   4.226 -23.286  0.00  0.00    +0.094 C 
BRANCH  17  21
ATOM     18  C   UNL     1       2.687   1.477 -22.311  0.00  0.00    +0.161 A 
ATOM     19  C   UNL     1       1.414   1.236 -22.208  0.00  0.00    +0.049 A 
ATOM     20  C   UNL     1       0.551   2.152 -22.533  0.00  0.00    +0.007 A 
ATOM     21  C   UNL     1       0.962   3.310 -22.961  0.00  0.00    -0.038 A 
ATOM     22  C   UNL     1       2.235   3.550 -23.063  0.00  0.00    +0.053 A 
ATOM     23  C   UNL     1       3.098   2.633 -22.738  0.00  0.00    +0.162 A 
BRANCH  18  25
ATOM     24  C   UNL     1       3.863   0.375 -20.738  0.00  0.00    +0.277 C 
ATOM     25  O   UNL     1       3.550   0.560 -21.986  0.00  0.00    -0.491 OA
ENDBRANCH  18  25
BRANCH  23  26
ATOM     26  O   UNL     1       4.371   2.874 -22.840  0.00  0.00    -0.491 OA
ATOM     27  C   UNL     1       4.782   4.038 -23.247  0.00  0.00    +0.277 C 
ENDBRANCH  23  26
ENDBRANCH  17  21
ENDBRANCH   1  17
TORSDOF 6
ENDMDL
