MODEL 1
REMARK VINA RESULT:   -11.187      0.000      0.000
REMARK INTER + INTRA:         -11.954
REMARK INTER:                 -11.805
REMARK INTRA:                  -0.149
REMARK UNBOUND:                -0.113
REMARK  Name = COc1ccc2c3c1O[C@]1(C)C(=O)C=C[C@H]4[C@@H](C2)N(C)CC[C@@]341          ZINC000253504794
REMARK  4 active torsions:
REMARK  status: ('A' for Active; 'I' for Inactive)
REMARK    1  A    between atoms: C_1  and  O_2
REMARK    2  A    between atoms: O_2  and  C_3
REMARK    3  A    between atoms: C_10  and  C_11
REMARK    4  A    between atoms: N_19  and  C_20
REMARK                            x       y       z     vdW  Elec       q    Type
REMARK                         _______ _______ _______ _____ _____    ______ ____
ROOT
ATOM      1  C   UNL     1       0.866   2.237 -23.216  0.00  0.00    +0.162 A 
ATOM      2  C   UNL     1       0.838   1.886 -22.001  0.00  0.00    +0.050 A 
ATOM      3  C   UNL     1      -0.234   1.917 -21.355  0.00  0.00    +0.008 A 
ATOM      4  C   UNL     1      -1.290   2.299 -21.915  0.00  0.00    -0.034 A 
ATOM      5  C   UNL     1      -1.282   2.653 -23.124  0.00  0.00    +0.013 A 
ATOM      6  C   UNL     1      -2.335   3.033 -23.680  0.00  0.00    +0.062 C 
ATOM      7  C   UNL     1      -3.470   3.483 -24.416  0.00  0.00    +0.067 C 
ATOM      8  C   UNL     1      -4.693   3.529 -23.714  0.00  0.00    +0.132 C 
ATOM      9  N   UNL     1      -4.684   3.130 -22.361  0.00  0.00    +0.236 N 
ATOM     10  H   UNL     1      -5.540   3.142 -21.805  0.00  0.00    +0.203 HD
ATOM     11  C   UNL     1      -5.726   3.140 -21.668  0.00  0.00    +0.190 C 
ATOM     12  C   UNL     1      -3.433   2.713 -21.821  0.00  0.00    +0.076 C 
ATOM     13  C   UNL     1      -3.409   3.065 -23.036  0.00  0.00    +0.076 C 
ATOM     14  C   UNL     1      -4.472   3.450 -23.600  0.00  0.00    -0.013 C 
ATOM     15  C   UNL     1      -4.456   3.799 -24.802  0.00  0.00    +0.046 C 
ATOM     16  C   UNL     1      -3.376   3.770 -25.458  0.00  0.00    +0.200 C 
ATOM     17  O   UNL     1      -3.361   4.120 -26.661  0.00  0.00    -0.288 OA
ATOM     18  C   UNL     1      -2.321   3.389 -24.903  0.00  0.00    +0.180 C 
ATOM     19  C   UNL     1      -2.018   3.674 -26.084  0.00  0.00    +0.065 C 
ATOM     20  O   UNL     1      -0.842   3.125 -25.041  0.00  0.00    -0.473 OA
ATOM     21  C   UNL     1      -2.381   2.332 -21.261  0.00  0.00    +0.090 C 
ATOM     22  C   UNL     1      -0.202   2.623 -23.779  0.00  0.00    +0.167 A 
ENDROOT
BRANCH   1  24
ATOM     23  C   UNL     1       2.681   3.212 -23.893  0.00  0.00    +0.277 C 
ATOM     24  O   UNL     1       1.940   2.205 -23.858  0.00  0.00    -0.491 OA
ENDBRANCH   1  24
TORSDOF 1
ENDMDL
