MODEL 1
REMARK VINA RESULT:    -7.283      0.000      0.000
REMARK INTER + INTRA:          -7.496
REMARK INTER:                  -7.496
REMARK INTRA:                   0.000
REMARK UNBOUND:                 0.000
REMARK  Name = ZINC000000058111
REMARK  1 active torsions:
REMARK  status: ('A' for Active; 'I' for Inactive)
REMARK    1  A    between atoms: C_8  and  O_9
REMARK                            x       y       z     vdW  Elec       q    Type
REMARK                         _______ _______ _______ _____ _____    ______ ____
ROOT
ATOM      1  O   UNL     1      -4.436   2.250 -20.428  0.00  0.00    -0.245 OA
ATOM      2  C   UNL     1      -4.424   2.717 -21.641  0.00  0.00    +0.337 A 
ATOM      3  C   UNL     1      -5.488   3.281 -22.131  0.00  0.00    +0.092 A 
ATOM      4  C   UNL     1      -5.477   3.748 -23.344  0.00  0.00    +0.018 A 
ATOM      5  C   UNL     1      -4.401   3.650 -24.068  0.00  0.00    +0.018 A 
ATOM      6  C   UNL     1      -4.389   4.117 -25.281  0.00  0.00    +0.015 A 
ATOM      7  C   UNL     1      -3.313   4.019 -26.004  0.00  0.00    +0.046 A 
ATOM      8  C   UNL     1      -2.250   3.455 -25.515  0.00  0.00    +0.120 A 
ATOM      9  C   UNL     1      -2.261   2.988 -24.302  0.00  0.00    +0.092 A 
ATOM     10  C   UNL     1      -3.337   3.086 -23.578  0.00  0.00    +0.143 A 
ATOM     11  O   UNL     1      -3.349   2.619 -22.365  0.00  0.00    -0.422 OA
ENDROOT
BRANCH   8  12
ATOM     12  O   UNL     1      -1.174   3.357 -26.238  0.00  0.00    -0.507 OA
ATOM     13  H   UNL     1      -1.241   3.168 -27.153  0.00  0.00    +0.292 HD
ENDBRANCH   8  12
TORSDOF 1
ENDMDL
