MODEL 1
REMARK VINA RESULT:    -7.665      0.000      0.000
REMARK INTER + INTRA:         -11.075
REMARK INTER:                 -10.720
REMARK INTRA:                  -0.356
REMARK UNBOUND:                -0.498
REMARK  Name = ZINC000000338233
REMARK  11 active torsions:
REMARK  status: ('A' for Active; 'I' for Inactive)
REMARK    1  A    between atoms: C_1  and  O_2
REMARK    2  A    between atoms: O_2  and  C_3
REMARK    3  A    between atoms: C_5  and  O_6
REMARK    4  A    between atoms: O_6  and  C_7
REMARK    5  A    between atoms: C_15  and  C_16
REMARK    6  A    between atoms: C_16  and  C_17
REMARK    7  A    between atoms: C_17  and  O_18
REMARK    8  A    between atoms: C_17  and  C_19
REMARK    9  A    between atoms: C_19  and  C_20
REMARK   10  A    between atoms: C_19  and  C_21
REMARK   11  A    between atoms: C_19  and  O_22
REMARK                            x       y       z     vdW  Elec       q    Type
REMARK                         _______ _______ _______ _____ _____    ______ ____
ROOT
ATOM      1  C   UNL     1      -0.664   3.210 -24.523  0.00  0.00    +0.130 A 
ATOM      2  C   UNL     1      -1.710   3.446 -25.261  0.00  0.00    +0.092 A 
ATOM      3  C   UNL     1      -2.869   3.631 -24.704  0.00  0.00    +0.134 A 
ATOM      4  C   UNL     1      -2.986   3.582 -23.411  0.00  0.00    +0.060 A 
ATOM      5  C   UNL     1      -4.146   3.767 -22.856  0.00  0.00    +0.022 A 
ATOM      6  C   UNL     1      -4.262   3.718 -21.561  0.00  0.00    +0.093 A 
ATOM      7  C   UNL     1      -3.218   3.483 -20.823  0.00  0.00    +0.337 A 
ATOM      8  O   UNL     1      -2.057   3.297 -21.380  0.00  0.00    -0.422 OA
ATOM      9  O   UNL     1      -3.334   3.433 -19.530  0.00  0.00    -0.245 OA
ATOM     10  C   UNL     1      -1.941   3.346 -22.673  0.00  0.00    +0.149 A 
ATOM     11  C   UNL     1      -0.781   3.161 -23.229  0.00  0.00    +0.040 A 
ENDROOT
BRANCH   3  12
ATOM     12  O   UNL     1      -3.913   3.866 -25.442  0.00  0.00    -0.494 OA
ATOM     13  C   UNL     1      -4.305   2.986 -26.315  0.00  0.00    +0.277 C 
ENDBRANCH   3  12
BRANCH   1  15
ATOM     14  C   UNL     1       1.161   4.038 -25.549  0.00  0.00    +0.277 C 
ATOM     15  O   UNL     1       0.496   3.025 -25.079  0.00  0.00    -0.495 OA
ENDBRANCH   1  15
BRANCH  11  16
ATOM     16  C   UNL     1       0.264   2.926 -22.491  0.00  0.00    +0.076 C 
BRANCH  16  17
ATOM     17  C   UNL     1       0.606   1.702 -22.222  0.00  0.00    +0.150 C 
BRANCH  17  18
ATOM     18  C   UNL     1       1.864   1.383 -22.139  0.00  0.00    +0.087 C 
ATOM     19  C   UNL     1       2.505   1.552 -21.021  0.00  0.00    +0.043 C 
ATOM     20  C   UNL     1       2.947   0.916 -22.688  0.00  0.00    +0.043 C 
BRANCH  18  21
ATOM     21  O   UNL     1       1.850   1.003 -23.382  0.00  0.00    -0.387 OA
ATOM     22  H   UNL     1       1.098   0.409 -23.531  0.00  0.00    +0.210 HD
ENDBRANCH  18  21
ENDBRANCH  17  18
BRANCH  17  23
ATOM     23  O   UNL     1      -0.307   0.796 -22.037  0.00  0.00    -0.389 OA
ATOM     24  H   UNL     1      -0.666   0.878 -21.139  0.00  0.00    +0.210 HD
ENDBRANCH  17  23
ENDBRANCH  16  17
ENDBRANCH  11  16
TORSDOF 7
ENDMDL
