MODEL 1
REMARK VINA RESULT:    -8.473      0.000      0.000
REMARK INTER + INTRA:         -11.565
REMARK INTER:                 -12.118
REMARK INTRA:                   0.553
REMARK UNBOUND:                 0.871
REMARK  Name = ZINC000002585423
REMARK  15 active torsions:
REMARK  status: ('A' for Active; 'I' for Inactive)
REMARK    1  A    between atoms: C_1  and  O_2
REMARK    2  A    between atoms: O_2  and  C_3
REMARK    3  A    between atoms: C_5  and  C_6
REMARK    4  A    between atoms: C_9  and  O_10
REMARK    5  A    between atoms: O_10  and  C_11
REMARK    6  A    between atoms: C_12  and  O_13
REMARK    7  A    between atoms: O_13  and  C_14
REMARK    8  A    between atoms: C_16  and  O_17
REMARK    9  A    between atoms: O_17  and  C_18
REMARK   10  A    between atoms: C_22  and  O_23
REMARK   11  A    between atoms: O_23  and  C_24
REMARK   12  A    between atoms: C_26  and  O_27
REMARK   13  A    between atoms: O_27  and  C_28
REMARK   14  A    between atoms: C_29  and  O_30
REMARK   15  A    between atoms: O_30  and  C_31
REMARK                            x       y       z     vdW  Elec       q    Type
REMARK                         _______ _______ _______ _____ _____    ______ ____
ROOT
ATOM      1  C   UNL     1       0.411   3.289 -23.416  0.00  0.00    +0.181 A 
ATOM      2  O   UNL     1      -0.533   3.189 -22.529  0.00  0.00    -0.447 OA
ATOM      3  C   UNL     1      -1.779   3.222 -22.899  0.00  0.00    +0.188 A 
ATOM      4  C   UNL     1      -2.724   3.122 -22.012  0.00  0.00    +0.205 A 
ATOM      5  C   UNL     1      -3.970   3.154 -22.383  0.00  0.00    +0.169 A 
ATOM      6  C   UNL     1      -4.271   3.286 -23.641  0.00  0.00    +0.096 A 
ATOM      7  C   UNL     1      -3.326   3.386 -24.528  0.00  0.00    +0.138 A 
ATOM      8  C   UNL     1      -2.080   3.353 -24.157  0.00  0.00    +0.113 A 
ATOM      9  C   UNL     1      -1.135   3.453 -25.044  0.00  0.00    +0.238 A 
ATOM     10  O   UNL     1      -1.436   3.585 -26.302  0.00  0.00    -0.283 OA
ATOM     11  C   UNL     1       0.110   3.420 -24.673  0.00  0.00    +0.211 A 
ENDROOT
BRANCH   1  14
ATOM     12  C   UNL     1       3.440   2.103 -22.297  0.00  0.00    +0.166 A 
ATOM     13  C   UNL     1       2.194   2.135 -22.666  0.00  0.00    +0.061 A 
ATOM     14  C   UNL     1       1.656   3.256 -23.046  0.00  0.00    +0.028 A 
ATOM     15  C   UNL     1       2.365   4.346 -23.055  0.00  0.00    +0.061 A 
ATOM     16  C   UNL     1       3.611   4.314 -22.685  0.00  0.00    +0.166 A 
ATOM     17  C   UNL     1       4.148   3.193 -22.306  0.00  0.00    +0.204 A 
BRANCH  16  18
ATOM     18  O   UNL     1       4.320   5.404 -22.694  0.00  0.00    -0.491 OA
ATOM     19  C   UNL     1       3.753   6.550 -22.461  0.00  0.00    +0.277 C 
ENDBRANCH  16  18
BRANCH  12  21
ATOM     20  C   UNL     1       3.672   0.474 -20.760  0.00  0.00    +0.277 C 
ATOM     21  O   UNL     1       3.977   0.982 -21.917  0.00  0.00    -0.491 OA
ENDBRANCH  12  21
BRANCH  17  22
ATOM     22  O   UNL     1       5.394   3.162 -21.936  0.00  0.00    -0.488 OA
ATOM     23  C   UNL     1       6.334   3.033 -22.826  0.00  0.00    +0.277 C 
ENDBRANCH  17  22
ENDBRANCH   1  14
BRANCH   7  24
ATOM     24  O   UNL     1      -3.627   3.517 -25.786  0.00  0.00    -0.494 OA
ATOM     25  C   UNL     1      -4.711   2.974 -26.255  0.00  0.00    +0.277 C 
ENDBRANCH   7  24
BRANCH   5  26
ATOM     26  O   UNL     1      -4.914   3.055 -21.496  0.00  0.00    -0.491 OA
ATOM     27  C   UNL     1      -6.151   2.917 -21.875  0.00  0.00    +0.277 C 
ENDBRANCH   5  26
BRANCH   4  28
ATOM     28  O   UNL     1      -2.424   2.990 -20.754  0.00  0.00    -0.488 OA
ATOM     29  C   UNL     1      -2.887   3.837 -19.883  0.00  0.00    +0.277 C 
ENDBRANCH   4  28
BRANCH  11  30
ATOM     30  O   UNL     1       1.055   3.520 -25.561  0.00  0.00    -0.488 OA
ATOM     31  C   UNL     1       1.625   2.449 -26.029  0.00  0.00    +0.277 C 
ENDBRANCH  11  30
TORSDOF 8
ENDMDL
