MODEL 1
REMARK VINA RESULT:    -8.859      0.000      0.000
REMARK INTER + INTRA:         -10.327
REMARK INTER:                 -10.058
REMARK INTRA:                  -0.269
REMARK UNBOUND:                 0.086
REMARK  Name = ZINC000014650527
REMARK  5 active torsions:
REMARK  status: ('A' for Active; 'I' for Inactive)
REMARK    1  A    between atoms: C_2  and  C_3
REMARK    2  A    between atoms: C_2  and  C_4
REMARK    3  A    between atoms: C_6  and  C_7
REMARK    4  A    between atoms: C_8  and  O_9
REMARK    5  A    between atoms: O_9  and  C_10
REMARK                            x       y       z     vdW  Elec       q    Type
REMARK                         _______ _______ _______ _____ _____    ______ ____
ROOT
ATOM      1  C   UNL     1      -0.437   2.783 -23.321  0.00  0.00    +0.068 A 
ATOM      2  C   UNL     1      -1.063   3.202 -24.380  0.00  0.00    +0.129 A 
ATOM      3  C   UNL     1      -0.396   3.725 -25.366  0.00  0.00    +0.047 A 
ATOM      4  C   UNL     1       0.898   3.829 -25.292  0.00  0.00    +0.015 A 
ATOM      5  C   UNL     1       1.524   3.411 -24.232  0.00  0.00    +0.018 A 
ATOM      6  C   UNL     1       2.817   3.516 -24.158  0.00  0.00    +0.018 A 
ATOM      7  C   UNL     1       3.444   3.097 -23.098  0.00  0.00    +0.092 A 
ATOM      8  C   UNL     1       2.776   2.574 -22.113  0.00  0.00    +0.337 A 
ATOM      9  O   UNL     1       1.482   2.470 -22.187  0.00  0.00    -0.422 OA
ATOM     10  O   UNL     1       3.402   2.156 -21.053  0.00  0.00    -0.245 OA
ATOM     11  C   UNL     1       0.856   2.888 -23.247  0.00  0.00    +0.148 A 
ENDROOT
BRANCH   1  14
ATOM     12  C   UNL     1      -2.088   2.315 -21.487  0.00  0.00    +0.178 C 
ATOM     13  O   UNL     1      -1.277   1.300 -21.476  0.00  0.00    -0.358 OA
ATOM     14  C   UNL     1      -1.104   2.261 -22.335  0.00  0.00    +0.189 C 
BRANCH  12  16
ATOM     15  C   UNL     1      -4.311   2.678 -21.472  0.00  0.00    +0.010 C 
ATOM     16  C   UNL     1      -3.125   2.932 -21.003  0.00  0.00    -0.049 C 
ATOM     17  C   UNL     1      -2.977   3.805 -20.051  0.00  0.00    +0.041 C 
ENDBRANCH  12  16
ENDBRANCH   1  14
BRANCH   2  18
ATOM     18  O   UNL     1      -2.358   3.097 -24.454  0.00  0.00    -0.495 OA
ATOM     19  C   UNL     1      -3.075   4.127 -24.791  0.00  0.00    +0.277 C 
ENDBRANCH   2  18
TORSDOF 3
ENDMDL
