MODEL 1
REMARK VINA RESULT:   -10.434      0.000      0.000
REMARK INTER + INTRA:         -10.607
REMARK INTER:                 -11.409
REMARK INTRA:                   0.802
REMARK UNBOUND:                 1.046
REMARK  Name = ZINC000000389747
REMARK  4 active torsions:
REMARK  status: ('A' for Active; 'I' for Inactive)
REMARK    1  A    between atoms: C_2  and  C_3
REMARK    2  A    between atoms: C_3  and  N_4
REMARK    3  A    between atoms: C_12  and  O_13
REMARK    4  A    between atoms: C_21  and  O_22
REMARK                            x       y       z     vdW  Elec       q    Type
REMARK                         _______ _______ _______ _____ _____    ______ ____
ROOT
ATOM      1  N   UNL     1       0.107   3.261 -23.849  0.00  0.00    +0.243 N 
ATOM      2  H   UNL     1       1.123   3.278 -23.941  0.00  0.00    +0.204 HD
ATOM      3  C   UNL     1      -0.526   3.453 -25.091  0.00  0.00    +0.133 C 
ATOM      4  C   UNL     1      -1.936   3.453 -25.116  0.00  0.00    +0.069 C 
ATOM      5  C   UNL     1      -2.589   3.257 -23.864  0.00  0.00    +0.082 C 
ATOM      6  C   UNL     1      -3.256   3.092 -22.819  0.00  0.00    +0.015 A 
ATOM      7  C   UNL     1      -2.680   2.921 -21.710  0.00  0.00    -0.034 A 
ATOM      8  C   UNL     1      -3.344   2.756 -20.662  0.00  0.00    +0.008 A 
ATOM      9  C   UNL     1      -4.595   2.760 -20.711  0.00  0.00    +0.049 A 
ATOM     10  C   UNL     1      -5.194   2.931 -21.813  0.00  0.00    +0.159 A 
ATOM     11  C   UNL     1      -1.404   2.918 -21.670  0.00  0.00    +0.093 C 
ATOM     12  C   UNL     1      -4.519   3.097 -22.873  0.00  0.00    +0.167 A 
ATOM     13  O   UNL     1      -4.550   3.328 -24.354  0.00  0.00    -0.476 OA
ATOM     14  C   UNL     1      -1.342   3.252 -23.813  0.00  0.00    +0.123 C 
ATOM     15  C   UNL     1      -0.660   3.417 -24.867  0.00  0.00    +0.049 C 
ATOM     16  C   UNL     1      -1.240   3.587 -25.964  0.00  0.00    +0.081 C 
ATOM     17  C   UNL     1      -2.506   3.594 -26.027  0.00  0.00    +0.175 C 
ATOM     18  O   UNL     1      -3.082   3.763 -27.124  0.00  0.00    -0.293 OA
ATOM     19  C   UNL     1      -3.177   3.429 -24.978  0.00  0.00    +0.253 C 
ATOM     20  C   UNL     1      -0.738   3.082 -22.716  0.00  0.00    +0.102 C 
ENDROOT
BRANCH  10  21
ATOM     21  O   UNL     1      -6.444   2.934 -21.856  0.00  0.00    -0.503 OA
ATOM     22  H   UNL     1      -6.915   3.734 -21.726  0.00  0.00    +0.292 HD
ENDBRANCH  10  21
BRANCH  14  23
ATOM     23  O   UNL     1      -2.003   3.087 -22.764  0.00  0.00    -0.382 OA
ATOM     24  H   UNL     1      -2.599   2.329 -22.873  0.00  0.00    +0.210 HD
ENDBRANCH  14  23
BRANCH   1  25
ATOM     25  C   UNL     1       1.377   3.246 -23.731  0.00  0.00    +0.159 C 
BRANCH  25  27
ATOM     26  C   UNL     1       3.269   4.267 -23.324  0.00  0.00    +0.009 C 
ATOM     27  C   UNL     1       2.008   4.267 -23.336  0.00  0.00    +0.015 C 
ENDBRANCH  25  27
ENDBRANCH   1  25
TORSDOF 4
ENDMDL
