MODEL 1
REMARK VINA RESULT:   -11.729      0.000      0.000
REMARK INTER + INTRA:         -11.981
REMARK INTER:                 -12.299
REMARK INTRA:                   0.318
REMARK UNBOUND:                 0.434
REMARK  Name = CC[C@H]1C[C@H]2C[C@H]3c4[nH]c5ccccc5c4CCN(C2)[C@@H]13                ZINC000100393168
REMARK  2 active torsions:
REMARK  status: ('A' for Active; 'I' for Inactive)
REMARK    1  A    between atoms: C_1  and  C_2
REMARK    2  A    between atoms: C_2  and  C_3
REMARK                            x       y       z     vdW  Elec       q    Type
REMARK                         _______ _______ _______ _____ _____    ______ ____
ROOT
ATOM      1  C   UNL     1      -3.966   3.278 -22.415  0.00  0.00    +0.038 C 
ATOM      2  C   UNL     1      -5.233   3.584 -22.856  0.00  0.00    +0.017 C 
ATOM      3  C   UNL     1      -5.353   3.909 -24.363  0.00  0.00    +0.036 C 
ATOM      4  C   UNL     1      -4.161   3.881 -25.235  0.00  0.00    +0.024 C 
ATOM      5  C   UNL     1      -2.894   3.542 -24.629  0.00  0.00    +0.085 C 
ATOM      6  C   UNL     1      -1.891   3.400 -24.780  0.00  0.00    +0.029 A 
ATOM      7  N   UNL     1      -0.873   3.398 -25.631  0.00  0.00    -0.357 N 
ATOM      8  H   UNL     1      -0.927   3.602 -26.593  0.00  0.00    +0.166 HD
ATOM      9  C   UNL     1       0.232   3.074 -24.968  0.00  0.00    +0.047 A 
ATOM     10  C   UNL     1       1.497   2.945 -25.401  0.00  0.00    +0.026 A 
ATOM     11  C   UNL     1       2.468   2.606 -24.548  0.00  0.00    +0.002 A 
ATOM     12  C   UNL     1       2.175   2.393 -23.244  0.00  0.00    +0.001 A 
ATOM     13  C   UNL     1       0.898   2.521 -22.795  0.00  0.00    +0.010 A 
ATOM     14  C   UNL     1      -0.079   2.862 -23.655  0.00  0.00    +0.003 A 
ATOM     15  C   UNL     1      -1.439   3.069 -23.527  0.00  0.00    -0.014 A 
ATOM     16  C   UNL     1      -2.704   3.055 -22.385  0.00  0.00    +0.088 C 
ATOM     17  C   UNL     1      -4.185   3.429 -22.976  0.00  0.00    +0.136 C 
ATOM     18  N   UNL     1      -4.063   3.505 -23.455  0.00  0.00    +0.238 N 
ATOM     19  H   UNL     1      -5.069   3.669 -23.415  0.00  0.00    +0.204 HD
ATOM     20  C   UNL     1      -4.384   3.751 -24.401  0.00  0.00    +0.135 C 
ATOM     21  C   UNL     1      -2.934   3.324 -23.520  0.00  0.00    +0.076 C 
ENDROOT
BRANCH   1  23
ATOM     22  C   UNL     1      -3.227   3.549 -20.276  0.00  0.00    +0.004 C 
ATOM     23  C   UNL     1      -3.825   3.009 -21.205  0.00  0.00    +0.006 C 
ENDBRANCH   1  23
TORSDOF 1
ENDMDL
