MODEL 1
REMARK VINA RESULT:   -10.499      0.000      0.000
REMARK INTER + INTRA:         -12.462
REMARK INTER:                 -13.173
REMARK INTRA:                   0.712
REMARK UNBOUND:                 0.800
REMARK  Name = COCO[C@@H]1C=C2[C@H]3Cc4ccc(OC)c5c4[C@]2(CCN3C)[C@](C)(O5)[C@H]1O    ZINC000100393648
REMARK  9 active torsions:
REMARK  status: ('A' for Active; 'I' for Inactive)
REMARK    1  A    between atoms: C_1  and  O_2
REMARK    2  A    between atoms: O_2  and  C_3
REMARK    3  A    between atoms: C_3  and  O_4
REMARK    4  A    between atoms: O_4  and  C_5
REMARK    5  A    between atoms: C_13  and  O_14
REMARK    6  A    between atoms: O_14  and  C_15
REMARK    7  A    between atoms: N_21  and  C_22
REMARK    8  A    between atoms: C_23  and  C_24
REMARK    9  A    between atoms: C_26  and  O_27
REMARK                            x       y       z     vdW  Elec       q    Type
REMARK                         _______ _______ _______ _____ _____    ______ ____
ROOT
ATOM      1  C   UNL     1       0.991   2.150 -22.655  0.00  0.00    +0.176 C 
ATOM      2  C   UNL     1       0.632   2.666 -23.745  0.00  0.00    +0.013 C 
ATOM      3  C   UNL     1      -0.582   2.990 -23.927  0.00  0.00    -0.009 C 
ATOM      4  C   UNL     1      -0.938   3.511 -25.032  0.00  0.00    +0.096 C 
ATOM      5  C   UNL     1      -2.139   3.833 -25.213  0.00  0.00    +0.094 C 
ATOM      6  C   UNL     1      -3.001   3.637 -24.288  0.00  0.00    -0.034 A 
ATOM      7  C   UNL     1      -4.206   3.959 -24.469  0.00  0.00    +0.008 A 
ATOM      8  C   UNL     1      -5.049   3.765 -23.558  0.00  0.00    +0.050 A 
ATOM      9  C   UNL     1      -4.698   3.245 -22.453  0.00  0.00    +0.162 A 
ATOM     10  C   UNL     1      -3.479   2.920 -22.272  0.00  0.00    +0.167 A 
ATOM     11  O   UNL     1      -2.462   2.329 -21.330  0.00  0.00    -0.478 OA
ATOM     12  C   UNL     1      -1.061   2.273 -21.909  0.00  0.00    +0.150 C 
ATOM     13  C   UNL     1      -0.988   1.789 -20.750  0.00  0.00    +0.060 C 
ATOM     14  C   UNL     1      -2.630   3.118 -23.194  0.00  0.00    +0.016 A 
ATOM     15  N   UNL     1       0.451   3.182 -24.928  0.00  0.00    +0.239 N 
ATOM     16  H   UNL     1       1.110   3.353 -25.688  0.00  0.00    +0.204 HD
ATOM     17  C   UNL     1       1.251   3.398 -25.873  0.00  0.00    +0.191 C 
ATOM     18  C   UNL     1       0.883   2.599 -23.710  0.00  0.00    +0.133 C 
ATOM     19  C   UNL     1      -0.092   2.393 -22.700  0.00  0.00    +0.071 C 
ATOM     20  C   UNL     1      -1.429   2.797 -23.017  0.00  0.00    +0.072 C 
ATOM     21  C   UNL     1       0.142   1.953 -21.731  0.00  0.00    +0.192 C 
ENDROOT
BRANCH   9  22
ATOM     22  O   UNL     1      -5.545   3.053 -21.544  0.00  0.00    -0.491 OA
ATOM     23  C   UNL     1      -6.691   2.621 -21.831  0.00  0.00    +0.277 C 
ENDBRANCH   9  22
BRANCH  21  24
ATOM     24  O   UNL     1       0.503   1.437 -20.641  0.00  0.00    -0.385 OA
ATOM     25  H   UNL     1       1.319   0.931 -20.778  0.00  0.00    +0.210 HD
ENDBRANCH  21  24
BRANCH   1  26
ATOM     26  O   UNL     1       2.195   1.830 -22.479  0.00  0.00    -0.344 OA
BRANCH  26  27
ATOM     27  C   UNL     1       2.578   0.655 -22.718  0.00  0.00    +0.323 C 
BRANCH  27  29
ATOM     28  C   UNL     1       3.890   0.373 -21.000  0.00  0.00    +0.196 C 
ATOM     29  O   UNL     1       3.011  -0.069 -21.783  0.00  0.00    -0.357 OA
ENDBRANCH  27  29
ENDBRANCH  26  27
ENDBRANCH   1  26
TORSDOF 5
ENDMDL
