MODEL 1
REMARK VINA RESULT:    -8.385      0.000      0.000
REMARK INTER + INTRA:         -11.346
REMARK INTER:                 -10.584
REMARK INTRA:                  -0.762
REMARK UNBOUND:                -0.755
REMARK  Name = ZINC000004042308
REMARK  6 active torsions:
REMARK  status: ('A' for Active; 'I' for Inactive)
REMARK    1  A    between atoms: C_1  and  O_2
REMARK    2  A    between atoms: O_2  and  C_3
REMARK    3  A    between atoms: C_6  and  C_7
REMARK    4  A    between atoms: C_8  and  C_9
REMARK    5  A    between atoms: C_9  and  C_11
REMARK    6  A    between atoms: C_14  and  O_15
REMARK                            x       y       z     vdW  Elec       q    Type
REMARK                         _______ _______ _______ _____ _____    ______ ____
ROOT
ATOM      1  C   UNL     1       0.168   3.385 -24.740  0.00  0.00    +0.012 C 
ATOM      2  C   UNL     1      -0.921   3.992 -24.371  0.00  0.00    +0.052 C 
ENDROOT
BRANCH   1   6
ATOM      3  C   UNL     1       3.586   4.371 -23.142  0.00  0.00    +0.120 A 
ATOM      4  C   UNL     1       2.593   5.209 -23.119  0.00  0.00    +0.046 A 
ATOM      5  C   UNL     1       1.453   4.880 -23.652  0.00  0.00    +0.011 A 
ATOM      6  C   UNL     1       1.308   3.714 -24.207  0.00  0.00    -0.025 A 
ATOM      7  C   UNL     1       2.301   2.876 -24.229  0.00  0.00    +0.011 A 
ATOM      8  C   UNL     1       3.440   3.204 -23.697  0.00  0.00    +0.046 A 
BRANCH   3  10
ATOM      9  C   UNL     1       5.818   4.106 -22.993  0.00  0.00    +0.277 C 
ATOM     10  O   UNL     1       4.726   4.699 -22.609  0.00  0.00    -0.495 OA
ENDBRANCH   3  10
ENDBRANCH   1   6
BRANCH   2  11
ATOM     11  C   UNL     1      -2.061   3.664 -24.903  0.00  0.00    +0.186 C 
ATOM     12  O   UNL     1      -2.132   3.397 -26.174  0.00  0.00    -0.287 OA
BRANCH  11  13
ATOM     13  C   UNL     1      -3.129   3.603 -24.166  0.00  0.00    +0.022 A 
ATOM     14  C   UNL     1      -3.046   3.197 -22.933  0.00  0.00    +0.015 A 
ATOM     15  C   UNL     1      -4.114   3.136 -22.195  0.00  0.00    +0.046 A 
ATOM     16  C   UNL     1      -5.266   3.480 -22.690  0.00  0.00    +0.117 A 
ATOM     17  C   UNL     1      -5.350   3.885 -23.922  0.00  0.00    +0.046 A 
ATOM     18  C   UNL     1      -4.281   3.947 -24.660  0.00  0.00    +0.015 A 
BRANCH  16  19
ATOM     19  O   UNL     1      -6.335   3.419 -21.952  0.00  0.00    -0.507 OA
ATOM     20  H   UNL     1      -6.265   3.198 -21.044  0.00  0.00    +0.292 HD
ENDBRANCH  16  19
ENDBRANCH  11  13
ENDBRANCH   2  11
TORSDOF 5
ENDMDL
