MODEL 1
REMARK VINA RESULT:   -10.040      0.000      0.000
REMARK INTER + INTRA:         -10.040
REMARK INTER:                 -10.040
REMARK INTRA:                   0.000
REMARK UNBOUND:                 0.000
REMARK  Name = C=C1C(=O)O[C@H]2[C@H]1CC/C(C)=C/CC[C@]1(C)O[C@@H]21                  ZINC000100066683
REMARK  2 active torsions:
REMARK  status: ('A' for Active; 'I' for Inactive)
REMARK    1  A    between atoms: C_10  and  C_11
REMARK    2  A    between atoms: C_15  and  C_16
REMARK                            x       y       z     vdW  Elec       q    Type
REMARK                         _______ _______ _______ _____ _____    ______ ____
ROOT
ATOM      1  C   UNL     1       0.559   2.580 -22.987  0.00  0.00    +0.020 C 
ATOM      2  C   UNL     1      -0.238   3.034 -23.922  0.00  0.00    +0.036 C 
ATOM      3  C   UNL     1       0.115   3.384 -25.134  0.00  0.00    +0.335 C 
ATOM      4  O   UNL     1      -0.961   3.785 -25.771  0.00  0.00    -0.455 OA
ATOM      5  C   UNL     1      -1.978   3.683 -24.951  0.00  0.00    +0.216 C 
ATOM      6  C   UNL     1      -3.340   3.982 -25.141  0.00  0.00    +0.192 C 
ATOM      7  O   UNL     1      -4.591   4.281 -25.388  0.00  0.00    -0.361 OA
ATOM      8  C   UNL     1      -4.247   3.822 -24.207  0.00  0.00    +0.097 C 
ATOM      9  C   UNL     1      -3.527   3.362 -23.214  0.00  0.00    +0.044 C 
ATOM     10  C   UNL     1      -5.503   3.845 -23.634  0.00  0.00    +0.041 C 
ATOM     11  C   UNL     1      -5.480   3.454 -22.492  0.00  0.00    +0.030 C 
ATOM     12  C   UNL     1      -4.330   3.197 -22.318  0.00  0.00    -0.028 C 
ATOM     13  C   UNL     1      -3.725   2.768 -21.361  0.00  0.00    -0.077 C 
ATOM     14  C   UNL     1      -4.270   2.476 -20.219  0.00  0.00    +0.039 C 
ATOM     15  C   UNL     1      -2.495   2.662 -21.674  0.00  0.00    +0.031 C 
ATOM     16  C   UNL     1      -2.463   3.079 -22.922  0.00  0.00    +0.016 C 
ATOM     17  O   UNL     1       1.331   3.340 -25.625  0.00  0.00    -0.245 OA
ATOM     18  C   UNL     1      -1.532   3.220 -23.812  0.00  0.00    +0.069 C 
ENDROOT
TORSDOF 0
ENDMDL
