MODEL 1
REMARK VINA RESULT:    -8.851      0.000      0.000
REMARK INTER + INTRA:         -10.981
REMARK INTER:                 -11.308
REMARK INTRA:                   0.327
REMARK UNBOUND:                -0.060
REMARK  Name = ZINC000000689942
REMARK  8 active torsions:
REMARK  status: ('A' for Active; 'I' for Inactive)
REMARK    1  A    between atoms: C_1  and  O_2
REMARK    2  A    between atoms: O_2  and  C_3
REMARK    3  A    between atoms: C_8  and  O_9
REMARK    4  A    between atoms: O_9  and  C_10
REMARK    5  A    between atoms: C_15  and  O_16
REMARK    6  A    between atoms: O_16  and  C_17
REMARK    7  A    between atoms: C_18  and  O_19
REMARK    8  A    between atoms: O_19  and  C_20
REMARK                            x       y       z     vdW  Elec       q    Type
REMARK                         _______ _______ _______ _____ _____    ______ ____
ROOT
ATOM      1  C   UNL     1      -4.349   3.459 -22.636  0.00  0.00    +0.162 A 
ATOM      2  C   UNL     1      -3.898   3.626 -23.843  0.00  0.00    +0.053 A 
ATOM      3  C   UNL     1      -2.631   3.468 -24.091  0.00  0.00    -0.033 A 
ATOM      4  C   UNL     1      -1.817   3.144 -23.131  0.00  0.00    +0.006 A 
ATOM      5  C   UNL     1      -0.550   2.986 -23.380  0.00  0.00    +0.053 A 
ATOM      6  C   UNL     1       0.265   2.662 -22.420  0.00  0.00    +0.035 A 
ATOM      7  C   UNL     1       1.531   2.505 -22.667  0.00  0.00    -0.007 A 
ATOM      8  C   UNL     1       2.346   2.180 -21.708  0.00  0.00    +0.058 A 
ATOM      9  C   UNL     1       3.612   2.023 -21.955  0.00  0.00    +0.162 A 
ATOM     10  C   UNL     1       4.063   2.190 -23.162  0.00  0.00    +0.162 A 
ATOM     11  C   UNL     1       3.249   2.514 -24.122  0.00  0.00    +0.063 A 
ATOM     12  C   UNL     1       1.983   2.671 -23.875  0.00  0.00    +0.050 A 
ATOM     13  C   UNL     1       1.168   2.996 -24.834  0.00  0.00    +0.260 A 
ATOM     14  O   UNL     1       1.620   3.163 -26.042  0.00  0.00    -0.267 OA
ATOM     15  N   UNL     1      -0.098   3.153 -24.587  0.00  0.00    -0.307 N 
ATOM     16  C   UNL     1      -0.913   3.478 -25.546  0.00  0.00    +0.130 C 
ATOM     17  C   UNL     1      -2.268   2.977 -21.924  0.00  0.00    +0.059 A 
ATOM     18  C   UNL     1      -2.179   3.635 -25.299  0.00  0.00    +0.057 C 
ATOM     19  C   UNL     1      -3.534   3.134 -21.677  0.00  0.00    +0.162 A 
ENDROOT
BRANCH   1  21
ATOM     20  C   UNL     1      -6.308   2.636 -21.888  0.00  0.00    +0.277 C 
ATOM     21  O   UNL     1      -5.616   3.616 -22.388  0.00  0.00    -0.491 OA
ENDBRANCH   1  21
BRANCH  10  22
ATOM     22  O   UNL     1       5.330   2.032 -23.411  0.00  0.00    -0.491 OA
ATOM     23  C   UNL     1       6.110   3.069 -23.495  0.00  0.00    +0.277 C 
ENDBRANCH  10  22
BRANCH   9  24
ATOM     24  O   UNL     1       4.427   1.698 -20.996  0.00  0.00    -0.491 OA
ATOM     25  C   UNL     1       4.545   0.454 -20.637  0.00  0.00    +0.277 C 
ENDBRANCH   9  24
BRANCH  19  26
ATOM     26  O   UNL     1      -3.987   2.967 -20.468  0.00  0.00    -0.491 OA
ATOM     27  C   UNL     1      -3.404   3.559 -19.469  0.00  0.00    +0.277 C 
ENDBRANCH  19  26
TORSDOF 4
ENDMDL
