MODEL 1
REMARK VINA RESULT:   -11.744      0.000      0.000
REMARK INTER + INTRA:         -13.303
REMARK INTER:                 -12.858
REMARK INTRA:                  -0.445
REMARK UNBOUND:                -0.186
REMARK  Name = ZINC000005427165
REMARK  4 active torsions:
REMARK  status: ('A' for Active; 'I' for Inactive)
REMARK    1  A    between atoms: C_1  and  C_2
REMARK    2  A    between atoms: C_7  and  C_8
REMARK    3  A    between atoms: C_16  and  C_17
REMARK    4  A    between atoms: C_17  and  N_18
REMARK                            x       y       z     vdW  Elec       q    Type
REMARK                         _______ _______ _______ _____ _____    ______ ____
ROOT
ATOM      1  C   UNL     1      -4.054   2.460 -20.509  0.00  0.00    +0.039 C 
ATOM      2  C   UNL     1      -4.339   2.903 -21.697  0.00  0.00    -0.067 C 
ATOM      3  C   UNL     1      -5.504   3.317 -22.100  0.00  0.00    -0.024 C 
ATOM      4  C   UNL     1      -5.395   3.679 -23.343  0.00  0.00    +0.065 C 
ATOM      5  C   UNL     1      -4.162   3.489 -23.709  0.00  0.00    +0.112 C 
ATOM      6  O   UNL     1      -4.968   3.970 -24.609  0.00  0.00    -0.360 OA
ATOM      7  C   UNL     1      -3.721   3.753 -24.904  0.00  0.00    +0.097 C 
ATOM      8  C   UNL     1      -2.519   3.603 -25.375  0.00  0.00    +0.038 C 
ATOM      9  C   UNL     1      -1.461   3.152 -24.770  0.00  0.00    +0.011 C 
ATOM     10  C   UNL     1      -1.343   2.738 -23.543  0.00  0.00    +0.049 C 
ATOM     11  C   UNL     1      -2.256   2.675 -22.618  0.00  0.00    +0.190 C 
ATOM     12  O   UNL     1      -1.703   2.201 -21.541  0.00  0.00    -0.460 OA
ATOM     13  C   UNL     1      -0.450   1.972 -21.800  0.00  0.00    +0.316 C 
ATOM     14  O   UNL     1       0.427   1.494 -20.967  0.00  0.00    -0.250 OA
ATOM     15  C   UNL     1      -0.229   2.304 -23.037  0.00  0.00    +0.149 C 
ATOM     16  C   UNL     1      -4.025   4.199 -26.087  0.00  0.00    +0.044 C 
ATOM     17  C   UNL     1      -3.510   3.009 -22.692  0.00  0.00    +0.090 C 
ENDROOT
BRANCH  15  18
ATOM     18  C   UNL     1       0.911   2.217 -23.659  0.00  0.00    +0.146 C 
BRANCH  18  19
ATOM     19  N   UNL     1       1.847   3.089 -23.428  0.00  0.00    +0.236 N 
ATOM     20  H   UNL     1       2.813   3.304 -23.184  0.00  0.00    +0.203 HD
ATOM     21  C   UNL     1       3.045   2.689 -23.120  0.00  0.00    +0.131 C 
ATOM     22  C   UNL     1       3.981   3.561 -22.889  0.00  0.00    +0.051 C 
ATOM     23  C   UNL     1       3.719   4.832 -22.965  0.00  0.00    +0.010 C 
ATOM     24  C   UNL     1       2.520   5.231 -23.273  0.00  0.00    +0.051 C 
ATOM     25  C   UNL     1       1.584   4.359 -23.504  0.00  0.00    +0.131 C 
ENDBRANCH  18  19
ENDBRANCH  15  18
TORSDOF 2
ENDMDL
