MODEL 1
REMARK VINA RESULT:    -9.731      0.000      0.000
REMARK INTER + INTRA:         -10.544
REMARK INTER:                 -12.375
REMARK INTRA:                   1.830
REMARK UNBOUND:                 2.885
REMARK  Name = ZINC000001669371
REMARK  11 active torsions:
REMARK  status: ('A' for Active; 'I' for Inactive)
REMARK    1  A    between atoms: C_1  and  O_2
REMARK    2  A    between atoms: O_2  and  C_3
REMARK    3  A    between atoms: C_6  and  C_7
REMARK    4  A    between atoms: C_10  and  O_11
REMARK    5  A    between atoms: C_12  and  C_13
REMARK    6  A    between atoms: C_16  and  O_17
REMARK    7  A    between atoms: O_17  and  C_18
REMARK    8  A    between atoms: C_19  and  O_20
REMARK    9  A    between atoms: O_20  and  C_21
REMARK   10  A    between atoms: C_27  and  O_28
REMARK   11  A    between atoms: O_28  and  C_29
REMARK                            x       y       z     vdW  Elec       q    Type
REMARK                         _______ _______ _______ _____ _____    ______ ____
ROOT
ATOM      1  C   UNL     1       2.661   4.309 -23.239  0.00  0.00    +0.157 C 
ATOM      2  O   UNL     1       2.023   5.440 -23.299  0.00  0.00    -0.369 OA
ATOM      3  C   UNL     1       0.749   5.186 -23.251  0.00  0.00    +0.198 C 
ATOM      4  C   UNL     1       0.599   3.898 -23.160  0.00  0.00    +0.127 C 
ATOM      5  C   UNL     1      -0.281   2.944 -23.075  0.00  0.00    +0.183 C 
ATOM      6  O   UNL     1       0.358   1.814 -23.014  0.00  0.00    -0.369 OA
ATOM      7  C   UNL     1       1.631   2.068 -23.063  0.00  0.00    +0.170 C 
ATOM      8  C   UNL     1       1.782   3.356 -23.153  0.00  0.00    +0.085 C 
ENDROOT
BRANCH   5   9
ATOM      9  C   UNL     1      -1.571   3.096 -23.053  0.00  0.00    -0.012 A 
ATOM     10  C   UNL     1      -2.198   3.171 -21.915  0.00  0.00    +0.010 A 
ATOM     11  C   UNL     1      -3.489   3.322 -21.895  0.00  0.00    +0.050 A 
ATOM     12  C   UNL     1      -4.153   3.399 -23.009  0.00  0.00    +0.162 A 
ATOM     13  C   UNL     1      -3.526   3.325 -24.146  0.00  0.00    +0.162 A 
ATOM     14  C   UNL     1      -2.236   3.173 -24.167  0.00  0.00    +0.055 A 
BRANCH  13  15
ATOM     15  O   UNL     1      -4.190   3.402 -25.261  0.00  0.00    -0.491 OA
ATOM     16  C   UNL     1      -3.557   3.381 -26.396  0.00  0.00    +0.277 C 
ENDBRANCH  13  15
BRANCH  12  17
ATOM     17  O   UNL     1      -5.444   3.551 -22.988  0.00  0.00    -0.491 OA
ATOM     18  C   UNL     1      -6.142   3.040 -22.017  0.00  0.00    +0.277 C 
ENDBRANCH  12  17
ENDBRANCH   5   9
BRANCH   1  22
ATOM     19  C   UNL     1       6.533   3.854 -23.305  0.00  0.00    +0.162 A 
ATOM     20  C   UNL     1       5.759   2.883 -23.688  0.00  0.00    +0.050 A 
ATOM     21  C   UNL     1       4.468   3.034 -23.666  0.00  0.00    +0.010 A 
ATOM     22  C   UNL     1       3.952   4.158 -23.261  0.00  0.00    -0.015 A 
ATOM     23  C   UNL     1       4.727   5.128 -22.878  0.00  0.00    +0.055 A 
ATOM     24  C   UNL     1       6.018   4.977 -22.900  0.00  0.00    +0.162 A 
BRANCH  19  26
ATOM     25  C   UNL     1       8.420   3.359 -24.430  0.00  0.00    +0.277 C 
ATOM     26  O   UNL     1       7.825   3.703 -23.327  0.00  0.00    -0.491 OA
ENDBRANCH  19  26
BRANCH  24  27
ATOM     27  O   UNL     1       6.793   5.948 -22.517  0.00  0.00    -0.491 OA
ATOM     28  C   UNL     1       6.331   6.876 -21.731  0.00  0.00    +0.277 C 
ENDBRANCH  24  27
ENDBRANCH   1  22
BRANCH   4  29
ATOM     29  O   UNL     1      -0.582   4.439 -23.167  0.00  0.00    -0.383 OA
ATOM     30  H   UNL     1      -0.587   5.196 -23.775  0.00  0.00    +0.210 HD
ENDBRANCH   4  29
TORSDOF 7
ENDMDL
