MODEL 1
REMARK VINA RESULT:    -9.754      0.000      0.000
REMARK INTER + INTRA:         -11.927
REMARK INTER:                 -11.463
REMARK INTRA:                  -0.464
REMARK UNBOUND:                -0.463
REMARK  Name = ZINC000018185774
REMARK  5 active torsions:
REMARK  status: ('A' for Active; 'I' for Inactive)
REMARK    1  A    between atoms: C_4  and  C_5
REMARK    2  A    between atoms: C_8  and  O_9
REMARK    3  A    between atoms: C_10  and  O_11
REMARK    4  A    between atoms: C_16  and  O_17
REMARK    5  A    between atoms: C_19  and  O_20
REMARK                            x       y       z     vdW  Elec       q    Type
REMARK                         _______ _______ _______ _____ _____    ______ ____
ROOT
ATOM      1  O   UNL     1      -4.061   2.457 -20.621  0.00  0.00    -0.287 OA
ATOM      2  C   UNL     1      -3.189   2.623 -21.570  0.00  0.00    +0.197 A 
ATOM      3  C   UNL     1      -1.944   2.305 -21.373  0.00  0.00    +0.098 A 
ATOM      4  C   UNL     1      -1.071   2.472 -22.323  0.00  0.00    +0.139 A 
ATOM      5  O   UNL     1      -1.444   2.956 -23.470  0.00  0.00    -0.454 OA
ATOM      6  C   UNL     1      -2.689   3.274 -23.667  0.00  0.00    +0.146 A 
ATOM      7  C   UNL     1      -3.062   3.759 -24.815  0.00  0.00    +0.092 A 
ATOM      8  C   UNL     1      -4.306   4.077 -25.012  0.00  0.00    +0.124 A 
ATOM      9  C   UNL     1      -5.179   3.911 -24.063  0.00  0.00    +0.091 A 
ATOM     10  C   UNL     1      -4.806   3.426 -22.916  0.00  0.00    +0.135 A 
ATOM     11  C   UNL     1      -3.561   3.108 -22.718  0.00  0.00    +0.105 A 
ENDROOT
BRANCH   4  12
ATOM     12  C   UNL     1       0.173   2.153 -22.125  0.00  0.00    +0.021 A 
ATOM     13  C   UNL     1       1.023   2.214 -23.106  0.00  0.00    +0.015 A 
ATOM     14  C   UNL     1       2.268   1.895 -22.908  0.00  0.00    +0.050 A 
ATOM     15  C   UNL     1       2.663   1.517 -21.729  0.00  0.00    +0.158 A 
ATOM     16  C   UNL     1       1.812   1.456 -20.747  0.00  0.00    +0.159 A 
ATOM     17  C   UNL     1       0.568   1.775 -20.945  0.00  0.00    +0.060 A 
BRANCH  16  18
ATOM     18  O   UNL     1       2.207   1.078 -19.568  0.00  0.00    -0.503 OA
ATOM     19  H   UNL     1       1.921   0.257 -19.220  0.00  0.00    +0.292 HD
ENDBRANCH  16  18
BRANCH  15  20
ATOM     20  O   UNL     1       3.907   1.199 -21.532  0.00  0.00    -0.503 OA
ATOM     21  H   UNL     1       4.514   1.213 -22.245  0.00  0.00    +0.292 HD
ENDBRANCH  15  20
ENDBRANCH   4  12
BRANCH  10  22
ATOM     22  O   UNL     1      -5.678   3.260 -21.967  0.00  0.00    -0.506 OA
ATOM     23  H   UNL     1      -5.458   3.483 -21.084  0.00  0.00    +0.292 HD
ENDBRANCH  10  22
BRANCH   8  24
ATOM     24  O   UNL     1      -4.679   4.562 -26.159  0.00  0.00    -0.507 OA
ATOM     25  H   UNL     1      -4.092   4.542 -26.889  0.00  0.00    +0.292 HD
ENDBRANCH   8  24
TORSDOF 5
ENDMDL
