MODEL 1
REMARK VINA RESULT:    -9.740      0.000      0.000
REMARK INTER + INTRA:         -14.708
REMARK INTER:                 -13.745
REMARK INTRA:                  -0.963
REMARK UNBOUND:                -0.981
REMARK  Name = CCCOc1ccc(C(=O)OC[C@@H]2CCC[N@+]3(C)CCCC[C@H]23)cc1                  ZINC000252441460
REMARK  9 active torsions:
REMARK  status: ('A' for Active; 'I' for Inactive)
REMARK    1  A    between atoms: C_1  and  C_2
REMARK    2  A    between atoms: C_2  and  C_3
REMARK    3  A    between atoms: C_3  and  O_4
REMARK    4  A    between atoms: O_4  and  C_5
REMARK    5  A    between atoms: C_8  and  C_9
REMARK    6  A    between atoms: C_9  and  O_11
REMARK    7  A    between atoms: O_11  and  C_12
REMARK    8  A    between atoms: C_12  and  C_13
REMARK    9  A    between atoms: N_17  and  C_18
REMARK                            x       y       z     vdW  Elec       q    Type
REMARK                         _______ _______ _______ _____ _____    ______ ____
ROOT
ATOM      1  O   UNL     1      -0.705   3.298 -25.032  0.00  0.00    -0.461 OA
ENDROOT
BRANCH   1   2
ATOM      2  C   UNL     1       0.594   3.333 -25.044  0.00  0.00    +0.339 C 
ATOM      3  O   UNL     1       1.215   4.201 -25.785  0.00  0.00    -0.245 OA
BRANCH   2   7
ATOM      4  C   UNL     1       2.629   0.829 -22.852  0.00  0.00    +0.121 A 
ATOM      5  C   UNL     1       3.002   1.076 -24.072  0.00  0.00    +0.046 A 
ATOM      6  C   UNL     1       2.324   1.911 -24.803  0.00  0.00    +0.018 A 
ATOM      7  C   UNL     1       1.273   2.498 -24.313  0.00  0.00    +0.059 A 
ATOM      8  C   UNL     1       0.900   2.250 -23.093  0.00  0.00    +0.018 A 
ATOM      9  C   UNL     1       1.578   1.416 -22.362  0.00  0.00    +0.046 A 
BRANCH   4  10
ATOM     10  O   UNL     1       3.307  -0.006 -22.121  0.00  0.00    -0.492 OA
BRANCH  10  11
ATOM     11  C   UNL     1       3.800   0.380 -20.982  0.00  0.00    +0.229 C 
BRANCH  11  13
ATOM     12  C   UNL     1       5.267   2.088 -21.051  0.00  0.00    +0.007 C 
ATOM     13  C   UNL     1       5.022   0.817 -20.918  0.00  0.00    +0.038 C 
ENDBRANCH  11  13
ENDBRANCH  10  11
ENDBRANCH   4  10
ENDBRANCH   2   7
ENDBRANCH   1   2
BRANCH   1  14
ATOM     14  C   UNL     1      -1.375   4.248 -24.450  0.00  0.00    +0.241 C 
BRANCH  14  15
ATOM     15  C   UNL     1      -2.647   4.102 -24.221  0.00  0.00    +0.075 C 
ATOM     16  C   UNL     1      -3.507   4.323 -25.171  0.00  0.00    +0.017 C 
ATOM     17  C   UNL     1      -4.779   4.176 -24.943  0.00  0.00    +0.051 C 
ATOM     18  C   UNL     1      -5.189   3.809 -23.764  0.00  0.00    +0.133 C 
ATOM     19  N   UNL     1      -4.329   3.588 -22.816  0.00  0.00    +0.244 N 
ATOM     20  C   UNL     1      -4.739   3.221 -21.639  0.00  0.00    +0.133 C 
ATOM     21  C   UNL     1      -3.878   3.000 -20.689  0.00  0.00    +0.051 C 
ATOM     22  C   UNL     1      -2.607   3.147 -20.917  0.00  0.00    +0.011 C 
ATOM     23  C   UNL     1      -2.197   3.514 -22.095  0.00  0.00    +0.055 C 
ATOM     24  C   UNL     1      -5.600   3.441 -22.587  0.00  0.00    +0.192 C 
ATOM     25  C   UNL     1      -3.058   3.735 -23.044  0.00  0.00    +0.072 C 
ENDBRANCH  14  15
ENDBRANCH   1  14
TORSDOF 7
ENDMDL
