MODEL 1
REMARK VINA RESULT:   -10.834      0.000      0.000
REMARK INTER + INTRA:         -11.564
REMARK INTER:                 -11.465
REMARK INTRA:                  -0.099
REMARK UNBOUND:                -0.096
REMARK  Name = ZINC000029477722
REMARK  4 active torsions:
REMARK  status: ('A' for Active; 'I' for Inactive)
REMARK    1  A    between atoms: C_1  and  O_2
REMARK    2  A    between atoms: O_2  and  C_3
REMARK    3  A    between atoms: N_12  and  C_13
REMARK    4  A    between atoms: C_17  and  C_18
REMARK                            x       y       z     vdW  Elec       q    Type
REMARK                         _______ _______ _______ _____ _____    ______ ____
ROOT
ATOM      1  C   UNL     1       0.131   3.883 -23.960  0.00  0.00    +0.120 A 
ATOM      2  C   UNL     1      -0.116   3.810 -25.202  0.00  0.00    +0.046 A 
ATOM      3  C   UNL     1      -1.318   3.672 -25.577  0.00  0.00    +0.008 A 
ATOM      4  C   UNL     1      -2.382   3.601 -24.564  0.00  0.00    -0.038 A 
ATOM      5  C   UNL     1      -2.100   3.669 -23.544  0.00  0.00    -0.033 A 
ATOM      6  C   UNL     1      -2.619   3.647 -22.747  0.00  0.00    +0.016 C 
ATOM      7  C   UNL     1      -1.536   3.709 -24.036  0.00  0.00    +0.063 C 
ATOM      8  C   UNL     1      -2.051   3.603 -25.413  0.00  0.00    +0.132 C 
ATOM      9  N   UNL     1      -3.207   3.477 -25.588  0.00  0.00    +0.236 N 
ATOM     10  H   UNL     1      -4.205   3.382 -25.399  0.00  0.00    +0.203 HD
ATOM     11  C   UNL     1      -4.241   3.417 -24.388  0.00  0.00    +0.073 C 
ATOM     12  C   UNL     1      -3.037   3.441 -26.978  0.00  0.00    +0.190 C 
ATOM     13  C   UNL     1      -2.294   3.727 -21.534  0.00  0.00    +0.086 C 
ATOM     14  C   UNL     1      -3.207   3.668 -20.615  0.00  0.00    +0.134 C 
ATOM     15  O   UNL     1      -2.871   3.750 -19.378  0.00  0.00    -0.297 OA
ATOM     16  C   UNL     1      -4.478   3.525 -20.932  0.00  0.00    +0.078 C 
ATOM     17  C   UNL     1      -4.858   3.439 -22.168  0.00  0.00    +0.002 C 
ATOM     18  C   UNL     1      -6.103   3.300 -22.460  0.00  0.00    +0.008 C 
ATOM     19  C   UNL     1      -3.998   3.492 -23.088  0.00  0.00    +0.052 C 
ATOM     20  C   UNL     1      -3.584   3.463 -24.948  0.00  0.00    +0.090 C 
ATOM     21  C   UNL     1      -0.849   3.814 -23.121  0.00  0.00    +0.050 A 
ENDROOT
BRANCH   1  23
ATOM     22  C   UNL     1       2.282   4.840 -23.372  0.00  0.00    +0.277 C 
ATOM     23  O   UNL     1       1.321   4.032 -23.247  0.00  0.00    -0.495 OA
ENDBRANCH   1  23
TORSDOF 1
ENDMDL
