MODEL 1
REMARK VINA RESULT:    -9.829      0.000      0.000
REMARK INTER + INTRA:         -10.116
REMARK INTER:                 -10.116
REMARK INTRA:                   0.000
REMARK UNBOUND:                 0.000
REMARK  Name = ZINC000004644642
REMARK  5 active torsions:
REMARK  status: ('A' for Active; 'I' for Inactive)
REMARK    1  A    between atoms: C_1  and  C_2
REMARK    2  A    between atoms: C_11  and  C_12
REMARK    3  A    between atoms: C_11  and  O_13
REMARK    4  A    between atoms: C_14  and  C_15
REMARK    5  A    between atoms: C_14  and  C_16
REMARK                            x       y       z     vdW  Elec       q    Type
REMARK                         _______ _______ _______ _____ _____    ______ ____
ROOT
ATOM      1  C   UNL     1      -1.454   3.728 -25.505  0.00  0.00    +0.008 C 
ATOM      2  C   UNL     1      -2.635   3.764 -24.965  0.00  0.00    -0.010 C 
ATOM      3  C   UNL     1      -3.714   4.237 -25.517  0.00  0.00    +0.004 C 
ATOM      4  C   UNL     1      -4.691   4.099 -24.671  0.00  0.00    +0.007 C 
ATOM      5  C   UNL     1      -4.218   3.541 -23.596  0.00  0.00    +0.024 C 
ATOM      6  C   UNL     1      -4.943   3.264 -22.554  0.00  0.00    +0.066 C 
ATOM      7  C   UNL     1      -6.050   3.225 -21.875  0.00  0.00    +0.041 C 
ATOM      8  C   UNL     1      -4.576   2.712 -21.436  0.00  0.00    +0.035 C 
ATOM      9  C   UNL     1      -3.394   2.300 -21.084  0.00  0.00    +0.007 C 
ATOM     10  C   UNL     1      -2.287   2.339 -21.763  0.00  0.00    -0.001 C 
ATOM     11  C   UNL     1      -1.098   2.295 -22.287  0.00  0.00    -0.028 C 
ATOM     12  C   UNL     1      -0.137   2.444 -23.150  0.00  0.00    +0.011 C 
ATOM     13  C   UNL     1      -0.442   1.739 -21.312  0.00  0.00    +0.011 C 
ATOM     14  C   UNL     1      -2.088   2.800 -22.962  0.00  0.00    +0.002 C 
ATOM     15  C   UNL     1      -2.947   3.334 -23.778  0.00  0.00    +0.002 C 
ENDROOT
BRANCH   6  16
ATOM     16  O   UNL     1      -5.801   3.799 -23.370  0.00  0.00    -0.389 OA
ATOM     17  H   UNL     1      -5.667   3.440 -24.261  0.00  0.00    +0.210 HD
ENDBRANCH   6  16
TORSDOF 1
ENDMDL
