MODEL 1
REMARK VINA RESULT:    -9.039      0.000      0.000
REMARK INTER + INTRA:         -15.760
REMARK INTER:                 -14.361
REMARK INTRA:                  -1.399
REMARK UNBOUND:                -0.908
REMARK  Name = ZINC000085340970
REMARK  13 active torsions:
REMARK  status: ('A' for Active; 'I' for Inactive)
REMARK    1  A    between atoms: C_1  and  C_2
REMARK    2  A    between atoms: C_2  and  C_3
REMARK    3  A    between atoms: C_3  and  C_4
REMARK    4  A    between atoms: C_4  and  C_5
REMARK    5  A    between atoms: C_5  and  C_6
REMARK    6  A    between atoms: C_6  and  C_7
REMARK    7  A    between atoms: C_7  and  C_8
REMARK    8  A    between atoms: C_8  and  C_9
REMARK    9  A    between atoms: C_9  and  C_10
REMARK   10  A    between atoms: C_10  and  C_11
REMARK   11  A    between atoms: C_11  and  C_12
REMARK   12  A    between atoms: C_13  and  O_14
REMARK   13  A    between atoms: C_15  and  O_16
REMARK                            x       y       z     vdW  Elec       q    Type
REMARK                         _______ _______ _______ _____ _____    ______ ____
ROOT
ATOM      1  C   UNL     1       2.110   3.776 -23.997  0.00  0.00    +0.025 A 
ATOM      2  C   UNL     1       2.219   2.566 -24.460  0.00  0.00    +0.164 A 
ATOM      3  C   UNL     1       3.361   1.949 -24.411  0.00  0.00    +0.161 A 
ATOM      4  C   UNL     1       4.397   2.542 -23.897  0.00  0.00    +0.079 A 
ATOM      5  C   UNL     1       4.292   3.751 -23.433  0.00  0.00    +0.094 A 
ATOM      6  N   UNL     1       5.329   4.343 -22.920  0.00  0.00    -0.243 NA
ATOM      7  C   UNL     1       5.224   5.553 -22.456  0.00  0.00    +0.091 A 
ATOM      8  C   UNL     1       6.260   6.144 -21.943  0.00  0.00    +0.051 A 
ATOM      9  C   UNL     1       6.157   7.354 -21.478  0.00  0.00    +0.061 A 
ATOM     10  C   UNL     1       5.013   7.971 -21.528  0.00  0.00    +0.061 A 
ATOM     11  C   UNL     1       3.976   7.381 -22.041  0.00  0.00    +0.051 A 
ATOM     12 CL   UNL     1       4.908   9.182 -21.063  0.00  0.00    -0.082 Cl
ATOM     13 CL   UNL     1       7.193   7.945 -20.966  0.00  0.00    -0.082 Cl
ATOM     14  C   UNL     1       4.081   6.169 -22.506  0.00  0.00    +0.091 A 
ATOM     15  N   UNL     1       3.043   5.578 -23.019  0.00  0.00    -0.243 NA
ATOM     16  C   UNL     1       3.148   4.369 -23.483  0.00  0.00    +0.097 A 
ENDROOT
BRANCH   2  17
ATOM     17  O   UNL     1       1.181   1.973 -24.974  0.00  0.00    -0.503 OA
ATOM     18  H   UNL     1       1.027   1.065 -24.803  0.00  0.00    +0.292 HD
ENDBRANCH   2  17
BRANCH   3  19
ATOM     19  O   UNL     1       3.467   0.740 -24.874  0.00  0.00    -0.503 OA
ATOM     20  H   UNL     1       3.622   0.025 -24.289  0.00  0.00    +0.292 HD
ENDBRANCH   3  19
BRANCH   1  21
ATOM     21  C   UNL     1       0.969   4.393 -24.046  0.00  0.00    +0.041 C 
BRANCH  21  22
ATOM     22  C   UNL     1       0.104   4.239 -23.087  0.00  0.00    +0.005 C 
BRANCH  22  23
ATOM     23  C   UNL     1      -1.149   4.522 -23.289  0.00  0.00    +0.000 C 
BRANCH  23  24
ATOM     24  C   UNL     1      -1.732   4.144 -24.388  0.00  0.00    +0.000 C 
BRANCH  24  25
ATOM     25  C   UNL     1      -2.994   4.395 -24.574  0.00  0.00    +0.000 C 
BRANCH  25  26
ATOM     26  C   UNL     1      -3.884   3.484 -24.313  0.00  0.00    +0.000 C 
BRANCH  26  27
ATOM     27  C   UNL     1      -4.900   3.767 -23.555  0.00  0.00    -0.000 C 
BRANCH  27  28
ATOM     28  C   UNL     1      -4.790   3.686 -22.262  0.00  0.00    -0.000 C 
BRANCH  28  29
ATOM     29  C   UNL     1      -4.246   2.637 -21.720  0.00  0.00    -0.000 C 
BRANCH  29  31
ATOM     30  C   UNL     1      -3.150   3.900 -20.214  0.00  0.00    +0.004 C 
ATOM     31  C   UNL     1      -3.293   2.775 -20.849  0.00  0.00    -0.003 C 
ENDBRANCH  29  31
ENDBRANCH  28  29
ENDBRANCH  27  28
ENDBRANCH  26  27
ENDBRANCH  25  26
ENDBRANCH  24  25
ENDBRANCH  23  24
ENDBRANCH  22  23
ENDBRANCH  21  22
ENDBRANCH   1  21
TORSDOF 12
ENDMDL
