MODEL 1
REMARK VINA RESULT:   -11.104      0.000      0.000
REMARK INTER + INTRA:         -11.754
REMARK INTER:                 -11.754
REMARK INTRA:                   0.000
REMARK UNBOUND:                 0.000
REMARK  Name = ZINC000017417711
REMARK  3 active torsions:
REMARK  status: ('A' for Active; 'I' for Inactive)
REMARK    1  A    between atoms: C_1  and  C_2
REMARK    2  A    between atoms: C_10  and  O_11
REMARK    3  A    between atoms: C_21  and  O_22
REMARK                            x       y       z     vdW  Elec       q    Type
REMARK                         _______ _______ _______ _____ _____    ______ ____
ROOT
ATOM      1  C   UNL     1       2.762   2.312 -24.786  0.00  0.00    +0.014 C 
ATOM      2  C   UNL     1       2.021   2.057 -23.748  0.00  0.00    -0.003 C 
ATOM      3  C   UNL     1       1.389   2.654 -24.715  0.00  0.00    +0.010 C 
ATOM      4  C   UNL     1       0.127   2.941 -24.586  0.00  0.00    +0.009 C 
ATOM      5  C   UNL     1      -0.502   2.630 -23.492  0.00  0.00    +0.023 C 
ATOM      6  C   UNL     1      -1.764   2.917 -23.363  0.00  0.00    -0.039 A 
ATOM      7  C   UNL     1      -2.395   3.514 -24.330  0.00  0.00    +0.023 A 
ATOM      8  C   UNL     1      -3.657   3.801 -24.202  0.00  0.00    +0.061 A 
ATOM      9  C   UNL     1      -4.287   3.491 -23.107  0.00  0.00    +0.145 A 
ATOM     10  C   UNL     1      -3.654   2.893 -22.141  0.00  0.00    +0.064 A 
ATOM     11 BR   UNL     1      -4.283   2.583 -21.047  0.00  0.00    -0.046 Br
ATOM     12 BR   UNL     1      -4.290   4.398 -25.167  0.00  0.00    -0.046 Br
ATOM     13  C   UNL     1      -2.393   2.607 -22.269  0.00  0.00    -0.026 A 
ATOM     14  C   UNL     1      -1.760   2.009 -21.303  0.00  0.00    +0.037 C 
ATOM     15  C   UNL     1      -0.498   1.723 -21.431  0.00  0.00    +0.009 C 
ATOM     16  C   UNL     1       0.131   2.033 -22.526  0.00  0.00    +0.000 C 
ATOM     17  C   UNL     1       3.255   1.667 -23.626  0.00  0.00    +0.121 C 
ATOM     18  C   UNL     1       3.389   1.116 -22.456  0.00  0.00    +0.032 C 
ATOM     19  C   UNL     1       2.237   1.165 -21.856  0.00  0.00    +0.007 C 
ATOM     20  C   UNL     1       1.392   1.746 -22.654  0.00  0.00    +0.001 C 
ENDROOT
BRANCH   9  21
ATOM     21  O   UNL     1      -5.548   3.777 -22.979  0.00  0.00    -0.505 OA
ATOM     22  H   UNL     1      -6.135   3.637 -23.695  0.00  0.00    +0.292 HD
ENDBRANCH   9  21
BRANCH  17  23
ATOM     23  O   UNL     1       4.191   1.805 -24.517  0.00  0.00    -0.391 OA
ATOM     24  H   UNL     1       3.800   1.776 -25.405  0.00  0.00    +0.210 HD
ENDBRANCH  17  23
TORSDOF 2
ENDMDL
