MODEL 1
REMARK VINA RESULT:    -7.681      0.000      0.000
REMARK INTER + INTRA:          -8.779
REMARK INTER:                  -9.212
REMARK INTRA:                   0.433
REMARK UNBOUND:                 0.473
REMARK  Name = ZINC000006556396
REMARK  8 active torsions:
REMARK  status: ('A' for Active; 'I' for Inactive)
REMARK    1  A    between atoms: C_1  and  O_2
REMARK    2  A    between atoms: O_2  and  C_3
REMARK    3  A    between atoms: C_5  and  O_6
REMARK    4  A    between atoms: C_10  and  O_11
REMARK    5  A    between atoms: O_11  and  C_12
REMARK    6  A    between atoms: C_13  and  C_14
REMARK    7  A    between atoms: C_17  and  O_18
REMARK    8  A    between atoms: O_18  and  C_19
REMARK                            x       y       z     vdW  Elec       q    Type
REMARK                         _______ _______ _______ _____ _____    ______ ____
ROOT
ATOM      1  C   UNL     1      -3.178   3.182 -23.461  0.00  0.00    +0.169 A 
ATOM      2  C   UNL     1      -2.706   3.417 -24.649  0.00  0.00    +0.095 A 
ATOM      3  C   UNL     1      -1.441   3.245 -24.892  0.00  0.00    +0.135 A 
ATOM      4  C   UNL     1      -0.648   2.837 -23.947  0.00  0.00    +0.113 A 
ATOM      5  C   UNL     1       0.618   2.664 -24.189  0.00  0.00    +0.238 A 
ATOM      6  C   UNL     1       1.411   2.256 -23.244  0.00  0.00    +0.205 A 
ATOM      7  C   UNL     1       0.939   2.021 -22.055  0.00  0.00    +0.148 A 
ATOM      8  O   UNL     1      -0.326   2.193 -21.812  0.00  0.00    -0.452 OA
ATOM      9  C   UNL     1       1.733   1.613 -21.110  0.00  0.00    +0.090 C 
ATOM     10  O   UNL     1       1.090   2.899 -25.377  0.00  0.00    -0.283 OA
ATOM     11  C   UNL     1      -1.119   2.601 -22.758  0.00  0.00    +0.188 A 
ATOM     12  C   UNL     1      -2.385   2.774 -22.515  0.00  0.00    +0.205 A 
ENDROOT
BRANCH   1  14
ATOM     13  C   UNL     1      -5.194   3.968 -24.084  0.00  0.00    +0.277 C 
ATOM     14  O   UNL     1      -4.443   3.355 -23.218  0.00  0.00    -0.491 OA
ENDBRANCH   1  14
BRANCH   6  15
ATOM     15  O   UNL     1       2.676   2.083 -23.487  0.00  0.00    -0.489 OA
ATOM     16  C   UNL     1       3.086   0.989 -24.058  0.00  0.00    +0.277 C 
ENDBRANCH   6  15
BRANCH   3  17
ATOM     17  O   UNL     1      -0.969   3.480 -26.081  0.00  0.00    -0.506 OA
ATOM     18  H   UNL     1      -1.189   2.911 -26.792  0.00  0.00    +0.292 HD
ENDBRANCH   3  17
BRANCH  12  19
ATOM     19  O   UNL     1      -2.857   2.539 -21.327  0.00  0.00    -0.488 OA
ATOM     20  C   UNL     1      -2.963   3.507 -20.467  0.00  0.00    +0.277 C 
ENDBRANCH  12  19
TORSDOF 4
ENDMDL
