MODEL 1
REMARK VINA RESULT:    -9.103      0.000      0.000
REMARK INTER + INTRA:         -11.898
REMARK INTER:                 -11.349
REMARK INTRA:                  -0.549
REMARK UNBOUND:                -0.134
REMARK  Name = ZINC000000689938
REMARK  5 active torsions:
REMARK  status: ('A' for Active; 'I' for Inactive)
REMARK    1  A    between atoms: C_11  and  O_12
REMARK    2  A    between atoms: O_12  and  C_13
REMARK    3  A    between atoms: C_13  and  C_14
REMARK    4  A    between atoms: N_23  and  C_24
REMARK    5  A    between atoms: C_24  and  C_25
REMARK                            x       y       z     vdW  Elec       q    Type
REMARK                         _______ _______ _______ _____ _____    ______ ____
ROOT
ATOM      1  O   UNL     1       8.453   6.731 -21.787  0.00  0.00    -0.270 OA
ATOM      2  C   UNL     1       7.194   6.512 -22.030  0.00  0.00    +0.248 C 
ATOM      3  C   UNL     1       6.316   7.442 -21.795  0.00  0.00    +0.044 A 
ATOM      4  C   UNL     1       6.696   8.589 -21.316  0.00  0.00    +0.063 A 
ATOM      5  C   UNL     1       5.818   9.518 -21.081  0.00  0.00    +0.167 A 
ATOM      6  C   UNL     1       4.559   9.299 -21.324  0.00  0.00    +0.167 A 
ATOM      7  O   UNL     1       3.897  10.372 -21.008  0.00  0.00    -0.453 OA
ATOM      8  C   UNL     1       4.746  11.254 -20.569  0.00  0.00    +0.466 C 
ATOM      9  C   UNL     1       4.180   8.153 -21.802  0.00  0.00    +0.054 A 
ATOM     10  O   UNL     1       5.933  10.726 -20.614  0.00  0.00    -0.453 OA
ATOM     11  C   UNL     1       5.057   7.223 -22.038  0.00  0.00    -0.027 A 
ATOM     12  C   UNL     1       4.678   6.075 -22.516  0.00  0.00    +0.043 C 
ATOM     13  C   UNL     1       3.419   5.858 -22.758  0.00  0.00    +0.041 C 
ATOM     14  C   UNL     1       3.039   4.710 -23.237  0.00  0.00    +0.119 C 
ATOM     15  C   UNL     1       3.917   3.780 -23.472  0.00  0.00    +0.033 C 
ATOM     16  C   UNL     1       5.176   3.999 -23.229  0.00  0.00    +0.025 C 
ATOM     17  C   UNL     1       5.556   5.146 -22.751  0.00  0.00    +0.084 C 
ATOM     18  N   UNL     1       6.814   5.365 -22.508  0.00  0.00    -0.290 N 
ENDROOT
BRANCH  14  19
ATOM     19  O   UNL     1       1.781   4.491 -23.480  0.00  0.00    -0.372 OA
BRANCH  19  20
ATOM     20  C   UNL     1       1.335   3.272 -23.551  0.00  0.00    +0.195 C 
BRANCH  20  21
ATOM     21  C   UNL     1       0.305   2.914 -22.842  0.00  0.00    -0.022 A 
ATOM     22  C   UNL     1      -0.803   3.590 -22.919  0.00  0.00    +0.006 A 
ATOM     23  C   UNL     1      -1.833   3.232 -22.210  0.00  0.00    +0.000 A 
ATOM     24  C   UNL     1      -1.754   2.198 -21.426  0.00  0.00    +0.000 A 
ATOM     25  C   UNL     1      -0.646   1.523 -21.349  0.00  0.00    +0.000 A 
ATOM     26  C   UNL     1       0.384   1.881 -22.058  0.00  0.00    +0.006 A 
ENDBRANCH  20  21
ENDBRANCH  19  20
ENDBRANCH  14  19
BRANCH  18  27
ATOM     27  C   UNL     1       7.693   4.436 -22.743  0.00  0.00    +0.143 C 
BRANCH  27  28
ATOM     28  C   UNL     1       8.145   4.259 -23.948  0.00  0.00    -0.030 A 
ATOM     29  C   UNL     1       8.530   3.077 -24.330  0.00  0.00    +0.005 A 
ATOM     30  C   UNL     1       8.983   2.899 -25.536  0.00  0.00    +0.000 A 
ATOM     31  C   UNL     1       9.052   3.902 -26.359  0.00  0.00    +0.000 A 
ATOM     32  C   UNL     1       8.667   5.084 -25.977  0.00  0.00    +0.000 A 
ATOM     33  C   UNL     1       8.214   5.262 -24.771  0.00  0.00    +0.005 A 
ENDBRANCH  27  28
ENDBRANCH  18  27
TORSDOF 5
ENDMDL
