MODEL 1
REMARK VINA RESULT:    -9.154      0.000      0.000
REMARK INTER + INTRA:         -16.678
REMARK INTER:                 -14.119
REMARK INTRA:                  -2.559
REMARK UNBOUND:                -1.637
REMARK  Name = CCCCCCCCCCCc1c2oc3ccc([N+](=O)[O-])cc3[nH]c-2cc(=O)c1=O              ZINC000100392915
REMARK  12 active torsions:
REMARK  status: ('A' for Active; 'I' for Inactive)
REMARK    1  A    between atoms: C_1  and  C_2
REMARK    2  A    between atoms: C_2  and  C_3
REMARK    3  A    between atoms: C_3  and  C_4
REMARK    4  A    between atoms: C_4  and  C_5
REMARK    5  A    between atoms: C_5  and  C_6
REMARK    6  A    between atoms: C_6  and  C_7
REMARK    7  A    between atoms: C_7  and  C_8
REMARK    8  A    between atoms: C_8  and  C_9
REMARK    9  A    between atoms: C_9  and  C_10
REMARK   10  A    between atoms: C_10  and  C_11
REMARK   11  A    between atoms: C_11  and  C_12
REMARK   12  A    between atoms: C_18  and  N_19
REMARK                            x       y       z     vdW  Elec       q    Type
REMARK                         _______ _______ _______ _____ _____    ______ ____
ROOT
ATOM      1  C   UNL     1       2.759   3.388 -24.080  0.00  0.00    +0.047 A 
ATOM      2  C   UNL     1       1.504   3.730 -24.035  0.00  0.00    +0.159 A 
ATOM      3  O   UNL     1       0.601   2.957 -24.561  0.00  0.00    -0.451 OA
ATOM      4  C   UNL     1      -0.653   3.300 -24.516  0.00  0.00    +0.152 A 
ATOM      5  C   UNL     1      -1.558   2.527 -25.041  0.00  0.00    +0.055 A 
ATOM      6  C   UNL     1      -2.811   2.870 -24.996  0.00  0.00    +0.088 A 
ATOM      7  C   UNL     1      -3.161   3.985 -24.426  0.00  0.00    +0.275 A 
ATOM      8  C   UNL     1      -2.255   4.757 -23.901  0.00  0.00    +0.113 A 
ATOM      9  C   UNL     1      -1.003   4.415 -23.946  0.00  0.00    +0.089 A 
ATOM     10  N   UNL     1      -0.099   5.187 -23.421  0.00  0.00    -0.349 N 
ATOM     11  H   UNL     1      -0.364   6.031 -22.990  0.00  0.00    +0.166 HD
ATOM     12  C   UNL     1       1.155   4.845 -23.466  0.00  0.00    +0.087 A 
ATOM     13  C   UNL     1       2.057   5.618 -22.941  0.00  0.00    +0.084 A 
ATOM     14  C   UNL     1       3.312   5.277 -22.984  0.00  0.00    +0.228 A 
ATOM     15  O   UNL     1       4.214   6.050 -22.459  0.00  0.00    -0.284 OA
ATOM     16  C   UNL     1       3.661   4.162 -23.554  0.00  0.00    +0.232 A 
ATOM     17  O   UNL     1       4.915   3.820 -23.598  0.00  0.00    -0.283 OA
ENDROOT
BRANCH   7  18
ATOM     18  N   UNL     1      -4.413   4.328 -24.381  0.00  0.00    +0.080 N 
ATOM     19  O   UNL     1      -5.177   3.875 -23.433  0.00  0.00    -0.576 OA
ATOM     20  O   UNL     1      -4.902   5.123 -25.285  0.00  0.00    +0.041 OA
ENDBRANCH   7  18
BRANCH   1  21
ATOM     21  C   UNL     1       3.107   2.273 -24.650  0.00  0.00    +0.043 C 
BRANCH  21  22
ATOM     22  C   UNL     1       2.786   1.136 -24.107  0.00  0.00    +0.005 C 
BRANCH  22  23
ATOM     23  C   UNL     1       3.406   0.724 -23.041  0.00  0.00    +0.000 C 
BRANCH  23  24
ATOM     24  C   UNL     1       2.742   0.508 -21.945  0.00  0.00    +0.000 C 
BRANCH  24  25
ATOM     25  C   UNL     1       2.335   1.509 -21.222  0.00  0.00    +0.000 C 
BRANCH  25  26
ATOM     26  C   UNL     1       1.157   1.479 -20.673  0.00  0.00    +0.000 C 
BRANCH  26  27
ATOM     27  C   UNL     1       0.092   1.475 -21.419  0.00  0.00    -0.000 C 
BRANCH  27  28
ATOM     28  C   UNL     1      -0.921   2.227 -21.109  0.00  0.00    -0.000 C 
BRANCH  28  29
ATOM     29  C   UNL     1      -2.126   1.861 -21.431  0.00  0.00    -0.000 C 
BRANCH  29  31
ATOM     30  C   UNL     1      -2.962   3.653 -20.354  0.00  0.00    +0.004 C 
ATOM     31  C   UNL     1      -3.142   2.594 -21.087  0.00  0.00    -0.003 C 
ENDBRANCH  29  31
ENDBRANCH  28  29
ENDBRANCH  27  28
ENDBRANCH  26  27
ENDBRANCH  25  26
ENDBRANCH  24  25
ENDBRANCH  23  24
ENDBRANCH  22  23
ENDBRANCH  21  22
ENDBRANCH   1  21
TORSDOF 11
ENDMDL
