MODEL 1
REMARK VINA RESULT:    -8.563      0.000      0.000
REMARK INTER + INTRA:         -10.287
REMARK INTER:                 -12.193
REMARK INTRA:                   1.906
REMARK UNBOUND:                 0.528
REMARK  Name = ZINC000004098020
REMARK  11 active torsions:
REMARK  status: ('A' for Active; 'I' for Inactive)
REMARK    1  A    between atoms: C_1  and  O_2
REMARK    2  A    between atoms: O_2  and  C_3
REMARK    3  A    between atoms: C_5  and  O_6
REMARK    4  A    between atoms: C_7  and  C_8
REMARK    5  A    between atoms: C_9  and  C_10
REMARK    6  A    between atoms: C_12  and  O_13
REMARK    7  A    between atoms: O_13  and  C_14
REMARK    8  A    between atoms: C_16  and  O_17
REMARK    9  A    between atoms: O_17  and  C_18
REMARK   10  A    between atoms: C_25  and  C_26
REMARK   11  A    between atoms: C_28  and  C_29
REMARK                            x       y       z     vdW  Elec       q    Type
REMARK                         _______ _______ _______ _____ _____    ______ ____
ROOT
ATOM      1  C   UNL     1      -3.383   3.393 -24.677  0.00  0.00    +0.132 A 
ATOM      2  C   UNL     1      -2.343   3.139 -25.416  0.00  0.00    +0.092 A 
ATOM      3  C   UNL     1      -1.187   2.929 -24.860  0.00  0.00    +0.128 A 
ATOM      4  C   UNL     1      -1.071   2.972 -23.566  0.00  0.00    +0.028 A 
ATOM      5  C   UNL     1      -2.111   3.226 -22.827  0.00  0.00    -0.019 A 
ATOM      6  C   UNL     1      -1.994   3.269 -21.533  0.00  0.00    +0.090 C 
ATOM      7  C   UNL     1      -3.034   3.523 -20.796  0.00  0.00    +0.064 C 
ATOM      8  C   UNL     1      -2.918   3.566 -19.501  0.00  0.00    +0.064 C 
ATOM      9  N   UNL     1      -4.190   3.733 -21.352  0.00  0.00    +0.235 N 
ATOM     10  H   UNL     1      -4.382   4.711 -21.131  0.00  0.00    +0.202 HD
ATOM     11  H   UNL     1      -4.830   3.033 -20.975  0.00  0.00    +0.202 HD
ATOM     12  C   UNL     1      -4.306   3.690 -22.646  0.00  0.00    +0.095 C 
ATOM     13  C   UNL     1      -5.462   3.900 -23.202  0.00  0.00    +0.069 C 
ATOM     14  C   UNL     1      -3.267   3.436 -23.383  0.00  0.00    +0.045 A 
ENDROOT
BRANCH   4  15
ATOM     15  C   UNL     1       0.085   2.762 -23.009  0.00  0.00    -0.003 A 
ATOM     16  C   UNL     1       0.292   1.671 -22.332  0.00  0.00    -0.039 A 
ATOM     17  C   UNL     1       1.448   1.461 -21.776  0.00  0.00    +0.050 A 
ATOM     18  C   UNL     1       2.397   2.341 -21.897  0.00  0.00    +0.132 A 
ATOM     19  C   UNL     1       2.190   3.431 -22.574  0.00  0.00    +0.066 A 
ATOM     20  C   UNL     1       3.139   4.311 -22.695  0.00  0.00    +0.131 A 
ATOM     21  C   UNL     1       2.934   5.401 -23.372  0.00  0.00    +0.046 A 
ATOM     22  C   UNL     1       1.778   5.612 -23.928  0.00  0.00    +0.004 A 
ATOM     23  C   UNL     1       0.827   4.731 -23.808  0.00  0.00    +0.009 A 
ATOM     24  C   UNL     1      -0.657   0.791 -22.211  0.00  0.00    +0.044 C 
ATOM     25  C   UNL     1       1.034   3.641 -23.130  0.00  0.00    -0.003 A 
BRANCH  20  26
ATOM     26  O   UNL     1       4.295   4.100 -22.139  0.00  0.00    -0.494 OA
ATOM     27  C   UNL     1       5.381   4.530 -22.712  0.00  0.00    +0.277 C 
ENDBRANCH  20  26
BRANCH  18  28
ATOM     28  O   UNL     1       3.553   2.131 -21.341  0.00  0.00    -0.494 OA
ATOM     29  C   UNL     1       3.919   0.920 -21.041  0.00  0.00    +0.277 C 
ENDBRANCH  18  28
ENDBRANCH   4  15
BRANCH   1  31
ATOM     30  C   UNL     1      -4.827   3.038 -26.368  0.00  0.00    +0.277 C 
ATOM     31  O   UNL     1      -4.539   3.603 -25.234  0.00  0.00    -0.495 OA
ENDBRANCH   1  31
BRANCH   3  32
ATOM     32  O   UNL     1      -0.148   2.675 -25.597  0.00  0.00    -0.506 OA
ATOM     33  H   UNL     1      -0.108   2.995 -26.477  0.00  0.00    +0.292 HD
ENDBRANCH   3  32
TORSDOF 5
ENDMDL
