MODEL 1
REMARK VINA RESULT:    -8.862      0.000      0.000
REMARK INTER + INTRA:          -9.707
REMARK INTER:                 -10.204
REMARK INTRA:                   0.497
REMARK UNBOUND:                 0.191
REMARK  Name = ZINC000000338381
REMARK  3 active torsions:
REMARK  status: ('A' for Active; 'I' for Inactive)
REMARK    1  A    between atoms: C_1  and  N_2
REMARK    2  A    between atoms: N_2  and  C_14
REMARK    3  A    between atoms: C_3  and  C_5
REMARK                            x       y       z     vdW  Elec       q    Type
REMARK                         _______ _______ _______ _____ _____    ______ ____
ROOT
ATOM      1  C   UNL     1       0.448   4.194 -23.113  0.00  0.00    +0.138 C 
ATOM      2  N   UNL     1       0.771   2.955 -22.887  0.00  0.00    -0.269 N 
ATOM      3  C   UNL     1      -0.158   2.068 -22.689  0.00  0.00    +0.267 C 
ATOM      4  O   UNL     1       0.164   0.828 -22.463  0.00  0.00    -0.268 OA
ENDROOT
BRANCH   3   5
ATOM      5  C   UNL     1      -1.409   2.418 -22.717  0.00  0.00    +0.103 A 
ATOM      6  C   UNL     1      -2.251   2.328 -21.729  0.00  0.00    +0.040 A 
ATOM      7  C   UNL     1      -3.401   2.775 -22.140  0.00  0.00    +0.000 A 
ATOM      8  C   UNL     1      -4.550   2.896 -21.544  0.00  0.00    +0.010 A 
ATOM      9  C   UNL     1      -5.568   3.382 -22.188  0.00  0.00    +0.001 A 
ATOM     10  C   UNL     1      -5.438   3.749 -23.430  0.00  0.00    +0.002 A 
ATOM     11  C   UNL     1      -4.289   3.627 -24.024  0.00  0.00    +0.026 A 
ATOM     12  C   UNL     1      -3.270   3.141 -23.380  0.00  0.00    +0.047 A 
ATOM     13  N   UNL     1      -2.040   2.920 -23.737  0.00  0.00    -0.351 N 
ATOM     14  H   UNL     1      -1.652   3.102 -24.624  0.00  0.00    +0.166 HD
ENDBRANCH   3   5
BRANCH   2  15
ATOM     15  C   UNL     1       2.023   2.604 -22.859  0.00  0.00    +0.036 A 
ATOM     16  C   UNL     1       2.716   2.587 -23.958  0.00  0.00    +0.023 A 
ATOM     17  C   UNL     1       3.968   2.235 -23.930  0.00  0.00    +0.002 A 
ATOM     18  C   UNL     1       4.525   1.902 -22.804  0.00  0.00    +0.000 A 
ATOM     19  C   UNL     1       3.830   1.921 -21.706  0.00  0.00    +0.002 A 
ATOM     20  C   UNL     1       2.578   2.272 -21.733  0.00  0.00    +0.023 A 
ENDBRANCH   2  15
TORSDOF 2
ENDMDL
