MODEL 1
REMARK VINA RESULT:    -8.764      0.000      0.000
REMARK INTER + INTRA:         -17.688
REMARK INTER:                 -15.265
REMARK INTRA:                  -2.423
REMARK UNBOUND:                -1.751
REMARK  Name = CCCCCCCCCCCC1=C(O)C(=O)C=C(NCCc2ccccc2)C1=O                          ZINC000100393410
REMARK  15 active torsions:
REMARK  status: ('A' for Active; 'I' for Inactive)
REMARK    1  A    between atoms: C_1  and  C_2
REMARK    2  A    between atoms: C_2  and  C_3
REMARK    3  A    between atoms: C_3  and  C_4
REMARK    4  A    between atoms: C_4  and  C_5
REMARK    5  A    between atoms: C_5  and  C_6
REMARK    6  A    between atoms: C_6  and  C_7
REMARK    7  A    between atoms: C_7  and  C_8
REMARK    8  A    between atoms: C_8  and  C_9
REMARK    9  A    between atoms: C_9  and  C_10
REMARK   10  A    between atoms: C_10  and  C_11
REMARK   11  A    between atoms: C_11  and  C_12
REMARK   12  A    between atoms: C_18  and  N_19
REMARK   13  A    between atoms: N_19  and  C_20
REMARK   14  A    between atoms: C_20  and  C_21
REMARK   15  A    between atoms: C_21  and  C_22
REMARK                            x       y       z     vdW  Elec       q    Type
REMARK                         _______ _______ _______ _____ _____    ______ ____
ROOT
ATOM      1  C   UNL     1       3.414   2.989 -23.895  0.00  0.00    -0.008 C 
ATOM      2  C   UNL     1       3.546   4.058 -23.168  0.00  0.00    +0.228 C 
ATOM      3  C   UNL     1       2.673   5.018 -23.258  0.00  0.00    +0.227 C 
ATOM      4  C   UNL     1       1.669   4.908 -24.075  0.00  0.00    +0.076 C 
ATOM      5  C   UNL     1       1.536   3.838 -24.802  0.00  0.00    +0.018 C 
ATOM      6  O   UNL     1       2.806   6.087 -22.531  0.00  0.00    -0.284 OA
ATOM      7  O   UNL     1       4.551   4.168 -22.350  0.00  0.00    -0.284 OA
ATOM      8  C   UNL     1       2.408   2.879 -24.712  0.00  0.00    -0.112 C 
ATOM      9  O   UNL     1       2.276   1.809 -25.439  0.00  0.00    -0.828 OA
ENDROOT
BRANCH   5  10
ATOM     10  N   UNL     1       0.531   3.728 -25.619  0.00  0.00    -0.344 N 
ATOM     11  H   UNL     1       0.690   3.566 -26.577  0.00  0.00    +0.146 HD
BRANCH  10  12
ATOM     12  C   UNL     1      -0.686   3.831 -25.172  0.00  0.00    +0.106 C 
BRANCH  12  13
ATOM     13  C   UNL     1      -1.683   3.433 -25.903  0.00  0.00    +0.054 C 
BRANCH  13  14
ATOM     14  C   UNL     1      -2.902   3.599 -25.485  0.00  0.00    -0.046 A 
ATOM     15  C   UNL     1      -3.895   3.088 -26.153  0.00  0.00    +0.004 A 
ATOM     16  C   UNL     1      -5.114   3.254 -25.733  0.00  0.00    +0.000 A 
ATOM     17  C   UNL     1      -5.342   3.929 -24.647  0.00  0.00    +0.000 A 
ATOM     18  C   UNL     1      -4.351   4.440 -23.979  0.00  0.00    +0.000 A 
ATOM     19  C   UNL     1      -3.131   4.275 -24.397  0.00  0.00    +0.004 A 
ENDBRANCH  13  14
ENDBRANCH  12  13
ENDBRANCH  10  12
ENDBRANCH   5  10
BRANCH   1  20
ATOM     20  C   UNL     1       4.286   2.029 -23.805  0.00  0.00    +0.038 C 
BRANCH  20  21
ATOM     21  C   UNL     1       3.952   0.896 -23.263  0.00  0.00    +0.005 C 
BRANCH  21  22
ATOM     22  C   UNL     1       3.469   0.870 -22.055  0.00  0.00    +0.000 C 
BRANCH  22  23
ATOM     23  C   UNL     1       2.215   0.587 -21.862  0.00  0.00    +0.000 C 
BRANCH  23  24
ATOM     24  C   UNL     1       1.410   1.491 -21.391  0.00  0.00    +0.000 C 
BRANCH  24  25
ATOM     25  C   UNL     1       0.128   1.380 -21.577  0.00  0.00    +0.000 C 
BRANCH  25  26
ATOM     26  C   UNL     1      -0.581   2.433 -21.860  0.00  0.00    -0.000 C 
BRANCH  26  27
ATOM     27  C   UNL     1      -1.855   2.447 -21.603  0.00  0.00    -0.000 C 
BRANCH  27  28
ATOM     28  C   UNL     1      -2.350   3.359 -20.821  0.00  0.00    -0.000 C 
BRANCH  28  30
ATOM     29  C   UNL     1      -4.374   2.378 -20.923  0.00  0.00    +0.004 C 
ATOM     30  C   UNL     1      -3.627   3.383 -20.575  0.00  0.00    -0.003 C 
ENDBRANCH  28  30
ENDBRANCH  27  28
ENDBRANCH  26  27
ENDBRANCH  25  26
ENDBRANCH  24  25
ENDBRANCH  23  24
ENDBRANCH  22  23
ENDBRANCH  21  22
ENDBRANCH  20  21
ENDBRANCH   1  20
TORSDOF 14
ENDMDL
