MODEL 1
REMARK VINA RESULT:   -10.285      0.000      0.000
REMARK INTER + INTRA:         -10.285
REMARK INTER:                 -10.285
REMARK INTRA:                   0.000
REMARK UNBOUND:                 0.000
REMARK  Name = ZINC000000338147
REMARK  0 active torsions:
REMARK  status: ('A' for Active; 'I' for Inactive)
REMARK                            x       y       z     vdW  Elec       q    Type
REMARK                         _______ _______ _______ _____ _____    ______ ____
ROOT
ATOM      1  C   UNL     1       0.130   1.948 -21.434  0.00  0.00    +0.008 A 
ATOM      2  C   UNL     1       1.152   1.962 -22.236  0.00  0.00    +0.050 A 
ATOM      3  C   UNL     1       1.000   2.316 -23.477  0.00  0.00    +0.167 A 
ATOM      4  C   UNL     1      -0.175   2.657 -23.917  0.00  0.00    +0.174 A 
ATOM      5  O   UNL     1      -0.061   2.965 -25.174  0.00  0.00    -0.452 OA
ATOM      6  C   UNL     1       1.185   2.814 -25.513  0.00  0.00    +0.466 C 
ATOM      7  C   UNL     1      -1.198   2.643 -23.114  0.00  0.00    +0.035 A 
ATOM      8  C   UNL     1      -2.374   2.984 -23.553  0.00  0.00    +0.040 A 
ATOM      9  C   UNL     1      -3.396   2.970 -22.750  0.00  0.00    +0.015 A 
ATOM     10  C   UNL     1      -4.572   3.311 -23.190  0.00  0.00    -0.030 A 
ATOM     11  C   UNL     1      -4.724   3.665 -24.431  0.00  0.00    +0.054 A 
ATOM     12  C   UNL     1      -3.701   3.679 -25.233  0.00  0.00    +0.167 A 
ATOM     13  O   UNL     1      -3.587   3.986 -26.491  0.00  0.00    -0.453 OA
ATOM     14  C   UNL     1      -2.341   3.836 -26.830  0.00  0.00    +0.466 C 
ATOM     15  O   UNL     1      -1.685   3.435 -25.781  0.00  0.00    -0.452 OA
ATOM     16  C   UNL     1      -5.595   3.297 -22.387  0.00  0.00    +0.086 C 
ATOM     17  C   UNL     1      -5.442   2.942 -21.145  0.00  0.00    +0.134 C 
ATOM     18  N   UNL     1      -4.266   2.602 -20.707  0.00  0.00    +0.233 N 
ATOM     19  H   UNL     1      -4.376   1.612 -20.485  0.00  0.00    +0.202 HD
ATOM     20  H   UNL     1      -4.045   3.234 -19.937  0.00  0.00    +0.202 HD
ATOM     21  C   UNL     1      -3.243   2.616 -21.509  0.00  0.00    +0.099 C 
ATOM     22  C   UNL     1      -2.068   2.275 -21.070  0.00  0.00    +0.095 C 
ATOM     23  C   UNL     1      -2.527   3.339 -24.795  0.00  0.00    +0.174 A 
ATOM     24  O   UNL     1       1.841   2.414 -24.465  0.00  0.00    -0.453 OA
ATOM     25  C   UNL     1      -1.045   2.289 -21.872  0.00  0.00    -0.030 A 
ENDROOT
TORSDOF 0
ENDMDL
