MODEL 1
REMARK VINA RESULT:   -10.983      0.000      0.000
REMARK INTER + INTRA:         -12.064
REMARK INTER:                 -11.948
REMARK INTRA:                  -0.115
REMARK UNBOUND:                -0.118
REMARK  Name = COc1ccc2c3c1O[C@@H]1[C@H](O)C=C[C@@H]4[C@@H](C2)N(C=O)CC[C@]314      ZINC000253503941
REMARK  3 active torsions:
REMARK  status: ('A' for Active; 'I' for Inactive)
REMARK    1  A    between atoms: C_1  and  O_2
REMARK    2  A    between atoms: O_2  and  C_3
REMARK    3  A    between atoms: C_11  and  O_12
REMARK                            x       y       z     vdW  Elec       q    Type
REMARK                         _______ _______ _______ _____ _____    ______ ____
ROOT
ATOM      1  C   UNL     1       0.849   2.655 -23.971  0.00  0.00    +0.162 A 
ATOM      2  C   UNL     1       0.989   2.181 -22.806  0.00  0.00    +0.050 A 
ATOM      3  C   UNL     1       0.006   2.073 -22.042  0.00  0.00    +0.008 A 
ATOM      4  C   UNL     1      -1.127   2.437 -22.433  0.00  0.00    -0.038 A 
ATOM      5  C   UNL     1      -1.291   2.911 -23.587  0.00  0.00    +0.012 A 
ATOM      6  C   UNL     1      -2.423   3.272 -23.971  0.00  0.00    +0.049 C 
ATOM      7  C   UNL     1      -3.662   3.717 -24.519  0.00  0.00    +0.035 C 
ATOM      8  C   UNL     1      -4.791   3.607 -23.681  0.00  0.00    +0.109 C 
ATOM      9  N   UNL     1      -4.595   3.074 -22.389  0.00  0.00    -0.300 N 
ATOM     10  C   UNL     1      -5.546   2.939 -21.569  0.00  0.00    +0.328 C 
ATOM     11  O   UNL     1      -6.712   3.278 -21.881  0.00  0.00    -0.279 OA
ATOM     12  C   UNL     1      -3.267   2.692 -22.046  0.00  0.00    +0.088 C 
ATOM     13  C   UNL     1      -3.410   3.166 -23.209  0.00  0.00    +0.046 C 
ATOM     14  C   UNL     1      -4.557   3.532 -23.599  0.00  0.00    -0.022 C 
ATOM     15  C   UNL     1      -4.702   4.001 -24.749  0.00  0.00    +0.004 C 
ATOM     16  C   UNL     1      -3.713   4.114 -25.528  0.00  0.00    +0.178 C 
ATOM     17  C   UNL     1      -2.580   3.750 -25.138  0.00  0.00    +0.217 C 
ATOM     18  O   UNL     1      -1.114   3.604 -25.478  0.00  0.00    -0.481 OA
ATOM     19  C   UNL     1      -2.134   2.329 -21.657  0.00  0.00    +0.058 C 
ATOM     20  C   UNL     1      -0.299   3.021 -24.361  0.00  0.00    +0.167 A 
ENDROOT
BRANCH   1  22
ATOM     21  C   UNL     1       2.720   1.876 -24.739  0.00  0.00    +0.277 C 
ATOM     22  O   UNL     1       1.835   2.761 -24.731  0.00  0.00    -0.491 OA
ENDBRANCH   1  22
BRANCH  16  23
ATOM     23  O   UNL     1      -3.864   4.583 -26.676  0.00  0.00    -0.384 OA
ATOM     24  H   UNL     1      -4.793   4.836 -26.802  0.00  0.00    +0.210 HD
ENDBRANCH  16  23
TORSDOF 2
ENDMDL
