MODEL 1
REMARK VINA RESULT:   -11.351      0.000      0.000
REMARK INTER + INTRA:         -16.047
REMARK INTER:                 -13.738
REMARK INTRA:                  -2.309
REMARK UNBOUND:                -0.714
REMARK  Name = ZINC000000689715
REMARK  7 active torsions:
REMARK  status: ('A' for Active; 'I' for Inactive)
REMARK    1  A    between atoms: C_1  and  C_2
REMARK    2  A    between atoms: C_9  and  O_10
REMARK    3  A    between atoms: O_10  and  C_11
REMARK    4  A    between atoms: C_11  and  C_13
REMARK    5  A    between atoms: C_19  and  O_20
REMARK    6  A    between atoms: O_20  and  C_21
REMARK    7  A    between atoms: C_21  and  C_23
REMARK                            x       y       z     vdW  Elec       q    Type
REMARK                         _______ _______ _______ _____ _____    ______ ____
ROOT
ATOM      1  C   UNL     1       3.693   1.343 -20.894  0.00  0.00    +0.045 C 
ATOM      2  C   UNL     1       3.838   2.221 -21.841  0.00  0.00    -0.033 A 
ATOM      3  C   UNL     1       4.990   2.796 -22.025  0.00  0.00    +0.096 A 
ATOM      4  C   UNL     1       5.134   3.674 -22.972  0.00  0.00    +0.337 A 
ATOM      5  O   UNL     1       4.127   3.978 -23.737  0.00  0.00    -0.422 OA
ATOM      6  C   UNL     1       2.975   3.403 -23.553  0.00  0.00    +0.143 A 
ATOM      7  C   UNL     1       1.969   3.707 -24.317  0.00  0.00    +0.097 A 
ATOM      8  C   UNL     1       0.816   3.132 -24.133  0.00  0.00    +0.178 A 
ATOM      9  C   UNL     1       0.672   2.254 -23.186  0.00  0.00    +0.175 A 
ATOM     10  C   UNL     1       1.680   1.950 -22.422  0.00  0.00    +0.062 A 
ATOM     11  O   UNL     1       6.285   4.249 -23.156  0.00  0.00    -0.245 OA
ATOM     12  C   UNL     1       2.831   2.525 -22.605  0.00  0.00    +0.024 A 
ENDROOT
BRANCH   9  13
ATOM     13  O   UNL     1      -0.479   1.680 -23.002  0.00  0.00    -0.419 OA
BRANCH  13  14
ATOM     14  C   UNL     1      -1.006   1.644 -21.814  0.00  0.00    +0.345 C 
ATOM     15  O   UNL     1      -0.487   0.884 -20.896  0.00  0.00    -0.245 OA
BRANCH  14  16
ATOM     16  C   UNL     1      -2.051   2.367 -21.544  0.00  0.00    +0.059 A 
ATOM     17  C   UNL     1      -3.236   1.949 -21.878  0.00  0.00    +0.015 A 
ATOM     18  C   UNL     1      -4.281   2.673 -21.609  0.00  0.00    +0.001 A 
ATOM     19  C   UNL     1      -4.142   3.816 -21.004  0.00  0.00    +0.000 A 
ATOM     20  C   UNL     1      -2.959   4.234 -20.670  0.00  0.00    +0.001 A 
ATOM     21  C   UNL     1      -1.912   3.510 -20.940  0.00  0.00    +0.015 A 
ENDBRANCH  14  16
ENDBRANCH  13  14
ENDBRANCH   9  13
BRANCH   8  22
ATOM     22  O   UNL     1      -0.190   3.436 -24.897  0.00  0.00    -0.418 OA
BRANCH  22  23
ATOM     23  C   UNL     1      -1.119   4.235 -24.462  0.00  0.00    +0.345 C 
ATOM     24  O   UNL     1      -0.809   5.227 -23.682  0.00  0.00    -0.245 OA
BRANCH  23  25
ATOM     25  C   UNL     1      -2.357   4.041 -24.805  0.00  0.00    +0.059 A 
ATOM     26  C   UNL     1      -2.675   3.016 -25.540  0.00  0.00    +0.015 A 
ATOM     27  C   UNL     1      -3.914   2.823 -25.884  0.00  0.00    +0.001 A 
ATOM     28  C   UNL     1      -4.834   3.653 -25.493  0.00  0.00    +0.000 A 
ATOM     29  C   UNL     1      -4.516   4.677 -24.759  0.00  0.00    +0.001 A 
ATOM     30  C   UNL     1      -3.278   4.871 -24.415  0.00  0.00    +0.015 A 
ENDBRANCH  23  25
ENDBRANCH  22  23
ENDBRANCH   8  22
TORSDOF 6
ENDMDL
