MODEL 1
REMARK VINA RESULT:    -8.481      0.000      0.000
REMARK INTER + INTRA:         -10.194
REMARK INTER:                 -11.061
REMARK INTRA:                   0.867
REMARK UNBOUND:                 1.014
REMARK  Name = ZINC000013130920
REMARK  11 active torsions:
REMARK  status: ('A' for Active; 'I' for Inactive)
REMARK    1  A    between atoms: C_1  and  O_2
REMARK    2  A    between atoms: O_2  and  C_3
REMARK    3  A    between atoms: C_12  and  O_13
REMARK    4  A    between atoms: O_13  and  C_14
REMARK    5  A    between atoms: C_15  and  C_16
REMARK    6  A    between atoms: C_16  and  C_17
REMARK    7  A    between atoms: C_17  and  O_18
REMARK    8  A    between atoms: C_17  and  C_19
REMARK    9  A    between atoms: C_19  and  C_20
REMARK   10  A    between atoms: C_19  and  C_21
REMARK   11  A    between atoms: C_19  and  O_22
REMARK                            x       y       z     vdW  Elec       q    Type
REMARK                         _______ _______ _______ _____ _____    ______ ____
ROOT
ATOM      1  C   UNL     1      -1.004   2.351 -22.449  0.00  0.00    +0.130 A 
ATOM      2  C   UNL     1      -0.268   1.515 -21.779  0.00  0.00    +0.093 A 
ATOM      3  C   UNL     1       1.027   1.578 -21.862  0.00  0.00    +0.146 A 
ATOM      4  O   UNL     1       1.763   0.741 -21.192  0.00  0.00    -0.422 OA
ATOM      5  C   UNL     1       3.059   0.805 -21.274  0.00  0.00    +0.337 A 
ATOM      6  C   UNL     1       3.619   1.705 -22.027  0.00  0.00    +0.093 A 
ATOM      7  C   UNL     1       2.883   2.541 -22.697  0.00  0.00    +0.022 A 
ATOM      8  O   UNL     1       3.794  -0.032 -20.604  0.00  0.00    -0.245 OA
ATOM      9  C   UNL     1       1.587   2.478 -22.614  0.00  0.00    +0.060 A 
ATOM     10  C   UNL     1       0.852   3.314 -23.284  0.00  0.00    +0.137 A 
ATOM     11  C   UNL     1      -0.444   3.251 -23.201  0.00  0.00    +0.039 A 
ENDROOT
BRANCH  10  12
ATOM     12  O   UNL     1       1.412   4.214 -24.037  0.00  0.00    -0.494 OA
ATOM     13  C   UNL     1       1.902   5.294 -23.505  0.00  0.00    +0.277 C 
ENDBRANCH  10  12
BRANCH   1  15
ATOM     14  C   UNL     1      -2.895   2.572 -21.245  0.00  0.00    +0.277 C 
ATOM     15  O   UNL     1      -2.300   2.288 -22.366  0.00  0.00    -0.495 OA
ENDBRANCH   1  15
BRANCH  11  16
ATOM     16  C   UNL     1      -1.179   4.088 -23.872  0.00  0.00    +0.076 C 
BRANCH  16  17
ATOM     17  C   UNL     1      -1.653   3.751 -25.035  0.00  0.00    +0.150 C 
BRANCH  17  18
ATOM     18  C   UNL     1      -2.938   3.721 -25.230  0.00  0.00    +0.087 C 
ATOM     19  C   UNL     1      -3.634   4.815 -25.143  0.00  0.00    +0.043 C 
ATOM     20  C   UNL     1      -4.019   3.053 -25.505  0.00  0.00    +0.043 C 
BRANCH  18  21
ATOM     21  O   UNL     1      -2.875   2.440 -25.443  0.00  0.00    -0.387 OA
ATOM     22  H   UNL     1      -3.554   1.990 -24.917  0.00  0.00    +0.210 HD
ENDBRANCH  18  21
ENDBRANCH  17  18
BRANCH  17  23
ATOM     23  O   UNL     1      -0.841   3.445 -26.003  0.00  0.00    -0.389 OA
ATOM     24  H   UNL     1      -0.545   2.528 -25.899  0.00  0.00    +0.210 HD
ENDBRANCH  17  23
ENDBRANCH  16  17
ENDBRANCH  11  16
TORSDOF 7
ENDMDL
