MODEL 1
REMARK VINA RESULT:    -9.594      0.000      0.000
REMARK INTER + INTRA:         -12.180
REMARK INTER:                 -11.432
REMARK INTRA:                  -0.748
REMARK UNBOUND:                 0.218
REMARK  Name = ZINC000000896218
REMARK  8 active torsions:
REMARK  status: ('A' for Active; 'I' for Inactive)
REMARK    1  A    between atoms: C_1  and  O_2
REMARK    2  A    between atoms: O_2  and  C_3
REMARK    3  A    between atoms: C_6  and  C_7
REMARK    4  A    between atoms: C_7  and  C_8
REMARK    5  A    between atoms: C_14  and  O_15
REMARK    6  A    between atoms: O_15  and  C_16
REMARK    7  A    between atoms: C_17  and  O_18
REMARK    8  A    between atoms: C_22  and  O_23
REMARK                            x       y       z     vdW  Elec       q    Type
REMARK                         _______ _______ _______ _____ _____    ______ ____
ROOT
ATOM      1  C   UNL     1       0.907   3.667 -24.152  0.00  0.00    +0.098 C 
ATOM      2  N   UNL     1       0.971   4.963 -24.063  0.00  0.00    +0.233 N 
ATOM      3  H   UNL     1       1.090   5.259 -25.032  0.00  0.00    +0.202 HD
ATOM      4  H   UNL     1       0.125   5.267 -23.580  0.00  0.00    +0.202 HD
ATOM      5  C   UNL     1       1.973   5.525 -23.454  0.00  0.00    +0.134 C 
ATOM      6  C   UNL     1       2.911   4.790 -22.934  0.00  0.00    +0.086 C 
ATOM      7  C   UNL     1       2.848   3.495 -23.023  0.00  0.00    -0.030 A 
ATOM      8  C   UNL     1       3.786   2.761 -22.503  0.00  0.00    +0.053 A 
ATOM      9  C   UNL     1       3.723   1.465 -22.592  0.00  0.00    +0.162 A 
ATOM     10  C   UNL     1       2.720   0.905 -23.201  0.00  0.00    +0.159 A 
ATOM     11  C   UNL     1       1.782   1.638 -23.721  0.00  0.00    +0.058 A 
ATOM     12  C   UNL     1       1.846   2.934 -23.632  0.00  0.00    +0.007 A 
ENDROOT
BRANCH  10  13
ATOM     13  O   UNL     1       2.657  -0.391 -23.290  0.00  0.00    -0.503 OA
ATOM     14  H   UNL     1       2.200  -0.884 -22.637  0.00  0.00    +0.292 HD
ENDBRANCH  10  13
BRANCH   9  15
ATOM     15  O   UNL     1       4.661   0.732 -22.072  0.00  0.00    -0.491 OA
ATOM     16  C   UNL     1       4.770   0.635 -20.780  0.00  0.00    +0.277 C 
ENDBRANCH   9  15
BRANCH   1  17
ATOM     17  C   UNL     1      -0.095   3.107 -24.761  0.00  0.00    +0.094 C 
BRANCH  17  21
ATOM     18  C   UNL     1      -3.732   3.693 -23.483  0.00  0.00    +0.161 A 
ATOM     19  C   UNL     1      -2.942   2.879 -22.847  0.00  0.00    +0.049 A 
ATOM     20  C   UNL     1      -1.730   2.683 -23.273  0.00  0.00    +0.007 A 
ATOM     21  C   UNL     1      -1.307   3.302 -24.335  0.00  0.00    -0.038 A 
ATOM     22  C   UNL     1      -2.096   4.116 -24.971  0.00  0.00    +0.053 A 
ATOM     23  C   UNL     1      -3.308   4.312 -24.545  0.00  0.00    +0.159 A 
BRANCH  18  25
ATOM     24  C   UNL     1      -5.403   3.199 -22.055  0.00  0.00    +0.277 C 
ATOM     25  O   UNL     1      -4.945   3.889 -23.057  0.00  0.00    -0.491 OA
ENDBRANCH  18  25
BRANCH  23  26
ATOM     26  O   UNL     1      -4.098   5.126 -25.181  0.00  0.00    -0.503 OA
ATOM     27  H   UNL     1      -4.896   5.412 -24.782  0.00  0.00    +0.292 HD
ENDBRANCH  23  26
ENDBRANCH  17  21
ENDBRANCH   1  17
TORSDOF 6
ENDMDL
