MODEL 1
REMARK VINA RESULT:   -10.697      0.000      0.000
REMARK INTER + INTRA:         -10.697
REMARK INTER:                 -10.697
REMARK INTRA:                   0.000
REMARK UNBOUND:                 0.000
REMARK  Name = ZINC000003881689
REMARK  3 active torsions:
REMARK  status: ('A' for Active; 'I' for Inactive)
REMARK    1  A    between atoms: C_1  and  C_2
REMARK    2  A    between atoms: C_8  and  C_9
REMARK    3  A    between atoms: C_13  and  C_14
REMARK                            x       y       z     vdW  Elec       q    Type
REMARK                         _______ _______ _______ _____ _____    ______ ____
ROOT
ATOM      1  C   UNL     1      -3.984   2.431 -20.982  0.00  0.00    +0.048 C 
ATOM      2  C   UNL     1      -4.094   2.972 -22.159  0.00  0.00    -0.000 C 
ATOM      3  C   UNL     1      -3.048   3.089 -22.921  0.00  0.00    -0.013 C 
ATOM      4  C   UNL     1      -1.891   2.666 -22.506  0.00  0.00    +0.208 C 
ATOM      5  O   UNL     1      -1.519   2.101 -21.396  0.00  0.00    -0.456 OA
ATOM      6  C   UNL     1      -0.242   1.870 -21.472  0.00  0.00    +0.311 C 
ATOM      7  C   UNL     1       0.176   2.292 -22.629  0.00  0.00    +0.102 C 
ATOM      8  C   UNL     1       1.397   2.232 -23.069  0.00  0.00    +0.019 C 
ATOM      9  O   UNL     1       0.490   1.313 -20.553  0.00  0.00    -0.251 OA
ATOM     10  C   UNL     1      -0.844   2.784 -23.267  0.00  0.00    +0.048 C 
ATOM     11  C   UNL     1      -0.954   3.325 -24.445  0.00  0.00    +0.009 C 
ATOM     12  C   UNL     1      -2.111   3.748 -24.860  0.00  0.00    +0.015 C 
ATOM     13  C   UNL     1      -3.158   3.630 -24.098  0.00  0.00    +0.011 C 
ATOM     14  C   UNL     1      -4.315   4.053 -24.513  0.00  0.00    -0.012 C 
ATOM     15  C   UNL     1      -5.361   3.935 -23.752  0.00  0.00    +0.048 C 
ATOM     16  C   UNL     1      -3.268   4.171 -25.276  0.00  0.00    +0.020 C 
ATOM     17  C   UNL     1      -5.251   3.395 -22.575  0.00  0.00    +0.182 C 
ATOM     18  O   UNL     1      -6.298   3.277 -21.813  0.00  0.00    -0.288 OA
ENDROOT
TORSDOF 0
ENDMDL
