MODEL 1
REMARK VINA RESULT:    -7.303      0.000      0.000
REMARK INTER + INTRA:          -7.730
REMARK INTER:                  -7.730
REMARK INTRA:                   0.000
REMARK UNBOUND:                 0.000
REMARK  Name = ZINC000000057908
REMARK  2 active torsions:
REMARK  status: ('A' for Active; 'I' for Inactive)
REMARK    1  A    between atoms: C_7  and  O_8
REMARK    2  A    between atoms: C_9  and  O_10
REMARK                            x       y       z     vdW  Elec       q    Type
REMARK                         _______ _______ _______ _____ _____    ______ ____
ROOT
ATOM      1  O   UNL     1      -3.304   3.392 -19.844  0.00  0.00    -0.245 OA
ATOM      2  C   UNL     1      -3.555   3.436 -21.119  0.00  0.00    +0.337 A 
ATOM      3  C   UNL     1      -4.783   3.509 -21.537  0.00  0.00    +0.092 A 
ATOM      4  C   UNL     1      -5.034   3.554 -22.812  0.00  0.00    +0.018 A 
ATOM      5  C   UNL     1      -4.057   3.526 -23.668  0.00  0.00    +0.021 A 
ATOM      6  C   UNL     1      -4.307   3.570 -24.943  0.00  0.00    +0.060 A 
ATOM      7  C   UNL     1      -3.330   3.542 -25.799  0.00  0.00    +0.159 A 
ATOM      8  C   UNL     1      -2.101   3.469 -25.381  0.00  0.00    +0.162 A 
ATOM      9  C   UNL     1      -1.850   3.425 -24.106  0.00  0.00    +0.096 A 
ATOM     10  C   UNL     1      -2.828   3.453 -23.249  0.00  0.00    +0.143 A 
ATOM     11  O   UNL     1      -2.577   3.408 -21.975  0.00  0.00    -0.422 OA
ENDROOT
BRANCH   8  12
ATOM     12  O   UNL     1      -1.124   3.441 -26.236  0.00  0.00    -0.503 OA
ATOM     13  H   UNL     1      -1.044   2.724 -26.835  0.00  0.00    +0.292 HD
ENDBRANCH   8  12
BRANCH   7  14
ATOM     14  O   UNL     1      -3.581   3.587 -27.074  0.00  0.00    -0.503 OA
ATOM     15  H   UNL     1      -4.157   2.957 -27.461  0.00  0.00    +0.292 HD
ENDBRANCH   7  14
TORSDOF 2
ENDMDL
