MODEL 1
REMARK VINA RESULT:    -8.617      0.000      0.000
REMARK INTER + INTRA:         -11.404
REMARK INTER:                 -11.930
REMARK INTRA:                   0.526
REMARK UNBOUND:                -0.017
REMARK  Name = ZINC000000338225
REMARK  10 active torsions:
REMARK  status: ('A' for Active; 'I' for Inactive)
REMARK    1  A    between atoms: C_1  and  O_2
REMARK    2  A    between atoms: O_2  and  C_3
REMARK    3  A    between atoms: C_6  and  C_7
REMARK    4  A    between atoms: C_7  and  C_8
REMARK    5  A    between atoms: C_11  and  O_12
REMARK    6  A    between atoms: O_12  and  C_13
REMARK    7  A    between atoms: C_14  and  O_15
REMARK    8  A    between atoms: O_15  and  C_16
REMARK    9  A    between atoms: N_21  and  C_22
REMARK   10  A    between atoms: C_24  and  O_25
REMARK                            x       y       z     vdW  Elec       q    Type
REMARK                         _______ _______ _______ _____ _____    ______ ____
ROOT
ATOM      1  C   UNL     1       0.325   2.240 -23.111  0.00  0.00    +0.100 C 
ATOM      2  C   UNL     1      -0.905   2.607 -23.314  0.00  0.00    +0.008 A 
ATOM      3  C   UNL     1      -1.230   3.203 -24.423  0.00  0.00    +0.058 A 
ATOM      4  C   UNL     1      -2.461   3.570 -24.626  0.00  0.00    +0.162 A 
ATOM      5  C   UNL     1      -3.365   3.342 -23.720  0.00  0.00    +0.162 A 
ATOM      6  C   UNL     1      -3.040   2.747 -22.612  0.00  0.00    +0.053 A 
ATOM      7  C   UNL     1      -1.809   2.379 -22.409  0.00  0.00    -0.030 A 
ATOM      8  C   UNL     1      -1.483   1.783 -21.300  0.00  0.00    +0.086 C 
ATOM      9  C   UNL     1      -0.253   1.416 -21.097  0.00  0.00    +0.136 C 
ATOM     10  N   UNL     1       0.651   1.644 -22.003  0.00  0.00    +0.239 N 
ATOM     11  H   UNL     1       1.619   1.580 -22.319  0.00  0.00    +0.204 HD
ATOM     12  C   UNL     1       1.882   1.276 -21.800  0.00  0.00    +0.191 C 
ENDROOT
BRANCH   5  13
ATOM     13  O   UNL     1      -4.595   3.709 -23.923  0.00  0.00    -0.491 OA
ATOM     14  C   UNL     1      -5.464   3.634 -22.959  0.00  0.00    +0.277 C 
ENDBRANCH   5  13
BRANCH   4  15
ATOM     15  O   UNL     1      -2.787   4.166 -25.734  0.00  0.00    -0.491 OA
ATOM     16  C   UNL     1      -3.031   3.465 -26.802  0.00  0.00    +0.277 C 
ENDBRANCH   4  15
BRANCH   1  17
ATOM     17  C   UNL     1       1.230   2.468 -24.017  0.00  0.00    +0.094 C 
BRANCH  17  21
ATOM     18  C   UNL     1       4.337   4.663 -23.160  0.00  0.00    +0.161 A 
ATOM     19  C   UNL     1       4.499   3.445 -23.584  0.00  0.00    +0.049 A 
ATOM     20  C   UNL     1       3.464   2.713 -23.869  0.00  0.00    +0.007 A 
ATOM     21  C   UNL     1       2.265   3.200 -23.732  0.00  0.00    -0.038 A 
ATOM     22  C   UNL     1       2.104   4.418 -23.308  0.00  0.00    +0.053 A 
ATOM     23  C   UNL     1       3.140   5.150 -23.022  0.00  0.00    +0.159 A 
BRANCH  18  25
ATOM     24  C   UNL     1       6.569   4.965 -23.147  0.00  0.00    +0.277 C 
ATOM     25  O   UNL     1       5.373   5.395 -22.875  0.00  0.00    -0.491 OA
ENDBRANCH  18  25
BRANCH  23  26
ATOM     26  O   UNL     1       2.978   6.368 -22.599  0.00  0.00    -0.503 OA
ATOM     27  H   UNL     1       3.670   6.800 -22.138  0.00  0.00    +0.292 HD
ENDBRANCH  23  26
ENDBRANCH  17  21
ENDBRANCH   1  17
TORSDOF 6
ENDMDL
