MODEL 1
REMARK VINA RESULT:   -10.797      0.000      0.000
REMARK INTER + INTRA:         -11.545
REMARK INTER:                 -11.405
REMARK INTRA:                  -0.140
REMARK UNBOUND:                -0.117
REMARK  Name = ZINC000034349876
REMARK  2 active torsions:
REMARK  status: ('A' for Active; 'I' for Inactive)
REMARK    1  A    between atoms: C_1  and  O_2
REMARK    2  A    between atoms: O_2  and  C_3
REMARK                            x       y       z     vdW  Elec       q    Type
REMARK                         _______ _______ _______ _____ _____    ______ ____
ROOT
ATOM      1  C   UNL     1      -4.131   3.981 -25.060  0.00  0.00    +0.120 A 
ATOM      2  C   UNL     1      -5.222   4.118 -24.433  0.00  0.00    +0.046 A 
ATOM      3  C   UNL     1      -5.282   3.757 -23.222  0.00  0.00    +0.008 A 
ATOM      4  C   UNL     1      -4.090   3.195 -22.590  0.00  0.00    -0.038 A 
ATOM      5  C   UNL     1      -3.208   3.106 -23.166  0.00  0.00    -0.033 A 
ATOM      6  C   UNL     1      -2.345   2.776 -22.956  0.00  0.00    +0.015 C 
ATOM      7  C   UNL     1      -3.826   3.400 -23.504  0.00  0.00    +0.063 C 
ATOM      8  C   UNL     1      -5.004   3.468 -22.570  0.00  0.00    +0.130 C 
ATOM      9  N   UNL     1      -4.861   3.072 -21.444  0.00  0.00    +0.230 N 
ATOM     10  H   UNL     1      -4.953   3.927 -20.896  0.00  0.00    +0.202 HD
ATOM     11  H   UNL     1      -5.550   2.331 -21.310  0.00  0.00    +0.202 HD
ATOM     12  C   UNL     1      -3.481   2.494 -20.947  0.00  0.00    +0.071 C 
ATOM     13  C   UNL     1      -1.293   2.680 -23.676  0.00  0.00    +0.086 C 
ATOM     14  C   UNL     1      -0.203   2.186 -23.164  0.00  0.00    +0.134 C 
ATOM     15  O   UNL     1       0.861   2.089 -23.893  0.00  0.00    -0.297 OA
ATOM     16  C   UNL     1      -0.175   1.782 -21.901  0.00  0.00    +0.075 C 
ATOM     17  C   UNL     1      -1.235   1.865 -21.131  0.00  0.00    +0.017 C 
ATOM     18  C   UNL     1      -2.317   2.341 -21.596  0.00  0.00    +0.049 C 
ATOM     19  C   UNL     1      -4.186   2.866 -21.446  0.00  0.00    +0.090 C 
ATOM     20  C   UNL     1      -3.114   3.476 -24.441  0.00  0.00    +0.050 A 
ENDROOT
BRANCH   1  22
ATOM     21  C   UNL     1      -3.269   3.627 -27.157  0.00  0.00    +0.277 C 
ATOM     22  O   UNL     1      -3.957   4.325 -26.330  0.00  0.00    -0.495 OA
ENDBRANCH   1  22
TORSDOF 1
ENDMDL
