MODEL 1
REMARK VINA RESULT:   -11.561      0.000      0.000
REMARK INTER + INTRA:         -12.133
REMARK INTER:                 -12.013
REMARK INTRA:                  -0.120
REMARK UNBOUND:                 0.104
REMARK  Name = COc1ccc2c3c1O[C@@]1(C)C=C(Cl)C=C4[C@@H](C2)N(C)CC[C@@]431            ZINC000100393562
REMARK  4 active torsions:
REMARK  status: ('A' for Active; 'I' for Inactive)
REMARK    1  A    between atoms: C_1  and  O_2
REMARK    2  A    between atoms: O_2  and  C_3
REMARK    3  A    between atoms: C_10  and  C_11
REMARK    4  A    between atoms: N_19  and  C_20
REMARK                            x       y       z     vdW  Elec       q    Type
REMARK                         _______ _______ _______ _____ _____    ______ ____
ROOT
ATOM      1  C   UNL     1       1.317   1.944 -22.752  0.00  0.00    +0.162 A 
ATOM      2  C   UNL     1       1.174   1.518 -21.569  0.00  0.00    +0.050 A 
ATOM      3  C   UNL     1       0.055   1.562 -21.010  0.00  0.00    +0.008 A 
ATOM      4  C   UNL     1      -0.934   2.030 -21.624  0.00  0.00    -0.034 A 
ATOM      5  C   UNL     1      -0.811   2.459 -22.803  0.00  0.00    +0.016 A 
ATOM      6  C   UNL     1      -1.798   2.925 -23.414  0.00  0.00    +0.074 C 
ATOM      7  C   UNL     1      -2.846   3.476 -24.205  0.00  0.00    +0.071 C 
ATOM      8  C   UNL     1      -4.120   3.538 -23.600  0.00  0.00    +0.133 C 
ATOM      9  N   UNL     1      -4.241   3.055 -22.280  0.00  0.00    +0.239 N 
ATOM     10  H   UNL     1      -5.140   3.078 -21.800  0.00  0.00    +0.204 HD
ATOM     11  C   UNL     1      -5.333   3.073 -21.672  0.00  0.00    +0.191 C 
ATOM     12  C   UNL     1      -3.057   2.544 -21.672  0.00  0.00    +0.096 C 
ATOM     13  C   UNL     1      -2.918   2.970 -22.856  0.00  0.00    -0.006 C 
ATOM     14  C   UNL     1      -3.914   3.442 -23.474  0.00  0.00    +0.025 C 
ATOM     15  C   UNL     1      -3.784   3.865 -24.645  0.00  0.00    +0.041 C 
ATOM     16 CL   UNL     1      -4.771   4.331 -25.253  0.00  0.00    -0.084 Cl
ATOM     17  C   UNL     1      -2.655   3.823 -25.214  0.00  0.00    +0.041 C 
ATOM     18  C   UNL     1      -1.667   3.356 -24.604  0.00  0.00    +0.141 C 
ATOM     19  C   UNL     1      -1.257   3.700 -25.737  0.00  0.00    +0.061 C 
ATOM     20  O   UNL     1      -0.195   3.029 -24.643  0.00  0.00    -0.477 OA
ATOM     21  C   UNL     1      -2.073   2.076 -21.058  0.00  0.00    +0.094 C 
ATOM     22  C   UNL     1       0.316   2.416 -23.371  0.00  0.00    +0.168 A 
ENDROOT
BRANCH   1  24
ATOM     23  C   UNL     1       3.095   0.833 -23.308  0.00  0.00    +0.277 C 
ATOM     24  O   UNL     1       2.437   1.898 -23.308  0.00  0.00    -0.491 OA
ENDBRANCH   1  24
TORSDOF 1
ENDMDL
