MODEL 1
REMARK VINA RESULT:    -9.202      0.000      0.000
REMARK INTER + INTRA:         -10.093
REMARK INTER:                  -9.726
REMARK INTRA:                  -0.368
REMARK UNBOUND:                -0.354
REMARK  Name = ZINC000015207465
REMARK  4 active torsions:
REMARK  status: ('A' for Active; 'I' for Inactive)
REMARK    1  A    between atoms: C_2  and  C_3
REMARK    2  A    between atoms: C_2  and  C_4
REMARK    3  A    between atoms: C_7  and  C_8
REMARK    4  A    between atoms: C_13  and  C_14
REMARK                            x       y       z     vdW  Elec       q    Type
REMARK                         _______ _______ _______ _____ _____    ______ ____
ROOT
ATOM      1  C   UNL     1      -0.813   2.675 -23.007  0.00  0.00    +0.018 C 
ATOM      2  C   UNL     1      -0.856   3.132 -24.223  0.00  0.00    +0.009 C 
ATOM      3  C   UNL     1      -1.982   3.552 -24.720  0.00  0.00    +0.015 C 
ATOM      4  C   UNL     1      -3.064   3.514 -24.000  0.00  0.00    +0.008 C 
ATOM      5  C   UNL     1      -4.189   3.934 -24.498  0.00  0.00    -0.012 C 
ATOM      6  C   UNL     1      -5.272   3.896 -23.778  0.00  0.00    +0.048 C 
ATOM      7  C   UNL     1      -5.227   3.439 -22.562  0.00  0.00    +0.182 C 
ATOM      8  C   UNL     1      -4.102   3.019 -22.066  0.00  0.00    -0.004 C 
ATOM      9  C   UNL     1      -4.059   2.562 -20.850  0.00  0.00    +0.048 C 
ATOM     10  O   UNL     1      -6.310   3.401 -21.843  0.00  0.00    -0.288 OA
ATOM     11  C   UNL     1      -3.107   3.972 -25.216  0.00  0.00    +0.020 C 
ATOM     12  C   UNL     1      -3.020   3.057 -22.784  0.00  0.00    -0.053 C 
ATOM     13  C   UNL     1      -1.895   2.637 -22.288  0.00  0.00    +0.039 C 
ENDROOT
BRANCH   1  15
ATOM     14  C   UNL     1       0.314   1.463 -21.480  0.00  0.00    +0.007 C 
ATOM     15  C   UNL     1       0.313   2.255 -22.511  0.00  0.00    -0.076 C 
ATOM     16  C   UNL     1       1.438   2.628 -23.045  0.00  0.00    +0.039 C 
ENDBRANCH   1  15
TORSDOF 1
ENDMDL
