MODEL 1
REMARK VINA RESULT:    -6.167      0.000      0.000
REMARK INTER + INTRA:          -6.348
REMARK INTER:                  -6.348
REMARK INTRA:                   0.000
REMARK UNBOUND:                 0.000
REMARK  Name = CN1[C@H]2CC[C@@H]1C[C@@H](O)C2                                       ZINC000100019971
REMARK  2 active torsions:
REMARK  status: ('A' for Active; 'I' for Inactive)
REMARK    1  A    between atoms: C_1  and  N_2
REMARK    2  A    between atoms: C_8  and  O_9
REMARK                            x       y       z     vdW  Elec       q    Type
REMARK                         _______ _______ _______ _____ _____    ______ ____
ROOT
ATOM      1  C   UNL     1      -4.166   3.614 -23.710  0.00  0.00    +0.191 C 
ATOM      2  N   UNL     1      -4.009   3.308 -22.997  0.00  0.00    +0.238 N 
ATOM      3  H   UNL     1      -3.807   2.913 -22.078  0.00  0.00    +0.204 HD
ATOM      4  C   UNL     1      -4.850   3.277 -22.444  0.00  0.00    +0.067 C 
ATOM      5  C   UNL     1      -4.346   2.721 -21.273  0.00  0.00    +0.060 C 
ATOM      6  C   UNL     1      -2.997   2.570 -21.633  0.00  0.00    +0.060 C 
ATOM      7  C   UNL     1      -5.522   3.778 -23.382  0.00  0.00    +0.086 C 
ATOM      8  C   UNL     1      -4.363   4.000 -24.611  0.00  0.00    +0.125 C 
ATOM      9  C   UNL     1      -2.823   3.476 -24.102  0.00  0.00    +0.086 C 
ATOM     10  C   UNL     1      -3.033   3.073 -22.929  0.00  0.00    +0.067 C 
ENDROOT
BRANCH   8  11
ATOM     11  O   UNL     1      -4.636   4.535 -25.858  0.00  0.00    -0.391 OA
ATOM     12  H   UNL     1      -3.870   5.045 -26.166  0.00  0.00    +0.210 HD
ENDBRANCH   8  11
TORSDOF 1
ENDMDL
