MODEL 1
REMARK VINA RESULT:   -10.336      0.000      0.000
REMARK INTER + INTRA:         -10.639
REMARK INTER:                 -10.639
REMARK INTRA:                   0.000
REMARK UNBOUND:                 0.000
REMARK  Name = ZINC000001672586
REMARK  4 active torsions:
REMARK  status: ('A' for Active; 'I' for Inactive)
REMARK    1  A    between atoms: C_1  and  C_2
REMARK    2  A    between atoms: C_4  and  O_5
REMARK    3  A    between atoms: C_6  and  C_7
REMARK    4  A    between atoms: C_13  and  C_14
REMARK                            x       y       z     vdW  Elec       q    Type
REMARK                         _______ _______ _______ _____ _____    ______ ____
ROOT
ATOM      1  C   UNL     1      -5.857   3.367 -22.108  0.00  0.00    +0.044 C 
ATOM      2  C   UNL     1      -4.906   3.448 -22.991  0.00  0.00    -0.043 A 
ATOM      3  C   UNL     1      -5.161   3.902 -24.182  0.00  0.00    +0.049 A 
ATOM      4  C   UNL     1      -4.210   3.982 -25.065  0.00  0.00    +0.120 A 
ATOM      5  C   UNL     1      -3.004   3.609 -24.757  0.00  0.00    -0.002 A 
ATOM      6  C   UNL     1      -2.749   3.154 -23.565  0.00  0.00    +0.003 A 
ATOM      7  C   UNL     1      -1.542   2.781 -23.257  0.00  0.00    +0.211 C 
ATOM      8  O   UNL     1      -0.436   2.760 -23.941  0.00  0.00    -0.456 OA
ATOM      9  C   UNL     1       0.503   2.293 -23.172  0.00  0.00    +0.311 C 
ATOM     10  O   UNL     1       1.748   2.124 -23.503  0.00  0.00    -0.251 OA
ATOM     11  C   UNL     1      -0.023   2.025 -22.014  0.00  0.00    +0.102 C 
ATOM     12  C   UNL     1       0.605   1.541 -20.984  0.00  0.00    +0.019 C 
ATOM     13  C   UNL     1      -1.287   2.327 -22.066  0.00  0.00    +0.048 C 
ATOM     14  C   UNL     1      -2.238   2.246 -21.183  0.00  0.00    +0.013 C 
ATOM     15  C   UNL     1      -3.444   2.620 -21.491  0.00  0.00    +0.036 C 
ATOM     16  C   UNL     1      -2.053   3.689 -25.640  0.00  0.00    +0.048 C 
ATOM     17  C   UNL     1      -3.699   3.074 -22.682  0.00  0.00    -0.037 A 
ENDROOT
BRANCH   4  18
ATOM     18  O   UNL     1      -4.466   4.436 -26.256  0.00  0.00    -0.506 OA
ATOM     19  H   UNL     1      -3.847   4.309 -26.948  0.00  0.00    +0.292 HD
ENDBRANCH   4  18
TORSDOF 1
ENDMDL
