MODEL 1
REMARK VINA RESULT:    -9.865      0.000      0.000
REMARK INTER + INTRA:          -9.865
REMARK INTER:                  -9.865
REMARK INTRA:                   0.000
REMARK UNBOUND:                 0.000
REMARK  Name = ZINC000005133859
REMARK  0 active torsions:
REMARK  status: ('A' for Active; 'I' for Inactive)
REMARK                            x       y       z     vdW  Elec       q    Type
REMARK                         _______ _______ _______ _____ _____    ______ ____
ROOT
ATOM      1  C   UNL     1      -1.108   1.983 -21.379  0.00  0.00    -0.013 C 
ATOM      2  C   UNL     1      -0.027   1.969 -22.100  0.00  0.00    -0.025 C 
ATOM      3  C   UNL     1       1.084   1.522 -21.595  0.00  0.00    +0.041 C 
ATOM      4  C   UNL     1       2.167   1.507 -22.315  0.00  0.00    +0.055 C 
ATOM      5  C   UNL     1       2.137   1.939 -23.541  0.00  0.00    +0.130 C 
ATOM      6  N   UNL     1       1.025   2.387 -24.046  0.00  0.00    +0.233 N 
ATOM      7  H   UNL     1       1.219   3.377 -24.199  0.00  0.00    +0.202 HD
ATOM      8  H   UNL     1       0.825   1.816 -24.868  0.00  0.00    +0.202 HD
ATOM      9  C   UNL     1      -0.056   2.401 -23.325  0.00  0.00    +0.097 C 
ATOM     10  C   UNL     1      -1.167   2.848 -23.830  0.00  0.00    +0.088 C 
ATOM     11  C   UNL     1      -2.250   2.863 -23.110  0.00  0.00    +0.027 C 
ATOM     12  C   UNL     1      -2.279   3.295 -24.336  0.00  0.00    +0.141 C 
ATOM     13  N   UNL     1      -3.361   3.309 -23.615  0.00  0.00    +0.238 N 
ATOM     14  H   UNL     1      -4.049   3.700 -24.257  0.00  0.00    +0.204 HD
ATOM     15  C   UNL     1      -4.472   3.756 -24.119  0.00  0.00    +0.131 C 
ATOM     16  C   UNL     1      -5.555   3.771 -23.399  0.00  0.00    +0.051 C 
ATOM     17  C   UNL     1      -5.525   3.338 -22.174  0.00  0.00    +0.011 C 
ATOM     18  C   UNL     1      -4.413   2.891 -21.668  0.00  0.00    +0.055 C 
ATOM     19  C   UNL     1      -3.331   2.877 -22.389  0.00  0.00    +0.071 C 
ATOM     20  C   UNL     1      -2.220   2.430 -21.884  0.00  0.00    +0.061 C 
ENDROOT
TORSDOF 0
ENDMDL
