MODEL 1
REMARK VINA RESULT:   -10.531      0.000      0.000
REMARK INTER + INTRA:         -11.815
REMARK INTER:                 -11.612
REMARK INTRA:                  -0.203
REMARK UNBOUND:                -0.053
REMARK  Name = ZINC000000338367
REMARK  4 active torsions:
REMARK  status: ('A' for Active; 'I' for Inactive)
REMARK    1  A    between atoms: C_1  and  O_2
REMARK    2  A    between atoms: O_2  and  C_3
REMARK    3  A    between atoms: C_8  and  O_9
REMARK    4  A    between atoms: O_9  and  C_10
REMARK                            x       y       z     vdW  Elec       q    Type
REMARK                         _______ _______ _______ _____ _____    ______ ____
ROOT
ATOM      1  C   UNL     1       2.546   1.968 -23.560  0.00  0.00    +0.162 A 
ATOM      2  C   UNL     1       1.983   2.644 -24.517  0.00  0.00    +0.053 A 
ATOM      3  C   UNL     1       0.716   2.929 -24.454  0.00  0.00    -0.033 A 
ATOM      4  C   UNL     1       0.012   2.539 -23.432  0.00  0.00    +0.006 A 
ATOM      5  C   UNL     1      -1.254   2.824 -23.369  0.00  0.00    +0.053 A 
ATOM      6  C   UNL     1      -1.958   2.434 -22.348  0.00  0.00    +0.035 A 
ATOM      7  C   UNL     1      -3.224   2.719 -22.284  0.00  0.00    -0.011 A 
ATOM      8  C   UNL     1      -3.928   2.329 -21.263  0.00  0.00    +0.009 A 
ATOM      9  C   UNL     1      -5.195   2.615 -21.199  0.00  0.00    +0.001 A 
ATOM     10  C   UNL     1      -5.758   3.290 -22.156  0.00  0.00    +0.001 A 
ATOM     11  C   UNL     1      -5.054   3.681 -23.177  0.00  0.00    +0.014 A 
ATOM     12  C   UNL     1      -3.787   3.395 -23.241  0.00  0.00    +0.047 A 
ATOM     13  C   UNL     1      -3.084   3.785 -24.262  0.00  0.00    +0.259 A 
ATOM     14  O   UNL     1      -3.647   4.461 -25.219  0.00  0.00    -0.267 OA
ATOM     15  N   UNL     1      -1.818   3.500 -24.326  0.00  0.00    -0.307 N 
ATOM     16  C   UNL     1      -1.113   3.890 -25.347  0.00  0.00    +0.130 C 
ATOM     17  C   UNL     1       0.575   1.863 -22.475  0.00  0.00    +0.059 A 
ATOM     18  C   UNL     1       0.153   3.605 -25.411  0.00  0.00    +0.057 C 
ATOM     19  C   UNL     1       1.842   1.577 -22.539  0.00  0.00    +0.162 A 
ENDROOT
BRANCH   1  21
ATOM     20  C   UNL     1       4.695   2.637 -23.618  0.00  0.00    +0.277 C 
ATOM     21  O   UNL     1       3.812   1.683 -23.624  0.00  0.00    -0.491 OA
ENDBRANCH   1  21
BRANCH  19  22
ATOM     22  O   UNL     1       2.405   0.902 -21.582  0.00  0.00    -0.491 OA
ATOM     23  C   UNL     1       2.681   1.482 -20.452  0.00  0.00    +0.277 C 
ENDBRANCH  19  22
TORSDOF 2
ENDMDL
MODEL 2
REMARK VINA RESULT:    -9.495      1.639      6.171
REMARK INTER + INTRA:         -10.658
REMARK INTER:                 -10.446
REMARK INTRA:                  -0.212
REMARK UNBOUND:                -0.053
REMARK  Name = ZINC000000338367
REMARK  4 active torsions:
REMARK  status: ('A' for Active; 'I' for Inactive)
REMARK    1  A    between atoms: C_1  and  O_2
REMARK    2  A    between atoms: O_2  and  C_3
REMARK    3  A    between atoms: C_8  and  O_9
REMARK    4  A    between atoms: O_9  and  C_10
REMARK                            x       y       z     vdW  Elec       q    Type
REMARK                         _______ _______ _______ _____ _____    ______ ____
ROOT
ATOM      1  C   UNL     1      -3.329   3.417 -23.105  0.00  0.00    +0.162 A 
ATOM      2  C   UNL     1      -2.588   3.555 -24.165  0.00  0.00    +0.053 A 
ATOM      3  C   UNL     1      -1.338   3.198 -24.135  0.00  0.00    -0.033 A 
ATOM      4  C   UNL     1      -0.830   2.703 -23.046  0.00  0.00    +0.006 A 
ATOM      5  C   UNL     1       0.420   2.346 -23.016  0.00  0.00    +0.053 A 
ATOM      6  C   UNL     1       0.929   1.852 -21.927  0.00  0.00    +0.035 A 
ATOM      7  C   UNL     1       2.178   1.495 -21.897  0.00  0.00    -0.011 A 
ATOM      8  C   UNL     1       2.688   1.000 -20.808  0.00  0.00    +0.009 A 
ATOM      9  C   UNL     1       3.937   0.643 -20.778  0.00  0.00    +0.001 A 
ATOM     10  C   UNL     1       4.678   0.781 -21.837  0.00  0.00    +0.001 A 
ATOM     11  C   UNL     1       4.169   1.276 -22.926  0.00  0.00    +0.014 A 
ATOM     12  C   UNL     1       2.919   1.633 -22.956  0.00  0.00    +0.047 A 
ATOM     13  C   UNL     1       2.411   2.127 -24.045  0.00  0.00    +0.259 A 
ATOM     14  O   UNL     1       3.151   2.265 -25.105  0.00  0.00    -0.267 OA
ATOM     15  N   UNL     1       1.161   2.484 -24.075  0.00  0.00    -0.307 N 
ATOM     16  C   UNL     1       0.652   2.979 -25.164  0.00  0.00    +0.130 C 
ATOM     17  C   UNL     1      -1.570   2.565 -21.986  0.00  0.00    +0.059 A 
ATOM     18  C   UNL     1      -0.597   3.336 -25.194  0.00  0.00    +0.057 C 
ATOM     19  C   UNL     1      -2.820   2.922 -22.016  0.00  0.00    +0.162 A 
ENDROOT
BRANCH   1  21
ATOM     20  C   UNL     1      -5.128   4.123 -24.260  0.00  0.00    +0.277 C 
ATOM     21  O   UNL     1      -4.578   3.774 -23.135  0.00  0.00    -0.491 OA
ENDBRANCH   1  21
BRANCH  19  22
ATOM     22  O   UNL     1      -3.561   2.784 -20.957  0.00  0.00    -0.491 OA
ATOM     23  C   UNL     1      -3.293   3.466 -19.883  0.00  0.00    +0.277 C 
ENDBRANCH  19  22
TORSDOF 2
ENDMDL
MODEL 3
REMARK VINA RESULT:    -9.361      1.594      3.215
REMARK INTER + INTRA:         -10.509
REMARK INTER:                 -10.633
REMARK INTRA:                   0.124
REMARK UNBOUND:                -0.053
REMARK  Name = ZINC000000338367
REMARK  4 active torsions:
REMARK  status: ('A' for Active; 'I' for Inactive)
REMARK    1  A    between atoms: C_1  and  O_2
REMARK    2  A    between atoms: O_2  and  C_3
REMARK    3  A    between atoms: C_8  and  O_9
REMARK    4  A    between atoms: O_9  and  C_10
REMARK                            x       y       z     vdW  Elec       q    Type
REMARK                         _______ _______ _______ _____ _____    ______ ____
ROOT
ATOM      1  C   UNL     1       2.899   1.505 -22.033  0.00  0.00    +0.162 A 
ATOM      2  C   UNL     1       1.886   1.439 -21.221  0.00  0.00    +0.053 A 
ATOM      3  C   UNL     1       0.696   1.758 -21.639  0.00  0.00    -0.033 A 
ATOM      4  C   UNL     1       0.521   2.143 -22.868  0.00  0.00    +0.006 A 
ATOM      5  C   UNL     1      -0.668   2.462 -23.286  0.00  0.00    +0.053 A 
ATOM      6  C   UNL     1      -0.844   2.847 -24.515  0.00  0.00    +0.035 A 
ATOM      7  C   UNL     1      -2.033   3.166 -24.933  0.00  0.00    -0.011 A 
ATOM      8  C   UNL     1      -2.209   3.551 -26.162  0.00  0.00    +0.009 A 
ATOM      9  C   UNL     1      -3.398   3.870 -26.580  0.00  0.00    +0.001 A 
ATOM     10  C   UNL     1      -4.411   3.803 -25.768  0.00  0.00    +0.001 A 
ATOM     11  C   UNL     1      -4.236   3.418 -24.539  0.00  0.00    +0.014 A 
ATOM     12  C   UNL     1      -3.046   3.099 -24.121  0.00  0.00    +0.047 A 
ATOM     13  C   UNL     1      -2.871   2.714 -22.892  0.00  0.00    +0.259 A 
ATOM     14  O   UNL     1      -3.884   2.647 -22.081  0.00  0.00    -0.267 OA
ATOM     15  N   UNL     1      -1.682   2.395 -22.474  0.00  0.00    -0.307 N 
ATOM     16  C   UNL     1      -1.506   2.010 -21.245  0.00  0.00    +0.130 C 
ATOM     17  C   UNL     1       1.534   2.209 -23.680  0.00  0.00    +0.059 A 
ATOM     18  C   UNL     1      -0.317   1.691 -20.828  0.00  0.00    +0.057 C 
ATOM     19  C   UNL     1       2.724   1.891 -23.262  0.00  0.00    +0.162 A 
ENDROOT
BRANCH   1  21
ATOM     20  C   UNL     1       4.234   0.262 -20.713  0.00  0.00    +0.277 C 
ATOM     21  O   UNL     1       4.088   1.187 -21.615  0.00  0.00    -0.491 OA
ENDBRANCH   1  21
BRANCH  19  22
ATOM     22  O   UNL     1       3.737   1.957 -24.074  0.00  0.00    -0.491 OA
ATOM     23  C   UNL     1       4.591   2.931 -23.968  0.00  0.00    +0.277 C 
ENDBRANCH  19  22
TORSDOF 2
ENDMDL
MODEL 4
REMARK VINA RESULT:    -9.004      1.546      6.757
REMARK INTER + INTRA:         -10.110
REMARK INTER:                  -9.949
REMARK INTRA:                  -0.162
REMARK UNBOUND:                -0.053
REMARK  Name = ZINC000000338367
REMARK  4 active torsions:
REMARK  status: ('A' for Active; 'I' for Inactive)
REMARK    1  A    between atoms: C_1  and  O_2
REMARK    2  A    between atoms: O_2  and  C_3
REMARK    3  A    between atoms: C_8  and  O_9
REMARK    4  A    between atoms: O_9  and  C_10
REMARK                            x       y       z     vdW  Elec       q    Type
REMARK                         _______ _______ _______ _____ _____    ______ ____
ROOT
ATOM      1  C   UNL     1      -3.732   3.484 -23.933  0.00  0.00    +0.162 A 
ATOM      2  C   UNL     1      -3.470   2.968 -22.769  0.00  0.00    +0.053 A 
ATOM      3  C   UNL     1      -2.246   2.660 -22.455  0.00  0.00    -0.033 A 
ATOM      4  C   UNL     1      -1.285   2.868 -23.306  0.00  0.00    +0.006 A 
ATOM      5  C   UNL     1      -0.062   2.559 -22.993  0.00  0.00    +0.053 A 
ATOM      6  C   UNL     1       0.899   2.767 -23.843  0.00  0.00    +0.035 A 
ATOM      7  C   UNL     1       2.122   2.459 -23.530  0.00  0.00    -0.011 A 
ATOM      8  C   UNL     1       3.083   2.666 -24.380  0.00  0.00    +0.009 A 
ATOM      9  C   UNL     1       4.307   2.358 -24.067  0.00  0.00    +0.001 A 
ATOM     10  C   UNL     1       4.569   1.842 -22.903  0.00  0.00    +0.001 A 
ATOM     11  C   UNL     1       3.608   1.634 -22.053  0.00  0.00    +0.014 A 
ATOM     12  C   UNL     1       2.385   1.943 -22.366  0.00  0.00    +0.047 A 
ATOM     13  C   UNL     1       1.424   1.735 -21.515  0.00  0.00    +0.259 A 
ATOM     14  O   UNL     1       1.686   1.219 -20.352  0.00  0.00    -0.267 OA
ATOM     15  N   UNL     1       0.201   2.043 -21.828  0.00  0.00    -0.307 N 
ATOM     16  C   UNL     1      -0.761   1.835 -20.978  0.00  0.00    +0.130 C 
ATOM     17  C   UNL     1      -1.548   3.384 -24.470  0.00  0.00    +0.059 A 
ATOM     18  C   UNL     1      -1.984   2.144 -21.291  0.00  0.00    +0.057 C 
ATOM     19  C   UNL     1      -2.771   3.692 -24.783  0.00  0.00    +0.162 A 
ENDROOT
BRANCH   1  21
ATOM     20  C   UNL     1      -5.884   3.773 -23.337  0.00  0.00    +0.277 C 
ATOM     21  O   UNL     1      -4.955   3.792 -24.246  0.00  0.00    -0.491 OA
ENDBRANCH   1  21
BRANCH  19  22
ATOM     22  O   UNL     1      -3.034   4.208 -25.947  0.00  0.00    -0.491 OA
ATOM     23  C   UNL     1      -3.062   3.450 -27.002  0.00  0.00    +0.277 C 
ENDBRANCH  19  22
TORSDOF 2
ENDMDL
MODEL 5
REMARK VINA RESULT:    -8.467      3.678      5.405
REMARK INTER + INTRA:          -9.510
REMARK INTER:                  -9.310
REMARK INTRA:                  -0.200
REMARK UNBOUND:                -0.053
REMARK  Name = ZINC000000338367
REMARK  4 active torsions:
REMARK  status: ('A' for Active; 'I' for Inactive)
REMARK    1  A    between atoms: C_1  and  O_2
REMARK    2  A    between atoms: O_2  and  C_3
REMARK    3  A    between atoms: C_8  and  O_9
REMARK    4  A    between atoms: O_9  and  C_10
REMARK                            x       y       z     vdW  Elec       q    Type
REMARK                         _______ _______ _______ _____ _____    ______ ____
ROOT
ATOM      1  C   UNL     1       5.939   6.530 -22.160  0.00  0.00    +0.162 A 
ATOM      2  C   UNL     1       6.009   5.319 -22.629  0.00  0.00    +0.053 A 
ATOM      3  C   UNL     1       4.926   4.698 -22.993  0.00  0.00    -0.033 A 
ATOM      4  C   UNL     1       3.773   5.289 -22.888  0.00  0.00    +0.006 A 
ATOM      5  C   UNL     1       2.690   4.669 -23.252  0.00  0.00    +0.053 A 
ATOM      6  C   UNL     1       1.537   5.258 -23.148  0.00  0.00    +0.035 A 
ATOM      7  C   UNL     1       0.454   4.638 -23.512  0.00  0.00    -0.011 A 
ATOM      8  C   UNL     1      -0.700   5.228 -23.408  0.00  0.00    +0.009 A 
ATOM      9  C   UNL     1      -1.783   4.608 -23.772  0.00  0.00    +0.001 A 
ATOM     10  C   UNL     1      -1.712   3.397 -24.240  0.00  0.00    +0.001 A 
ATOM     11  C   UNL     1      -0.558   2.807 -24.345  0.00  0.00    +0.014 A 
ATOM     12  C   UNL     1       0.525   3.428 -23.980  0.00  0.00    +0.047 A 
ATOM     13  C   UNL     1       1.678   2.837 -24.085  0.00  0.00    +0.259 A 
ATOM     14  O   UNL     1       1.749   1.627 -24.553  0.00  0.00    -0.267 OA
ATOM     15  N   UNL     1       2.761   3.457 -23.721  0.00  0.00    -0.307 N 
ATOM     16  C   UNL     1       3.915   2.868 -23.825  0.00  0.00    +0.130 C 
ATOM     17  C   UNL     1       3.702   6.499 -22.420  0.00  0.00    +0.059 A 
ATOM     18  C   UNL     1       4.997   3.488 -23.461  0.00  0.00    +0.057 C 
ATOM     19  C   UNL     1       4.785   7.120 -22.056  0.00  0.00    +0.162 A 
ENDROOT
BRANCH   1  21
ATOM     20  C   UNL     1       7.723   6.703 -20.798  0.00  0.00    +0.277 C 
ATOM     21  O   UNL     1       7.021   7.150 -21.797  0.00  0.00    -0.491 OA
ENDBRANCH   1  21
BRANCH  19  22
ATOM     22  O   UNL     1       4.714   8.331 -21.588  0.00  0.00    -0.491 OA
ATOM     23  C   UNL     1       4.296   8.534 -20.375  0.00  0.00    +0.277 C 
ENDBRANCH  19  22
TORSDOF 2
ENDMDL
MODEL 6
REMARK VINA RESULT:    -8.333      2.613      4.596
REMARK INTER + INTRA:          -9.360
REMARK INTER:                  -9.326
REMARK INTRA:                  -0.034
REMARK UNBOUND:                -0.053
REMARK  Name = ZINC000000338367
REMARK  4 active torsions:
REMARK  status: ('A' for Active; 'I' for Inactive)
REMARK    1  A    between atoms: C_1  and  O_2
REMARK    2  A    between atoms: O_2  and  C_3
REMARK    3  A    between atoms: C_8  and  O_9
REMARK    4  A    between atoms: O_9  and  C_10
REMARK                            x       y       z     vdW  Elec       q    Type
REMARK                         _______ _______ _______ _____ _____    ______ ____
ROOT
ATOM      1  C   UNL     1       6.263   3.303 -22.683  0.00  0.00    +0.162 A 
ATOM      2  C   UNL     1       5.681   2.167 -22.437  0.00  0.00    +0.053 A 
ATOM      3  C   UNL     1       4.385   2.077 -22.484  0.00  0.00    -0.033 A 
ATOM      4  C   UNL     1       3.671   3.124 -22.775  0.00  0.00    +0.006 A 
ATOM      5  C   UNL     1       2.376   3.035 -22.822  0.00  0.00    +0.053 A 
ATOM      6  C   UNL     1       1.662   4.082 -23.114  0.00  0.00    +0.035 A 
ATOM      7  C   UNL     1       0.366   3.993 -23.160  0.00  0.00    -0.011 A 
ATOM      8  C   UNL     1      -0.348   5.039 -23.452  0.00  0.00    +0.009 A 
ATOM      9  C   UNL     1      -1.644   4.950 -23.499  0.00  0.00    +0.001 A 
ATOM     10  C   UNL     1      -2.226   3.815 -23.253  0.00  0.00    +0.001 A 
ATOM     11  C   UNL     1      -1.513   2.768 -22.961  0.00  0.00    +0.014 A 
ATOM     12  C   UNL     1      -0.217   2.857 -22.915  0.00  0.00    +0.047 A 
ATOM     13  C   UNL     1       0.497   1.810 -22.623  0.00  0.00    +0.259 A 
ATOM     14  O   UNL     1      -0.086   0.674 -22.377  0.00  0.00    -0.267 OA
ATOM     15  N   UNL     1       1.792   1.899 -22.576  0.00  0.00    -0.307 N 
ATOM     16  C   UNL     1       2.506   0.853 -22.284  0.00  0.00    +0.130 C 
ATOM     17  C   UNL     1       4.254   4.260 -23.021  0.00  0.00    +0.059 A 
ATOM     18  C   UNL     1       3.802   0.942 -22.238  0.00  0.00    +0.057 C 
ATOM     19  C   UNL     1       5.550   4.350 -22.975  0.00  0.00    +0.162 A 
ENDROOT
BRANCH   1  21
ATOM     20  C   UNL     1       8.269   3.107 -23.687  0.00  0.00    +0.277 C 
ATOM     21  O   UNL     1       7.559   3.392 -22.636  0.00  0.00    -0.491 OA
ENDBRANCH   1  21
BRANCH  19  22
ATOM     22  O   UNL     1       6.133   5.486 -23.220  0.00  0.00    -0.491 OA
ATOM     23  C   UNL     1       6.217   6.387 -22.288  0.00  0.00    +0.277 C 
ENDBRANCH  19  22
TORSDOF 2
ENDMDL
MODEL 7
REMARK VINA RESULT:    -8.178      2.132      6.541
REMARK INTER + INTRA:          -9.187
REMARK INTER:                  -9.135
REMARK INTRA:                  -0.053
REMARK UNBOUND:                -0.053
REMARK  Name = ZINC000000338367
REMARK  4 active torsions:
REMARK  status: ('A' for Active; 'I' for Inactive)
REMARK    1  A    between atoms: C_1  and  O_2
REMARK    2  A    between atoms: O_2  and  C_3
REMARK    3  A    between atoms: C_8  and  O_9
REMARK    4  A    between atoms: O_9  and  C_10
REMARK                            x       y       z     vdW  Elec       q    Type
REMARK                         _______ _______ _______ _____ _____    ______ ____
ROOT
ATOM      1  C   UNL     1      -1.756   4.110 -23.470  0.00  0.00    +0.162 A 
ATOM      2  C   UNL     1      -0.738   4.822 -23.855  0.00  0.00    +0.053 A 
ATOM      3  C   UNL     1       0.469   4.451 -23.545  0.00  0.00    -0.033 A 
ATOM      4  C   UNL     1       0.658   3.369 -22.850  0.00  0.00    +0.006 A 
ATOM      5  C   UNL     1       1.864   2.998 -22.540  0.00  0.00    +0.053 A 
ATOM      6  C   UNL     1       2.054   1.915 -21.846  0.00  0.00    +0.035 A 
ATOM      7  C   UNL     1       3.260   1.544 -21.536  0.00  0.00    -0.011 A 
ATOM      8  C   UNL     1       3.450   0.462 -20.841  0.00  0.00    +0.009 A 
ATOM      9  C   UNL     1       4.656   0.091 -20.531  0.00  0.00    +0.001 A 
ATOM     10  C   UNL     1       5.674   0.803 -20.916  0.00  0.00    +0.001 A 
ATOM     11  C   UNL     1       5.485   1.885 -21.610  0.00  0.00    +0.014 A 
ATOM     12  C   UNL     1       4.278   2.256 -21.920  0.00  0.00    +0.047 A 
ATOM     13  C   UNL     1       4.089   3.339 -22.615  0.00  0.00    +0.259 A 
ATOM     14  O   UNL     1       5.106   4.050 -23.000  0.00  0.00    -0.267 OA
ATOM     15  N   UNL     1       2.883   3.710 -22.925  0.00  0.00    -0.307 N 
ATOM     16  C   UNL     1       2.693   4.792 -23.619  0.00  0.00    +0.130 C 
ATOM     17  C   UNL     1      -0.360   2.657 -22.466  0.00  0.00    +0.059 A 
ATOM     18  C   UNL     1       1.486   5.163 -23.929  0.00  0.00    +0.057 C 
ATOM     19  C   UNL     1      -1.567   3.028 -22.776  0.00  0.00    +0.162 A 
ENDROOT
BRANCH   1  21
ATOM     20  C   UNL     1      -3.378   4.383 -25.008  0.00  0.00    +0.277 C 
ATOM     21  O   UNL     1      -2.962   4.481 -23.780  0.00  0.00    -0.491 OA
ENDBRANCH   1  21
BRANCH  19  22
ATOM     22  O   UNL     1      -2.585   2.316 -22.391  0.00  0.00    -0.491 OA
ATOM     23  C   UNL     1      -3.148   2.555 -21.245  0.00  0.00    +0.277 C 
ENDBRANCH  19  22
TORSDOF 2
ENDMDL
