MODEL 1
REMARK VINA RESULT:   -10.830      0.000      0.000
REMARK INTER + INTRA:         -11.580
REMARK INTER:                 -11.481
REMARK INTRA:                  -0.099
REMARK UNBOUND:                -0.117
REMARK  Name = COc1ccc2c(c1)[C@@]13CCN(C)[C@@H](C2)[C@H]1[C@@H](C)CC(=O)C3          ZINC000253504370
REMARK  4 active torsions:
REMARK  status: ('A' for Active; 'I' for Inactive)
REMARK    1  A    between atoms: C_1  and  O_2
REMARK    2  A    between atoms: O_2  and  C_3
REMARK    3  A    between atoms: N_12  and  C_13
REMARK    4  A    between atoms: C_17  and  C_18
REMARK                            x       y       z     vdW  Elec       q    Type
REMARK                         _______ _______ _______ _____ _____    ______ ____
ROOT
ATOM      1  C   UNL     1       0.128   3.871 -23.935  0.00  0.00    +0.120 A 
ATOM      2  C   UNL     1      -0.110   3.804 -25.179  0.00  0.00    +0.046 A 
ATOM      3  C   UNL     1      -1.309   3.670 -25.563  0.00  0.00    +0.008 A 
ATOM      4  C   UNL     1      -2.381   3.598 -24.560  0.00  0.00    -0.038 A 
ATOM      5  C   UNL     1      -2.108   3.661 -23.537  0.00  0.00    -0.033 A 
ATOM      6  C   UNL     1      -2.633   3.636 -22.744  0.00  0.00    +0.016 C 
ATOM      7  C   UNL     1      -1.540   3.701 -24.025  0.00  0.00    +0.063 C 
ATOM      8  C   UNL     1      -2.044   3.602 -25.406  0.00  0.00    +0.132 C 
ATOM      9  N   UNL     1      -3.199   3.480 -25.590  0.00  0.00    +0.236 N 
ATOM     10  H   UNL     1      -4.199   3.386 -25.409  0.00  0.00    +0.203 HD
ATOM     11  C   UNL     1      -4.242   3.417 -24.398  0.00  0.00    +0.073 C 
ATOM     12  C   UNL     1      -3.018   3.450 -26.979  0.00  0.00    +0.190 C 
ATOM     13  C   UNL     1      -2.317   3.710 -21.528  0.00  0.00    +0.086 C 
ATOM     14  C   UNL     1      -3.237   3.649 -20.616  0.00  0.00    +0.134 C 
ATOM     15  O   UNL     1      -2.910   3.725 -19.376  0.00  0.00    -0.297 OA
ATOM     16  C   UNL     1      -4.505   3.511 -20.943  0.00  0.00    +0.078 C 
ATOM     17  C   UNL     1      -4.876   3.430 -22.183  0.00  0.00    +0.002 C 
ATOM     18  C   UNL     1      -6.119   3.295 -22.485  0.00  0.00    +0.008 C 
ATOM     19  C   UNL     1      -4.009   3.485 -23.097  0.00  0.00    +0.052 C 
ATOM     20  C   UNL     1      -3.581   3.464 -24.953  0.00  0.00    +0.090 C 
ATOM     21  C   UNL     1      -0.859   3.801 -23.104  0.00  0.00    +0.050 A 
ENDROOT
BRANCH   1  23
ATOM     22  C   UNL     1       2.270   4.829 -23.318  0.00  0.00    +0.277 C 
ATOM     23  O   UNL     1       1.312   4.015 -23.212  0.00  0.00    -0.495 OA
ENDBRANCH   1  23
TORSDOF 1
ENDMDL
MODEL 2
REMARK VINA RESULT:   -10.197      2.129      4.759
REMARK INTER + INTRA:         -10.910
REMARK INTER:                 -10.769
REMARK INTRA:                  -0.141
REMARK UNBOUND:                -0.117
REMARK  Name = COc1ccc2c(c1)[C@@]13CCN(C)[C@@H](C2)[C@H]1[C@@H](C)CC(=O)C3          ZINC000253504370
REMARK  4 active torsions:
REMARK  status: ('A' for Active; 'I' for Inactive)
REMARK    1  A    between atoms: C_1  and  O_2
REMARK    2  A    between atoms: O_2  and  C_3
REMARK    3  A    between atoms: N_12  and  C_13
REMARK    4  A    between atoms: C_17  and  C_18
REMARK                            x       y       z     vdW  Elec       q    Type
REMARK                         _______ _______ _______ _____ _____    ______ ____
ROOT
ATOM      1  C   UNL     1      -3.696   3.827 -24.910  0.00  0.00    +0.120 A 
ATOM      2  C   UNL     1      -4.562   3.710 -23.991  0.00  0.00    +0.046 A 
ATOM      3  C   UNL     1      -4.198   3.259 -22.866  0.00  0.00    +0.008 A 
ATOM      4  C   UNL     1      -2.790   2.888 -22.661  0.00  0.00    -0.038 A 
ATOM      5  C   UNL     1      -2.121   3.013 -23.475  0.00  0.00    -0.033 A 
ATOM      6  C   UNL     1      -1.190   2.839 -23.555  0.00  0.00    +0.016 C 
ATOM      7  C   UNL     1      -2.832   3.211 -23.610  0.00  0.00    +0.063 C 
ATOM      8  C   UNL     1      -3.659   2.992 -22.410  0.00  0.00    +0.132 C 
ATOM      9  N   UNL     1      -3.159   2.562 -21.436  0.00  0.00    +0.236 N 
ATOM     10  H   UNL     1      -2.453   2.198 -20.796  0.00  0.00    +0.203 HD
ATOM     11  C   UNL     1      -1.616   2.206 -21.366  0.00  0.00    +0.073 C 
ATOM     12  C   UNL     1      -4.377   2.595 -20.744  0.00  0.00    +0.190 C 
ATOM     13  C   UNL     1      -0.390   2.985 -24.515  0.00  0.00    +0.086 C 
ATOM     14  C   UNL     1       0.859   2.667 -24.370  0.00  0.00    +0.134 C 
ATOM     15  O   UNL     1       1.672   2.818 -25.353  0.00  0.00    -0.297 OA
ATOM     16  C   UNL     1       1.308   2.192 -23.227  0.00  0.00    +0.078 C 
ATOM     17  C   UNL     1       0.520   2.026 -22.211  0.00  0.00    +0.002 C 
ATOM     18  C   UNL     1       0.975   1.561 -21.101  0.00  0.00    +0.008 C 
ATOM     19  C   UNL     1      -0.701   2.323 -22.315  0.00  0.00    +0.052 C 
ATOM     20  C   UNL     1      -2.433   2.436 -21.529  0.00  0.00    +0.090 C 
ATOM     21  C   UNL     1      -2.474   3.484 -24.667  0.00  0.00    +0.050 A 
ENDROOT
BRANCH   1  23
ATOM     22  C   UNL     1      -3.423   3.763 -27.320  0.00  0.00    +0.277 C 
ATOM     23  O   UNL     1      -3.779   4.281 -26.227  0.00  0.00    -0.495 OA
ENDBRANCH   1  23
TORSDOF 1
ENDMDL
MODEL 3
REMARK VINA RESULT:   -10.061      1.898      2.470
REMARK INTER + INTRA:         -10.766
REMARK INTER:                 -10.669
REMARK INTRA:                  -0.097
REMARK UNBOUND:                -0.117
REMARK  Name = COc1ccc2c(c1)[C@@]13CCN(C)[C@@H](C2)[C@H]1[C@@H](C)CC(=O)C3          ZINC000253504370
REMARK  4 active torsions:
REMARK  status: ('A' for Active; 'I' for Inactive)
REMARK    1  A    between atoms: C_1  and  O_2
REMARK    2  A    between atoms: O_2  and  C_3
REMARK    3  A    between atoms: N_12  and  C_13
REMARK    4  A    between atoms: C_17  and  C_18
REMARK                            x       y       z     vdW  Elec       q    Type
REMARK                         _______ _______ _______ _____ _____    ______ ____
ROOT
ATOM      1  C   UNL     1       0.755   1.956 -21.854  0.00  0.00    +0.120 A 
ATOM      2  C   UNL     1       1.388   2.289 -22.901  0.00  0.00    +0.046 A 
ATOM      3  C   UNL     1       0.750   2.826 -23.854  0.00  0.00    +0.008 A 
ATOM      4  C   UNL     1      -0.697   3.046 -23.715  0.00  0.00    -0.038 A 
ATOM      5  C   UNL     1      -1.160   2.742 -22.810  0.00  0.00    -0.033 A 
ATOM      6  C   UNL     1      -2.065   2.791 -22.520  0.00  0.00    +0.016 C 
ATOM      7  C   UNL     1      -0.422   2.617 -22.851  0.00  0.00    +0.063 C 
ATOM      8  C   UNL     1       0.103   3.080 -24.148  0.00  0.00    +0.132 C 
ATOM      9  N   UNL     1      -0.633   3.561 -24.929  0.00  0.00    +0.236 N 
ATOM     10  H   UNL     1      -1.491   3.912 -25.355  0.00  0.00    +0.203 HD
ATOM     11  C   UNL     1      -2.181   3.733 -24.635  0.00  0.00    +0.073 C 
ATOM     12  C   UNL     1       0.405   3.760 -25.849  0.00  0.00    +0.190 C 
ATOM     13  C   UNL     1      -2.621   2.433 -21.450  0.00  0.00    +0.086 C 
ATOM     14  C   UNL     1      -3.897   2.612 -21.293  0.00  0.00    +0.134 C 
ATOM     15  O   UNL     1      -4.461   2.245 -20.199  0.00  0.00    -0.297 OA
ATOM     16  C   UNL     1      -4.623   3.165 -22.242  0.00  0.00    +0.078 C 
ATOM     17  C   UNL     1      -4.092   3.548 -23.361  0.00  0.00    +0.002 C 
ATOM     18  C   UNL     1      -4.817   4.087 -24.277  0.00  0.00    +0.008 C 
ATOM     19  C   UNL     1      -2.855   3.391 -23.548  0.00  0.00    +0.052 C 
ATOM     20  C   UNL     1      -1.330   3.585 -24.674  0.00  0.00    +0.090 C 
ATOM     21  C   UNL     1      -0.517   2.176 -21.794  0.00  0.00    +0.050 A 
ENDROOT
BRANCH   1  23
ATOM     22  C   UNL     1       2.297   1.243 -20.121  0.00  0.00    +0.277 C 
ATOM     23  O   UNL     1       1.163   1.359 -20.661  0.00  0.00    -0.495 OA
ENDBRANCH   1  23
TORSDOF 1
ENDMDL
MODEL 4
REMARK VINA RESULT:    -9.744      2.064      3.788
REMARK INTER + INTRA:         -10.430
REMARK INTER:                 -10.280
REMARK INTRA:                  -0.150
REMARK UNBOUND:                -0.117
REMARK  Name = COc1ccc2c(c1)[C@@]13CCN(C)[C@@H](C2)[C@H]1[C@@H](C)CC(=O)C3          ZINC000253504370
REMARK  4 active torsions:
REMARK  status: ('A' for Active; 'I' for Inactive)
REMARK    1  A    between atoms: C_1  and  O_2
REMARK    2  A    between atoms: O_2  and  C_3
REMARK    3  A    between atoms: N_12  and  C_13
REMARK    4  A    between atoms: C_17  and  C_18
REMARK                            x       y       z     vdW  Elec       q    Type
REMARK                         _______ _______ _______ _____ _____    ______ ____
ROOT
ATOM      1  C   UNL     1      -0.136   2.126 -22.770  0.00  0.00    +0.120 A 
ATOM      2  C   UNL     1      -0.441   2.161 -21.539  0.00  0.00    +0.046 A 
ATOM      3  C   UNL     1      -1.592   2.572 -21.208  0.00  0.00    +0.008 A 
ATOM      4  C   UNL     1      -2.533   2.993 -22.256  0.00  0.00    -0.038 A 
ATOM      5  C   UNL     1      -2.210   2.937 -23.264  0.00  0.00    -0.033 A 
ATOM      6  C   UNL     1      -2.651   3.155 -24.079  0.00  0.00    +0.016 C 
ATOM      7  C   UNL     1      -1.708   2.715 -22.753  0.00  0.00    +0.063 C 
ATOM      8  C   UNL     1      -2.272   2.840 -21.397  0.00  0.00    +0.132 C 
ATOM      9  N   UNL     1      -3.368   3.243 -21.264  0.00  0.00    +0.236 N 
ATOM     10  H   UNL     1      -4.295   3.606 -21.487  0.00  0.00    +0.203 HD
ATOM     11  C   UNL     1      -4.270   3.661 -22.498  0.00  0.00    +0.073 C 
ATOM     12  C   UNL     1      -3.288   3.124 -19.870  0.00  0.00    +0.190 C 
ATOM     13  C   UNL     1      -2.275   3.091 -25.277  0.00  0.00    +0.086 C 
ATOM     14  C   UNL     1      -3.080   3.454 -26.228  0.00  0.00    +0.134 C 
ATOM     15  O   UNL     1      -2.692   3.387 -27.450  0.00  0.00    -0.297 OA
ATOM     16  C   UNL     1      -4.292   3.892 -25.956  0.00  0.00    +0.078 C 
ATOM     17  C   UNL     1      -4.721   3.975 -24.735  0.00  0.00    +0.002 C 
ATOM     18  C   UNL     1      -5.908   4.405 -24.489  0.00  0.00    +0.008 C 
ATOM     19  C   UNL     1      -3.966   3.630 -23.786  0.00  0.00    +0.052 C 
ATOM     20  C   UNL     1      -3.685   3.404 -21.915  0.00  0.00    +0.090 C 
ATOM     21  C   UNL     1      -1.009   2.510 -23.642  0.00  0.00    +0.050 A 
ENDROOT
BRANCH   1  23
ATOM     22  C   UNL     1       1.650   2.245 -24.407  0.00  0.00    +0.277 C 
ATOM     23  O   UNL     1       1.023   1.734 -23.439  0.00  0.00    -0.495 OA
ENDBRANCH   1  23
TORSDOF 1
ENDMDL
MODEL 5
REMARK VINA RESULT:    -9.675      1.618      4.212
REMARK INTER + INTRA:         -10.358
REMARK INTER:                 -10.258
REMARK INTRA:                  -0.099
REMARK UNBOUND:                -0.117
REMARK  Name = COc1ccc2c(c1)[C@@]13CCN(C)[C@@H](C2)[C@H]1[C@@H](C)CC(=O)C3          ZINC000253504370
REMARK  4 active torsions:
REMARK  status: ('A' for Active; 'I' for Inactive)
REMARK    1  A    between atoms: C_1  and  O_2
REMARK    2  A    between atoms: O_2  and  C_3
REMARK    3  A    between atoms: N_12  and  C_13
REMARK    4  A    between atoms: C_17  and  C_18
REMARK                            x       y       z     vdW  Elec       q    Type
REMARK                         _______ _______ _______ _____ _____    ______ ____
ROOT
ATOM      1  C   UNL     1      -4.678   3.383 -22.949  0.00  0.00    +0.120 A 
ATOM      2  C   UNL     1      -5.027   3.752 -24.111  0.00  0.00    +0.046 A 
ATOM      3  C   UNL     1      -4.150   3.798 -25.024  0.00  0.00    +0.008 A 
ATOM      4  C   UNL     1      -2.763   3.425 -24.707  0.00  0.00    -0.038 A 
ATOM      5  C   UNL     1      -2.545   3.126 -23.713  0.00  0.00    -0.033 A 
ATOM      6  C   UNL     1      -1.731   2.851 -23.304  0.00  0.00    +0.016 C 
ATOM      7  C   UNL     1      -3.260   3.311 -23.844  0.00  0.00    +0.063 C 
ATOM      8  C   UNL     1      -3.436   3.705 -25.253  0.00  0.00    +0.132 C 
ATOM      9  N   UNL     1      -2.509   3.693 -25.975  0.00  0.00    +0.236 N 
ATOM     10  H   UNL     1      -1.554   3.578 -26.315  0.00  0.00    +0.203 HD
ATOM     11  C   UNL     1      -1.063   3.264 -25.486  0.00  0.00    +0.073 C 
ATOM     12  C   UNL     1      -3.288   4.131 -27.054  0.00  0.00    +0.190 C 
ATOM     13  C   UNL     1      -1.464   2.496 -22.128  0.00  0.00    +0.086 C 
ATOM     14  C   UNL     1      -0.251   2.160 -21.813  0.00  0.00    +0.134 C 
ATOM     15  O   UNL     1       0.018   1.798 -20.610  0.00  0.00    -0.297 OA
ATOM     16  C   UNL     1       0.712   2.185 -22.712  0.00  0.00    +0.078 C 
ATOM     17  C   UNL     1       0.482   2.544 -23.936  0.00  0.00    +0.002 C 
ATOM     18  C   UNL     1       1.434   2.562 -24.801  0.00  0.00    +0.008 C 
ATOM     19  C   UNL     1      -0.685   2.877 -24.278  0.00  0.00    +0.052 C 
ATOM     20  C   UNL     1      -1.890   3.474 -25.628  0.00  0.00    +0.090 C 
ATOM     21  C   UNL     1      -3.443   3.068 -22.735  0.00  0.00    +0.050 A 
ENDROOT
BRANCH   1  23
ATOM     22  C   UNL     1      -6.463   2.625 -21.492  0.00  0.00    +0.277 C 
ATOM     23  O   UNL     1      -5.391   3.231 -21.759  0.00  0.00    -0.495 OA
ENDBRANCH   1  23
TORSDOF 1
ENDMDL
MODEL 6
REMARK VINA RESULT:    -9.113      2.209      4.762
REMARK INTER + INTRA:          -9.763
REMARK INTER:                  -9.666
REMARK INTRA:                  -0.097
REMARK UNBOUND:                -0.117
REMARK  Name = COc1ccc2c(c1)[C@@]13CCN(C)[C@@H](C2)[C@H]1[C@@H](C)CC(=O)C3          ZINC000253504370
REMARK  4 active torsions:
REMARK  status: ('A' for Active; 'I' for Inactive)
REMARK    1  A    between atoms: C_1  and  O_2
REMARK    2  A    between atoms: O_2  and  C_3
REMARK    3  A    between atoms: N_12  and  C_13
REMARK    4  A    between atoms: C_17  and  C_18
REMARK                            x       y       z     vdW  Elec       q    Type
REMARK                         _______ _______ _______ _____ _____    ______ ____
ROOT
ATOM      1  C   UNL     1      -2.854   2.606 -22.056  0.00  0.00    +0.120 A 
ATOM      2  C   UNL     1      -3.211   3.022 -23.199  0.00  0.00    +0.046 A 
ATOM      3  C   UNL     1      -2.331   3.166 -24.098  0.00  0.00    +0.008 A 
ATOM      4  C   UNL     1      -0.929   2.847 -23.787  0.00  0.00    -0.038 A 
ATOM      5  C   UNL     1      -0.704   2.505 -22.809  0.00  0.00    -0.033 A 
ATOM      6  C   UNL     1       0.120   2.249 -22.408  0.00  0.00    +0.016 C 
ATOM      7  C   UNL     1      -1.426   2.659 -22.938  0.00  0.00    +0.063 C 
ATOM      8  C   UNL     1      -1.612   3.123 -24.324  0.00  0.00    +0.132 C 
ATOM      9  N   UNL     1      -0.679   3.200 -25.035  0.00  0.00    +0.236 N 
ATOM     10  H   UNL     1       0.283   3.154 -25.370  0.00  0.00    +0.203 HD
ATOM     11  C   UNL     1       0.783   2.819 -24.555  0.00  0.00    +0.073 C 
ATOM     12  C   UNL     1      -1.472   3.658 -26.096  0.00  0.00    +0.190 C 
ATOM     13  C   UNL     1       0.396   1.842 -21.250  0.00  0.00    +0.086 C 
ATOM     14  C   UNL     1       1.622   1.552 -20.942  0.00  0.00    +0.134 C 
ATOM     15  O   UNL     1       1.900   1.136 -19.758  0.00  0.00    -0.297 OA
ATOM     16  C   UNL     1       2.589   1.678 -21.827  0.00  0.00    +0.078 C 
ATOM     17  C   UNL     1       2.351   2.094 -23.031  0.00  0.00    +0.002 C 
ATOM     18  C   UNL     1       3.308   2.210 -23.883  0.00  0.00    +0.008 C 
ATOM     19  C   UNL     1       1.171   2.385 -23.366  0.00  0.00    +0.052 C 
ATOM     20  C   UNL     1      -0.052   2.994 -24.694  0.00  0.00    +0.090 C 
ATOM     21  C   UNL     1      -1.605   2.344 -21.847  0.00  0.00    +0.050 A 
ENDROOT
BRANCH   1  23
ATOM     22  C   UNL     1      -4.804   2.268 -20.653  0.00  0.00    +0.277 C 
ATOM     23  O   UNL     1      -3.567   2.351 -20.884  0.00  0.00    -0.495 OA
ENDBRANCH   1  23
TORSDOF 1
ENDMDL
MODEL 7
REMARK VINA RESULT:    -8.468      2.265      3.525
REMARK INTER + INTRA:          -9.080
REMARK INTER:                  -8.921
REMARK INTRA:                  -0.159
REMARK UNBOUND:                -0.117
REMARK  Name = COc1ccc2c(c1)[C@@]13CCN(C)[C@@H](C2)[C@H]1[C@@H](C)CC(=O)C3          ZINC000253504370
REMARK  4 active torsions:
REMARK  status: ('A' for Active; 'I' for Inactive)
REMARK    1  A    between atoms: C_1  and  O_2
REMARK    2  A    between atoms: O_2  and  C_3
REMARK    3  A    between atoms: N_12  and  C_13
REMARK    4  A    between atoms: C_17  and  C_18
REMARK                            x       y       z     vdW  Elec       q    Type
REMARK                         _______ _______ _______ _____ _____    ______ ____
ROOT
ATOM      1  C   UNL     1       1.035   3.501 -24.098  0.00  0.00    +0.120 A 
ATOM      2  C   UNL     1       1.579   2.859 -23.149  0.00  0.00    +0.046 A 
ATOM      3  C   UNL     1       0.845   2.397 -22.227  0.00  0.00    +0.008 A 
ATOM      4  C   UNL     1      -0.608   2.618 -22.286  0.00  0.00    -0.038 A 
ATOM      5  C   UNL     1      -0.993   3.164 -23.110  0.00  0.00    -0.033 A 
ATOM      6  C   UNL     1      -1.882   3.414 -23.337  0.00  0.00    +0.016 C 
ATOM      7  C   UNL     1      -0.249   3.067 -23.107  0.00  0.00    +0.063 C 
ATOM      8  C   UNL     1       0.162   2.299 -21.919  0.00  0.00    +0.132 C 
ATOM      9  N   UNL     1      -0.655   1.941 -21.153  0.00  0.00    +0.236 N 
ATOM     10  H   UNL     1      -1.562   1.791 -20.713  0.00  0.00    +0.203 HD
ATOM     11  C   UNL     1      -2.195   2.257 -21.352  0.00  0.00    +0.073 C 
ATOM     12  C   UNL     1       0.311   1.329 -20.343  0.00  0.00    +0.190 C 
ATOM     13  C   UNL     1      -2.347   4.061 -24.311  0.00  0.00    +0.086 C 
ATOM     14  C   UNL     1      -3.623   4.274 -24.395  0.00  0.00    +0.134 C 
ATOM     15  O   UNL     1      -4.094   4.935 -25.391  0.00  0.00    -0.297 OA
ATOM     16  C   UNL     1      -4.447   3.822 -23.472  0.00  0.00    +0.078 C 
ATOM     17  C   UNL     1      -4.012   3.151 -22.451  0.00  0.00    +0.002 C 
ATOM     18  C   UNL     1      -4.830   2.718 -21.559  0.00  0.00    +0.008 C 
ATOM     19  C   UNL     1      -2.777   2.925 -22.336  0.00  0.00    +0.052 C 
ATOM     20  C   UNL     1      -1.337   2.151 -21.357  0.00  0.00    +0.090 C 
ATOM     21  C   UNL     1      -0.248   3.661 -24.092  0.00  0.00    +0.050 A 
ENDROOT
BRANCH   1  23
ATOM     22  C   UNL     1       1.058   4.358 -26.367  0.00  0.00    +0.277 C 
ATOM     23  O   UNL     1       1.557   4.120 -25.234  0.00  0.00    -0.495 OA
ENDBRANCH   1  23
TORSDOF 1
ENDMDL
MODEL 8
REMARK VINA RESULT:    -7.838      3.790      6.369
REMARK INTER + INTRA:          -8.413
REMARK INTER:                  -8.316
REMARK INTRA:                  -0.097
REMARK UNBOUND:                -0.117
REMARK  Name = COc1ccc2c(c1)[C@@]13CCN(C)[C@@H](C2)[C@H]1[C@@H](C)CC(=O)C3          ZINC000253504370
REMARK  4 active torsions:
REMARK  status: ('A' for Active; 'I' for Inactive)
REMARK    1  A    between atoms: C_1  and  O_2
REMARK    2  A    between atoms: O_2  and  C_3
REMARK    3  A    between atoms: N_12  and  C_13
REMARK    4  A    between atoms: C_17  and  C_18
REMARK                            x       y       z     vdW  Elec       q    Type
REMARK                         _______ _______ _______ _____ _____    ______ ____
ROOT
ATOM      1  C   UNL     1       4.823   1.136 -21.587  0.00  0.00    +0.120 A 
ATOM      2  C   UNL     1       5.714   1.995 -21.865  0.00  0.00    +0.046 A 
ATOM      3  C   UNL     1       5.358   3.097 -22.377  0.00  0.00    +0.008 A 
ATOM      4  C   UNL     1       3.931   3.344 -22.631  0.00  0.00    -0.038 A 
ATOM      5  C   UNL     1       3.242   2.580 -22.373  0.00  0.00    -0.033 A 
ATOM      6  C   UNL     1       2.295   2.535 -22.451  0.00  0.00    +0.016 C 
ATOM      7  C   UNL     1       3.962   2.425 -22.231  0.00  0.00    +0.063 C 
ATOM      8  C   UNL     1       4.817   3.557 -22.631  0.00  0.00    +0.132 C 
ATOM      9  N   UNL     1       4.321   4.517 -23.097  0.00  0.00    +0.236 N 
ATOM     10  H   UNL     1       3.613   5.161 -23.448  0.00  0.00    +0.203 HD
ATOM     11  C   UNL     1       2.755   4.639 -23.311  0.00  0.00    +0.073 C 
ATOM     12  C   UNL     1       5.566   5.144 -23.238  0.00  0.00    +0.190 C 
ATOM     13  C   UNL     1       1.472   1.634 -22.148  0.00  0.00    +0.086 C 
ATOM     14  C   UNL     1       0.205   1.819 -22.358  0.00  0.00    +0.134 C 
ATOM     15  O   UNL     1      -0.633   0.896 -22.047  0.00  0.00    -0.297 OA
ATOM     16  C   UNL     1      -0.236   2.941 -22.888  0.00  0.00    +0.078 C 
ATOM     17  C   UNL     1       0.577   3.896 -23.216  0.00  0.00    +0.002 C 
ATOM     18  C   UNL     1       0.128   4.986 -23.732  0.00  0.00    +0.008 C 
ATOM     19  C   UNL     1       1.815   3.752 -23.026  0.00  0.00    +0.052 C 
ATOM     20  C   UNL     1       3.583   4.452 -23.145  0.00  0.00    +0.090 C 
ATOM     21  C   UNL     1       3.585   1.414 -21.834  0.00  0.00    +0.050 A 
ENDROOT
BRANCH   1  23
ATOM     22  C   UNL     1       5.820  -0.750 -20.431  0.00  0.00    +0.277 C 
ATOM     23  O   UNL     1       4.891  -0.141 -21.029  0.00  0.00    -0.495 OA
ENDBRANCH   1  23
TORSDOF 1
ENDMDL
