MODEL 1
REMARK VINA RESULT:   -10.008      0.000      0.000
REMARK INTER + INTRA:         -10.008
REMARK INTER:                 -10.008
REMARK INTRA:                   0.000
REMARK UNBOUND:                 0.000
REMARK  Name = C[C@@H]1C(=O)O[C@H]2[C@@H]1CC[C@]1(C)O[C@@H]1CC[C@@]1(C)O[C@H]21     ZINC000253390664
REMARK  3 active torsions:
REMARK  status: ('A' for Active; 'I' for Inactive)
REMARK    1  A    between atoms: C_1  and  C_2
REMARK    2  A    between atoms: C_10  and  C_11
REMARK    3  A    between atoms: C_16  and  C_17
REMARK                            x       y       z     vdW  Elec       q    Type
REMARK                         _______ _______ _______ _____ _____    ______ ____
ROOT
ATOM      1  C   UNL     1      -0.697   1.999 -21.272  0.00  0.00    +0.019 C 
ATOM      2  C   UNL     1      -0.517   2.302 -22.523  0.00  0.00    +0.101 C 
ATOM      3  C   UNL     1       0.605   2.227 -23.174  0.00  0.00    +0.311 C 
ATOM      4  O   UNL     1       0.388   2.612 -24.396  0.00  0.00    -0.458 OA
ATOM      5  C   UNL     1      -0.869   2.927 -24.500  0.00  0.00    +0.212 C 
ATOM      6  C   UNL     1      -1.577   3.362 -25.500  0.00  0.00    +0.191 C 
ATOM      7  O   UNL     1      -2.285   3.798 -26.500  0.00  0.00    -0.361 OA
ATOM      8  C   UNL     1      -2.844   3.607 -25.342  0.00  0.00    +0.097 C 
ATOM      9  C   UNL     1      -3.984   3.999 -25.828  0.00  0.00    +0.044 C 
ATOM     10  C   UNL     1      -3.403   3.415 -24.185  0.00  0.00    +0.040 C 
ATOM     11  C   UNL     1      -4.671   3.659 -24.027  0.00  0.00    +0.037 C 
ATOM     12  C   UNL     1      -5.230   3.468 -22.869  0.00  0.00    +0.151 C 
ATOM     13  O   UNL     1      -5.790   3.276 -21.711  0.00  0.00    -0.365 OA
ATOM     14  C   UNL     1      -4.523   3.032 -21.869  0.00  0.00    +0.093 C 
ATOM     15  C   UNL     1      -4.437   2.670 -20.624  0.00  0.00    +0.044 C 
ATOM     16  C   UNL     1      -3.256   2.788 -22.027  0.00  0.00    +0.038 C 
ATOM     17  C   UNL     1      -2.696   2.979 -23.185  0.00  0.00    +0.011 C 
ATOM     18  O   UNL     1       1.745   1.834 -22.688  0.00  0.00    -0.251 OA
ATOM     19  C   UNL     1      -1.429   2.735 -23.343  0.00  0.00    +0.046 C 
ENDROOT
TORSDOF 0
ENDMDL
MODEL 2
REMARK VINA RESULT:    -9.612      0.857      4.287
REMARK INTER + INTRA:          -9.612
REMARK INTER:                  -9.612
REMARK INTRA:                   0.000
REMARK UNBOUND:                 0.000
REMARK  Name = C[C@@H]1C(=O)O[C@H]2[C@@H]1CC[C@]1(C)O[C@@H]1CC[C@@]1(C)O[C@H]21     ZINC000253390664
REMARK  3 active torsions:
REMARK  status: ('A' for Active; 'I' for Inactive)
REMARK    1  A    between atoms: C_1  and  C_2
REMARK    2  A    between atoms: C_10  and  C_11
REMARK    3  A    between atoms: C_16  and  C_17
REMARK                            x       y       z     vdW  Elec       q    Type
REMARK                         _______ _______ _______ _____ _____    ______ ____
ROOT
ATOM      1  C   UNL     1      -4.076   2.333 -20.689  0.00  0.00    +0.019 C 
ATOM      2  C   UNL     1      -4.418   2.827 -21.842  0.00  0.00    +0.101 C 
ATOM      3  C   UNL     1      -5.615   3.195 -22.192  0.00  0.00    +0.311 C 
ATOM      4  O   UNL     1      -5.559   3.634 -23.413  0.00  0.00    -0.458 OA
ATOM      5  C   UNL     1      -4.328   3.538 -23.819  0.00  0.00    +0.212 C 
ATOM      6  C   UNL     1      -3.758   3.840 -24.949  0.00  0.00    +0.191 C 
ATOM      7  O   UNL     1      -3.188   4.142 -26.078  0.00  0.00    -0.361 OA
ATOM      8  C   UNL     1      -2.483   3.643 -25.106  0.00  0.00    +0.097 C 
ATOM      9  C   UNL     1      -1.418   3.704 -25.849  0.00  0.00    +0.044 C 
ATOM     10  C   UNL     1      -1.778   3.144 -24.135  0.00  0.00    +0.040 C 
ATOM     11  C   UNL     1      -0.502   2.947 -24.293  0.00  0.00    +0.037 C 
ATOM     12  C   UNL     1       0.203   2.448 -23.322  0.00  0.00    +0.151 C 
ATOM     13  O   UNL     1       0.909   1.949 -22.350  0.00  0.00    -0.365 OA
ATOM     14  C   UNL     1      -0.367   2.146 -22.193  0.00  0.00    +0.093 C 
ATOM     15  C   UNL     1      -0.288   1.683 -20.980  0.00  0.00    +0.044 C 
ATOM     16  C   UNL     1      -1.642   2.343 -22.035  0.00  0.00    +0.038 C 
ATOM     17  C   UNL     1      -2.347   2.842 -23.006  0.00  0.00    +0.011 C 
ATOM     18  O   UNL     1      -6.680   3.134 -21.449  0.00  0.00    -0.251 OA
ATOM     19  C   UNL     1      -3.622   3.039 -22.849  0.00  0.00    +0.046 C 
ENDROOT
TORSDOF 0
ENDMDL
MODEL 3
REMARK VINA RESULT:    -9.602      1.254      3.429
REMARK INTER + INTRA:          -9.602
REMARK INTER:                  -9.602
REMARK INTRA:                   0.000
REMARK UNBOUND:                 0.000
REMARK  Name = C[C@@H]1C(=O)O[C@H]2[C@@H]1CC[C@]1(C)O[C@@H]1CC[C@@]1(C)O[C@H]21     ZINC000253390664
REMARK  3 active torsions:
REMARK  status: ('A' for Active; 'I' for Inactive)
REMARK    1  A    between atoms: C_1  and  C_2
REMARK    2  A    between atoms: C_10  and  C_11
REMARK    3  A    between atoms: C_16  and  C_17
REMARK                            x       y       z     vdW  Elec       q    Type
REMARK                         _______ _______ _______ _____ _____    ______ ____
ROOT
ATOM      1  C   UNL     1       0.098   2.633 -24.392  0.00  0.00    +0.019 C 
ATOM      2  C   UNL     1      -0.422   2.510 -23.208  0.00  0.00    +0.101 C 
ATOM      3  C   UNL     1       0.208   2.150 -22.129  0.00  0.00    +0.311 C 
ATOM      4  O   UNL     1      -0.644   2.144 -21.149  0.00  0.00    -0.458 OA
ATOM      5  C   UNL     1      -1.802   2.500 -21.620  0.00  0.00    +0.212 C 
ATOM      6  C   UNL     1      -2.964   2.647 -21.055  0.00  0.00    +0.191 C 
ATOM      7  O   UNL     1      -4.125   2.795 -20.489  0.00  0.00    -0.361 OA
ATOM      8  C   UNL     1      -3.988   3.021 -21.762  0.00  0.00    +0.097 C 
ATOM      9  C   UNL     1      -5.250   3.322 -21.845  0.00  0.00    +0.044 C 
ATOM     10  C   UNL     1      -3.851   3.248 -23.035  0.00  0.00    +0.040 C 
ATOM     11  C   UNL     1      -4.876   3.622 -23.742  0.00  0.00    +0.037 C 
ATOM     12  C   UNL     1      -4.739   3.848 -25.015  0.00  0.00    +0.151 C 
ATOM     13  O   UNL     1      -4.602   4.075 -26.288  0.00  0.00    -0.365 OA
ATOM     14  C   UNL     1      -3.577   3.701 -25.580  0.00  0.00    +0.093 C 
ATOM     15  C   UNL     1      -2.828   3.747 -26.641  0.00  0.00    +0.044 C 
ATOM     16  C   UNL     1      -2.553   3.327 -24.873  0.00  0.00    +0.038 C 
ATOM     17  C   UNL     1      -2.690   3.101 -23.600  0.00  0.00    +0.011 C 
ATOM     18  O   UNL     1       1.470   1.849 -22.047  0.00  0.00    -0.251 OA
ATOM     19  C   UNL     1      -1.665   2.727 -22.893  0.00  0.00    +0.046 C 
ENDROOT
TORSDOF 0
ENDMDL
MODEL 4
REMARK VINA RESULT:    -9.193      1.184      4.515
REMARK INTER + INTRA:          -9.193
REMARK INTER:                  -9.193
REMARK INTRA:                   0.000
REMARK UNBOUND:                 0.000
REMARK  Name = C[C@@H]1C(=O)O[C@H]2[C@@H]1CC[C@]1(C)O[C@@H]1CC[C@@]1(C)O[C@H]21     ZINC000253390664
REMARK  3 active torsions:
REMARK  status: ('A' for Active; 'I' for Inactive)
REMARK    1  A    between atoms: C_1  and  C_2
REMARK    2  A    between atoms: C_10  and  C_11
REMARK    3  A    between atoms: C_16  and  C_17
REMARK                            x       y       z     vdW  Elec       q    Type
REMARK                         _______ _______ _______ _____ _____    ______ ____
ROOT
ATOM      1  C   UNL     1      -1.543   3.441 -25.911  0.00  0.00    +0.019 C 
ATOM      2  C   UNL     1      -2.763   3.651 -25.514  0.00  0.00    +0.101 C 
ATOM      3  C   UNL     1      -3.741   4.089 -26.249  0.00  0.00    +0.311 C 
ATOM      4  O   UNL     1      -4.801   4.168 -25.501  0.00  0.00    -0.458 OA
ATOM      5  C   UNL     1      -4.479   3.778 -24.304  0.00  0.00    +0.212 C 
ATOM      6  C   UNL     1      -5.169   3.672 -23.208  0.00  0.00    +0.191 C 
ATOM      7  O   UNL     1      -5.860   3.567 -22.111  0.00  0.00    -0.361 OA
ATOM      8  C   UNL     1      -4.600   3.247 -22.119  0.00  0.00    +0.097 C 
ATOM      9  C   UNL     1      -4.670   2.941 -20.857  0.00  0.00    +0.044 C 
ATOM     10  C   UNL     1      -3.340   2.928 -22.127  0.00  0.00    +0.040 C 
ATOM     11  C   UNL     1      -2.771   2.503 -21.037  0.00  0.00    +0.037 C 
ATOM     12  C   UNL     1      -1.511   2.183 -21.045  0.00  0.00    +0.151 C 
ATOM     13  O   UNL     1      -0.250   1.864 -21.053  0.00  0.00    -0.365 OA
ATOM     14  C   UNL     1      -0.820   2.289 -22.142  0.00  0.00    +0.093 C 
ATOM     15  C   UNL     1       0.306   2.165 -22.779  0.00  0.00    +0.044 C 
ATOM     16  C   UNL     1      -1.389   2.714 -23.231  0.00  0.00    +0.038 C 
ATOM     17  C   UNL     1      -2.649   3.033 -23.223  0.00  0.00    +0.011 C 
ATOM     18  O   UNL     1      -3.672   4.396 -27.510  0.00  0.00    -0.251 OA
ATOM     19  C   UNL     1      -3.219   3.458 -24.311  0.00  0.00    +0.046 C 
ENDROOT
TORSDOF 0
ENDMDL
MODEL 5
REMARK VINA RESULT:    -8.795      2.047      3.076
REMARK INTER + INTRA:          -8.795
REMARK INTER:                  -8.795
REMARK INTRA:                   0.000
REMARK UNBOUND:                 0.000
REMARK  Name = C[C@@H]1C(=O)O[C@H]2[C@@H]1CC[C@]1(C)O[C@@H]1CC[C@@]1(C)O[C@H]21     ZINC000253390664
REMARK  3 active torsions:
REMARK  status: ('A' for Active; 'I' for Inactive)
REMARK    1  A    between atoms: C_1  and  C_2
REMARK    2  A    between atoms: C_10  and  C_11
REMARK    3  A    between atoms: C_16  and  C_17
REMARK                            x       y       z     vdW  Elec       q    Type
REMARK                         _______ _______ _______ _____ _____    ______ ____
ROOT
ATOM      1  C   UNL     1       0.796   1.416 -20.400  0.00  0.00    +0.019 C 
ATOM      2  C   UNL     1       1.478   1.498 -21.504  0.00  0.00    +0.101 C 
ATOM      3  C   UNL     1       2.666   1.009 -21.706  0.00  0.00    +0.311 C 
ATOM      4  O   UNL     1       3.013   1.291 -22.926  0.00  0.00    -0.458 OA
ATOM      5  C   UNL     1       2.040   1.954 -23.478  0.00  0.00    +0.212 C 
ATOM      6  C   UNL     1       1.896   2.458 -24.668  0.00  0.00    +0.191 C 
ATOM      7  O   UNL     1       1.751   2.961 -25.858  0.00  0.00    -0.361 OA
ATOM      8  C   UNL     1       0.802   3.089 -24.979  0.00  0.00    +0.097 C 
ATOM      9  C   UNL     1       0.087   3.744 -25.844  0.00  0.00    +0.044 C 
ATOM     10  C   UNL     1      -0.146   3.216 -24.099  0.00  0.00    +0.040 C 
ATOM     11  C   UNL     1      -1.240   3.848 -24.410  0.00  0.00    +0.037 C 
ATOM     12  C   UNL     1      -2.189   3.975 -23.530  0.00  0.00    +0.151 C 
ATOM     13  O   UNL     1      -3.137   4.102 -22.651  0.00  0.00    -0.365 OA
ATOM     14  C   UNL     1      -2.044   3.471 -22.340  0.00  0.00    +0.093 C 
ATOM     15  C   UNL     1      -2.509   3.254 -21.146  0.00  0.00    +0.044 C 
ATOM     16  C   UNL     1      -0.951   2.840 -22.030  0.00  0.00    +0.038 C 
ATOM     17  C   UNL     1      -0.002   2.713 -22.910  0.00  0.00    +0.011 C 
ATOM     18  O   UNL     1       3.381   0.354 -20.840  0.00  0.00    -0.251 OA
ATOM     19  C   UNL     1       1.091   2.082 -22.599  0.00  0.00    +0.046 C 
ENDROOT
TORSDOF 0
ENDMDL
MODEL 6
REMARK VINA RESULT:    -8.668      1.311      3.283
REMARK INTER + INTRA:          -8.668
REMARK INTER:                  -8.668
REMARK INTRA:                   0.000
REMARK UNBOUND:                 0.000
REMARK  Name = C[C@@H]1C(=O)O[C@H]2[C@@H]1CC[C@]1(C)O[C@@H]1CC[C@@]1(C)O[C@H]21     ZINC000253390664
REMARK  3 active torsions:
REMARK  status: ('A' for Active; 'I' for Inactive)
REMARK    1  A    between atoms: C_1  and  C_2
REMARK    2  A    between atoms: C_10  and  C_11
REMARK    3  A    between atoms: C_16  and  C_17
REMARK                            x       y       z     vdW  Elec       q    Type
REMARK                         _______ _______ _______ _____ _____    ______ ____
ROOT
ATOM      1  C   UNL     1      -1.215   3.732 -26.205  0.00  0.00    +0.019 C 
ATOM      2  C   UNL     1      -0.638   3.334 -25.111  0.00  0.00    +0.101 C 
ATOM      3  C   UNL     1       0.626   3.064 -24.968  0.00  0.00    +0.311 C 
ATOM      4  O   UNL     1       0.822   2.698 -23.737  0.00  0.00    -0.458 OA
ATOM      5  C   UNL     1      -0.320   2.742 -23.118  0.00  0.00    +0.212 C 
ATOM      6  C   UNL     1      -0.656   2.474 -21.891  0.00  0.00    +0.191 C 
ATOM      7  O   UNL     1      -0.991   2.206 -20.663  0.00  0.00    -0.361 OA
ATOM      8  C   UNL     1      -1.893   2.599 -21.513  0.00  0.00    +0.097 C 
ATOM      9  C   UNL     1      -2.802   2.517 -20.587  0.00  0.00    +0.044 C 
ATOM     10  C   UNL     1      -2.795   2.992 -22.363  0.00  0.00    +0.040 C 
ATOM     11  C   UNL     1      -4.034   3.117 -21.984  0.00  0.00    +0.037 C 
ATOM     12  C   UNL     1      -4.936   3.509 -22.834  0.00  0.00    +0.151 C 
ATOM     13  O   UNL     1      -5.838   3.902 -23.684  0.00  0.00    -0.365 OA
ATOM     14  C   UNL     1      -4.600   3.777 -24.062  0.00  0.00    +0.093 C 
ATOM     15  C   UNL     1      -4.928   4.158 -25.261  0.00  0.00    +0.044 C 
ATOM     16  C   UNL     1      -3.363   3.652 -24.439  0.00  0.00    +0.038 C 
ATOM     17  C   UNL     1      -2.461   3.259 -23.590  0.00  0.00    +0.011 C 
ATOM     18  O   UNL     1       1.535   3.146 -25.895  0.00  0.00    -0.251 OA
ATOM     19  C   UNL     1      -1.223   3.134 -23.967  0.00  0.00    +0.046 C 
ENDROOT
TORSDOF 0
ENDMDL
MODEL 7
REMARK VINA RESULT:    -8.485      1.313      4.174
REMARK INTER + INTRA:          -8.485
REMARK INTER:                  -8.485
REMARK INTRA:                   0.000
REMARK UNBOUND:                 0.000
REMARK  Name = C[C@@H]1C(=O)O[C@H]2[C@@H]1CC[C@]1(C)O[C@@H]1CC[C@@]1(C)O[C@H]21     ZINC000253390664
REMARK  3 active torsions:
REMARK  status: ('A' for Active; 'I' for Inactive)
REMARK    1  A    between atoms: C_1  and  C_2
REMARK    2  A    between atoms: C_10  and  C_11
REMARK    3  A    between atoms: C_16  and  C_17
REMARK                            x       y       z     vdW  Elec       q    Type
REMARK                         _______ _______ _______ _____ _____    ______ ____
ROOT
ATOM      1  C   UNL     1      -1.657   2.542 -20.942  0.00  0.00    +0.019 C 
ATOM      2  C   UNL     1      -2.772   2.744 -21.580  0.00  0.00    +0.101 C 
ATOM      3  C   UNL     1      -3.965   2.699 -21.066  0.00  0.00    +0.311 C 
ATOM      4  O   UNL     1      -4.819   2.954 -22.011  0.00  0.00    -0.458 OA
ATOM      5  C   UNL     1      -4.155   3.157 -23.109  0.00  0.00    +0.212 C 
ATOM      6  C   UNL     1      -4.538   3.444 -24.318  0.00  0.00    +0.191 C 
ATOM      7  O   UNL     1      -4.922   3.730 -25.527  0.00  0.00    -0.361 OA
ATOM      8  C   UNL     1      -3.656   3.601 -25.260  0.00  0.00    +0.097 C 
ATOM      9  C   UNL     1      -3.368   3.856 -26.502  0.00  0.00    +0.044 C 
ATOM     10  C   UNL     1      -2.391   3.471 -24.993  0.00  0.00    +0.040 C 
ATOM     11  C   UNL     1      -1.508   3.627 -25.936  0.00  0.00    +0.037 C 
ATOM     12  C   UNL     1      -0.243   3.498 -25.669  0.00  0.00    +0.151 C 
ATOM     13  O   UNL     1       1.023   3.368 -25.402  0.00  0.00    -0.365 OA
ATOM     14  C   UNL     1       0.141   3.211 -24.460  0.00  0.00    +0.093 C 
ATOM     15  C   UNL     1       1.093   2.971 -23.608  0.00  0.00    +0.044 C 
ATOM     16  C   UNL     1      -0.741   3.054 -23.518  0.00  0.00    +0.038 C 
ATOM     17  C   UNL     1      -2.007   3.184 -23.785  0.00  0.00    +0.011 C 
ATOM     18  O   UNL     1      -4.253   2.443 -19.824  0.00  0.00    -0.251 OA
ATOM     19  C   UNL     1      -2.889   3.028 -22.843  0.00  0.00    +0.046 C 
ENDROOT
TORSDOF 0
ENDMDL
MODEL 8
REMARK VINA RESULT:    -8.253      2.965      5.393
REMARK INTER + INTRA:          -8.253
REMARK INTER:                  -8.253
REMARK INTRA:                   0.000
REMARK UNBOUND:                 0.000
REMARK  Name = C[C@@H]1C(=O)O[C@H]2[C@@H]1CC[C@]1(C)O[C@@H]1CC[C@@]1(C)O[C@H]21     ZINC000253390664
REMARK  3 active torsions:
REMARK  status: ('A' for Active; 'I' for Inactive)
REMARK    1  A    between atoms: C_1  and  C_2
REMARK    2  A    between atoms: C_10  and  C_11
REMARK    3  A    between atoms: C_16  and  C_17
REMARK                            x       y       z     vdW  Elec       q    Type
REMARK                         _______ _______ _______ _____ _____    ______ ____
ROOT
ATOM      1  C   UNL     1       4.320   3.366 -23.872  0.00  0.00    +0.019 C 
ATOM      2  C   UNL     1       3.926   2.764 -22.790  0.00  0.00    +0.101 C 
ATOM      3  C   UNL     1       4.692   2.331 -21.834  0.00  0.00    +0.311 C 
ATOM      4  O   UNL     1       3.936   1.789 -20.927  0.00  0.00    -0.458 OA
ATOM      5  C   UNL     1       2.702   1.887 -21.322  0.00  0.00    +0.212 C 
ATOM      6  C   UNL     1       1.582   1.505 -20.781  0.00  0.00    +0.191 C 
ATOM      7  O   UNL     1       0.462   1.124 -20.241  0.00  0.00    -0.361 OA
ATOM      8  C   UNL     1       0.456   1.726 -21.393  0.00  0.00    +0.097 C 
ATOM      9  C   UNL     1      -0.840   1.634 -21.435  0.00  0.00    +0.044 C 
ATOM     10  C   UNL     1       0.450   2.329 -22.545  0.00  0.00    +0.040 C 
ATOM     11  C   UNL     1      -0.676   2.550 -23.157  0.00  0.00    +0.037 C 
ATOM     12  C   UNL     1      -0.682   3.152 -24.308  0.00  0.00    +0.151 C 
ATOM     13  O   UNL     1      -0.688   3.755 -25.460  0.00  0.00    -0.365 OA
ATOM     14  C   UNL     1       0.437   3.534 -24.849  0.00  0.00    +0.093 C 
ATOM     15  C   UNL     1       1.080   4.102 -25.826  0.00  0.00    +0.044 C 
ATOM     16  C   UNL     1       1.563   3.313 -24.237  0.00  0.00    +0.038 C 
ATOM     17  C   UNL     1       1.569   2.711 -23.085  0.00  0.00    +0.011 C 
ATOM     18  O   UNL     1       5.988   2.424 -21.792  0.00  0.00    -0.251 OA
ATOM     19  C   UNL     1       2.694   2.490 -22.474  0.00  0.00    +0.046 C 
ENDROOT
TORSDOF 0
ENDMDL
MODEL 9
REMARK VINA RESULT:    -8.195      1.712      5.515
REMARK INTER + INTRA:          -8.195
REMARK INTER:                  -8.195
REMARK INTRA:                   0.000
REMARK UNBOUND:                 0.000
REMARK  Name = C[C@@H]1C(=O)O[C@H]2[C@@H]1CC[C@]1(C)O[C@@H]1CC[C@@]1(C)O[C@H]21     ZINC000253390664
REMARK  3 active torsions:
REMARK  status: ('A' for Active; 'I' for Inactive)
REMARK    1  A    between atoms: C_1  and  C_2
REMARK    2  A    between atoms: C_10  and  C_11
REMARK    3  A    between atoms: C_16  and  C_17
REMARK                            x       y       z     vdW  Elec       q    Type
REMARK                         _______ _______ _______ _____ _____    ______ ____
ROOT
ATOM      1  C   UNL     1      -2.926   4.259 -25.102  0.00  0.00    +0.019 C 
ATOM      2  C   UNL     1      -2.997   3.610 -23.978  0.00  0.00    +0.101 C 
ATOM      3  C   UNL     1      -4.076   3.396 -23.286  0.00  0.00    +0.311 C 
ATOM      4  O   UNL     1      -3.746   2.716 -22.229  0.00  0.00    -0.458 OA
ATOM      5  C   UNL     1      -2.464   2.509 -22.267  0.00  0.00    +0.212 C 
ATOM      6  C   UNL     1      -1.657   1.889 -21.457  0.00  0.00    +0.191 C 
ATOM      7  O   UNL     1      -0.851   1.269 -20.647  0.00  0.00    -0.361 OA
ATOM      8  C   UNL     1      -0.388   1.822 -21.729  0.00  0.00    +0.097 C 
ATOM      9  C   UNL     1       0.811   1.426 -21.419  0.00  0.00    +0.044 C 
ATOM     10  C   UNL     1       0.075   2.375 -22.810  0.00  0.00    +0.040 C 
ATOM     11  C   UNL     1       1.346   2.308 -23.082  0.00  0.00    +0.037 C 
ATOM     12  C   UNL     1       1.809   2.861 -24.163  0.00  0.00    +0.151 C 
ATOM     13  O   UNL     1       2.272   3.414 -25.245  0.00  0.00    -0.365 OA
ATOM     14  C   UNL     1       1.002   3.481 -24.973  0.00  0.00    +0.093 C 
ATOM     15  C   UNL     1       0.805   4.159 -26.065  0.00  0.00    +0.044 C 
ATOM     16  C   UNL     1      -0.267   3.548 -24.702  0.00  0.00    +0.038 C 
ATOM     17  C   UNL     1      -0.730   2.995 -23.620  0.00  0.00    +0.011 C 
ATOM     18  O   UNL     1      -5.275   3.792 -23.596  0.00  0.00    -0.251 OA
ATOM     19  C   UNL     1      -2.000   3.062 -23.349  0.00  0.00    +0.046 C 
ENDROOT
TORSDOF 0
ENDMDL
