MODEL 1
REMARK VINA RESULT:    -9.987      0.000      0.000
REMARK INTER + INTRA:         -10.517
REMARK INTER:                 -10.433
REMARK INTRA:                  -0.084
REMARK UNBOUND:                 2.389
REMARK  Name = ZINC000004104688
REMARK  11 active torsions:
REMARK  status: ('A' for Active; 'I' for Inactive)
REMARK    1  A    between atoms: C_1  and  O_2
REMARK    2  A    between atoms: O_2  and  C_3
REMARK    3  A    between atoms: C_6  and  C_7
REMARK    4  A    between atoms: C_10  and  O_11
REMARK    5  A    between atoms: O_11  and  C_12
REMARK    6  A    between atoms: C_13  and  O_14
REMARK    7  A    between atoms: O_14  and  C_15
REMARK    8  A    between atoms: C_19  and  C_20
REMARK    9  A    between atoms: C_21  and  C_22
REMARK   10  A    between atoms: C_24  and  O_25
REMARK   11  A    between atoms: O_25  and  C_26
REMARK                            x       y       z     vdW  Elec       q    Type
REMARK                         _______ _______ _______ _____ _____    ______ ____
ROOT
ATOM      1  C   UNL     1      -1.985   3.590 -24.575  0.00  0.00    +0.053 C 
ATOM      2  C   UNL     1      -3.022   3.531 -23.792  0.00  0.00    -0.033 A 
ATOM      3  C   UNL     1      -2.863   3.536 -22.502  0.00  0.00    +0.054 A 
ATOM      4  C   UNL     1      -3.899   3.478 -21.720  0.00  0.00    +0.162 A 
ATOM      5  C   UNL     1      -5.095   3.415 -22.227  0.00  0.00    +0.162 A 
ATOM      6  C   UNL     1      -5.253   3.410 -23.518  0.00  0.00    +0.053 A 
ATOM      7  C   UNL     1      -4.216   3.468 -24.300  0.00  0.00    -0.040 A 
ATOM      8  C   UNL     1      -4.375   3.464 -25.590  0.00  0.00    +0.039 C 
ATOM      9  C   UNL     1      -3.338   3.522 -26.373  0.00  0.00    -0.006 C 
ATOM     10  C   UNL     1      -3.497   3.517 -27.663  0.00  0.00    +0.008 C 
ATOM     11  C   UNL     1      -2.143   3.585 -25.865  0.00  0.00    +0.001 C 
ATOM     12  C   UNL     1      -1.106   3.643 -26.647  0.00  0.00    +0.009 C 
ENDROOT
BRANCH   1  16
ATOM     13  C   UNL     1       1.599   3.782 -23.048  0.00  0.00    +0.162 A 
ATOM     14  C   UNL     1       0.919   4.871 -23.251  0.00  0.00    +0.050 A 
ATOM     15  C   UNL     1      -0.275   4.807 -23.760  0.00  0.00    +0.008 A 
ATOM     16  C   UNL     1      -0.790   3.653 -24.066  0.00  0.00    -0.036 A 
ATOM     17  C   UNL     1      -0.111   2.563 -23.863  0.00  0.00    +0.053 A 
ATOM     18  C   UNL     1       1.084   2.628 -23.354  0.00  0.00    +0.162 A 
BRANCH  13  20
ATOM     19  C   UNL     1       3.766   4.369 -23.225  0.00  0.00    +0.277 C 
ATOM     20  O   UNL     1       2.793   3.846 -22.539  0.00  0.00    -0.491 OA
ENDBRANCH  13  20
BRANCH  18  21
ATOM     21  O   UNL     1       1.763   1.538 -23.152  0.00  0.00    -0.491 OA
ATOM     22  C   UNL     1       1.686   0.927 -22.007  0.00  0.00    +0.277 C 
ENDBRANCH  18  21
ENDBRANCH   1  16
BRANCH   5  23
ATOM     23  O   UNL     1      -6.131   3.356 -21.445  0.00  0.00    -0.491 OA
ATOM     24  C   UNL     1      -7.061   2.474 -21.663  0.00  0.00    +0.277 C 
ENDBRANCH   5  23
BRANCH   4  25
ATOM     25  O   UNL     1      -3.741   3.482 -20.429  0.00  0.00    -0.491 OA
ATOM     26  C   UNL     1      -2.598   3.827 -19.916  0.00  0.00    +0.277 C 
ENDBRANCH   4  25
TORSDOF 5
ENDMDL
MODEL 2
REMARK VINA RESULT:    -7.698      2.865      8.104
REMARK INTER + INTRA:          -7.560
REMARK INTER:                  -7.684
REMARK INTRA:                   0.124
REMARK UNBOUND:                 2.389
REMARK  Name = ZINC000004104688
REMARK  11 active torsions:
REMARK  status: ('A' for Active; 'I' for Inactive)
REMARK    1  A    between atoms: C_1  and  O_2
REMARK    2  A    between atoms: O_2  and  C_3
REMARK    3  A    between atoms: C_6  and  C_7
REMARK    4  A    between atoms: C_10  and  O_11
REMARK    5  A    between atoms: O_11  and  C_12
REMARK    6  A    between atoms: C_13  and  O_14
REMARK    7  A    between atoms: O_14  and  C_15
REMARK    8  A    between atoms: C_19  and  C_20
REMARK    9  A    between atoms: C_21  and  C_22
REMARK   10  A    between atoms: C_24  and  O_25
REMARK   11  A    between atoms: O_25  and  C_26
REMARK                            x       y       z     vdW  Elec       q    Type
REMARK                         _______ _______ _______ _____ _____    ______ ____
ROOT
ATOM      1  C   UNL     1       3.616   3.158 -22.896  0.00  0.00    +0.053 C 
ATOM      2  C   UNL     1       4.429   4.127 -22.596  0.00  0.00    -0.033 A 
ATOM      3  C   UNL     1       4.044   5.362 -22.725  0.00  0.00    +0.054 A 
ATOM      4  C   UNL     1       4.857   6.331 -22.426  0.00  0.00    +0.162 A 
ATOM      5  C   UNL     1       6.055   6.066 -21.997  0.00  0.00    +0.162 A 
ATOM      6  C   UNL     1       6.440   4.831 -21.868  0.00  0.00    +0.053 A 
ATOM      7  C   UNL     1       5.627   3.862 -22.167  0.00  0.00    -0.040 A 
ATOM      8  C   UNL     1       6.013   2.627 -22.038  0.00  0.00    +0.039 C 
ATOM      9  C   UNL     1       5.200   1.657 -22.337  0.00  0.00    -0.006 C 
ATOM     10  C   UNL     1       5.585   0.423 -22.208  0.00  0.00    +0.008 C 
ATOM     11  C   UNL     1       4.002   1.923 -22.766  0.00  0.00    +0.001 C 
ATOM     12  C   UNL     1       3.188   0.954 -23.066  0.00  0.00    +0.009 C 
ENDROOT
BRANCH   1  16
ATOM     13  C   UNL     1       0.023   3.958 -24.184  0.00  0.00    +0.162 A 
ATOM     14  C   UNL     1       1.046   4.115 -24.971  0.00  0.00    +0.050 A 
ATOM     15  C   UNL     1       2.244   3.848 -24.541  0.00  0.00    +0.008 A 
ATOM     16  C   UNL     1       2.418   3.424 -23.324  0.00  0.00    -0.036 A 
ATOM     17  C   UNL     1       1.395   3.268 -22.538  0.00  0.00    +0.053 A 
ATOM     18  C   UNL     1       0.198   3.535 -22.967  0.00  0.00    +0.162 A 
BRANCH  13  20
ATOM     19  C   UNL     1      -1.715   3.485 -25.536  0.00  0.00    +0.277 C 
ATOM     20  O   UNL     1      -1.174   4.225 -24.614  0.00  0.00    -0.491 OA
ENDBRANCH  13  20
BRANCH  18  21
ATOM     21  O   UNL     1      -0.825   3.379 -22.180  0.00  0.00    -0.491 OA
ATOM     22  C   UNL     1      -1.058   2.220 -21.639  0.00  0.00    +0.277 C 
ENDBRANCH  18  21
ENDBRANCH   1  16
BRANCH   5  23
ATOM     23  O   UNL     1       6.868   7.035 -21.697  0.00  0.00    -0.491 OA
ATOM     24  C   UNL     1       7.485   7.035 -20.554  0.00  0.00    +0.277 C 
ENDBRANCH   5  23
BRANCH   4  25
ATOM     25  O   UNL     1       4.471   7.566 -22.555  0.00  0.00    -0.491 OA
ATOM     26  C   UNL     1       4.083   8.238 -21.513  0.00  0.00    +0.277 C 
ENDBRANCH   4  25
TORSDOF 5
ENDMDL
MODEL 3
REMARK VINA RESULT:    -7.696      4.503      8.877
REMARK INTER + INTRA:          -7.557
REMARK INTER:                  -7.694
REMARK INTRA:                   0.137
REMARK UNBOUND:                 2.389
REMARK  Name = ZINC000004104688
REMARK  11 active torsions:
REMARK  status: ('A' for Active; 'I' for Inactive)
REMARK    1  A    between atoms: C_1  and  O_2
REMARK    2  A    between atoms: O_2  and  C_3
REMARK    3  A    between atoms: C_6  and  C_7
REMARK    4  A    between atoms: C_10  and  O_11
REMARK    5  A    between atoms: O_11  and  C_12
REMARK    6  A    between atoms: C_13  and  O_14
REMARK    7  A    between atoms: O_14  and  C_15
REMARK    8  A    between atoms: C_19  and  C_20
REMARK    9  A    between atoms: C_21  and  C_22
REMARK   10  A    between atoms: C_24  and  O_25
REMARK   11  A    between atoms: O_25  and  C_26
REMARK                            x       y       z     vdW  Elec       q    Type
REMARK                         _______ _______ _______ _____ _____    ______ ____
ROOT
ATOM      1  C   UNL     1       5.320   6.776 -21.889  0.00  0.00    +0.053 C 
ATOM      2  C   UNL     1       4.567   5.892 -22.474  0.00  0.00    -0.033 A 
ATOM      3  C   UNL     1       3.344   6.192 -22.797  0.00  0.00    +0.054 A 
ATOM      4  C   UNL     1       2.592   5.308 -23.382  0.00  0.00    +0.162 A 
ATOM      5  C   UNL     1       3.062   4.125 -23.644  0.00  0.00    +0.162 A 
ATOM      6  C   UNL     1       4.286   3.825 -23.321  0.00  0.00    +0.053 A 
ATOM      7  C   UNL     1       5.038   4.709 -22.736  0.00  0.00    -0.040 A 
ATOM      8  C   UNL     1       6.261   4.410 -22.413  0.00  0.00    +0.039 C 
ATOM      9  C   UNL     1       7.014   5.294 -21.828  0.00  0.00    -0.006 C 
ATOM     10  C   UNL     1       8.237   4.995 -21.505  0.00  0.00    +0.008 C 
ATOM     11  C   UNL     1       6.543   6.477 -21.566  0.00  0.00    +0.001 C 
ATOM     12  C   UNL     1       7.295   7.362 -20.981  0.00  0.00    +0.009 C 
ENDROOT
BRANCH   1  16
ATOM     13  C   UNL     1       3.905  10.324 -21.101  0.00  0.00    +0.162 A 
ATOM     14  C   UNL     1       3.973   9.428 -20.162  0.00  0.00    +0.050 A 
ATOM     15  C   UNL     1       4.445   8.246 -20.425  0.00  0.00    +0.008 A 
ATOM     16  C   UNL     1       4.849   7.959 -21.627  0.00  0.00    -0.036 A 
ATOM     17  C   UNL     1       4.781   8.856 -22.566  0.00  0.00    +0.053 A 
ATOM     18  C   UNL     1       4.310  10.038 -22.304  0.00  0.00    +0.162 A 
BRANCH  13  20
ATOM     19  C   UNL     1       4.001  12.248 -19.933  0.00  0.00    +0.277 C 
ATOM     20  O   UNL     1       3.434  11.507 -20.839  0.00  0.00    -0.491 OA
ENDBRANCH  13  20
BRANCH  18  21
ATOM     21  O   UNL     1       4.242  10.934 -23.243  0.00  0.00    -0.491 OA
ATOM     22  C   UNL     1       5.184  11.014 -24.135  0.00  0.00    +0.277 C 
ENDBRANCH  18  21
ENDBRANCH   1  16
BRANCH   5  23
ATOM     23  O   UNL     1       2.309   3.241 -24.229  0.00  0.00    -0.491 OA
ATOM     24  C   UNL     1       2.777   2.055 -24.482  0.00  0.00    +0.277 C 
ENDBRANCH   5  23
BRANCH   4  25
ATOM     25  O   UNL     1       1.368   5.607 -23.705  0.00  0.00    -0.491 OA
ATOM     26  C   UNL     1       0.379   5.152 -22.995  0.00  0.00    +0.277 C 
ENDBRANCH   4  25
TORSDOF 5
ENDMDL
MODEL 4
REMARK VINA RESULT:    -7.248      3.460      8.731
REMARK INTER + INTRA:          -6.978
REMARK INTER:                  -8.055
REMARK INTRA:                   1.077
REMARK UNBOUND:                 2.389
REMARK  Name = ZINC000004104688
REMARK  11 active torsions:
REMARK  status: ('A' for Active; 'I' for Inactive)
REMARK    1  A    between atoms: C_1  and  O_2
REMARK    2  A    between atoms: O_2  and  C_3
REMARK    3  A    between atoms: C_6  and  C_7
REMARK    4  A    between atoms: C_10  and  O_11
REMARK    5  A    between atoms: O_11  and  C_12
REMARK    6  A    between atoms: C_13  and  O_14
REMARK    7  A    between atoms: O_14  and  C_15
REMARK    8  A    between atoms: C_19  and  C_20
REMARK    9  A    between atoms: C_21  and  C_22
REMARK   10  A    between atoms: C_24  and  O_25
REMARK   11  A    between atoms: O_25  and  C_26
REMARK                            x       y       z     vdW  Elec       q    Type
REMARK                         _______ _______ _______ _____ _____    ______ ____
ROOT
ATOM      1  C   UNL     1       4.839   4.667 -22.971  0.00  0.00    +0.053 C 
ATOM      2  C   UNL     1       5.322   5.777 -22.493  0.00  0.00    -0.033 A 
ATOM      3  C   UNL     1       4.518   6.720 -22.102  0.00  0.00    +0.054 A 
ATOM      4  C   UNL     1       5.000   7.828 -21.625  0.00  0.00    +0.162 A 
ATOM      5  C   UNL     1       6.287   7.995 -21.539  0.00  0.00    +0.162 A 
ATOM      6  C   UNL     1       7.091   7.051 -21.931  0.00  0.00    +0.053 A 
ATOM      7  C   UNL     1       6.608   5.942 -22.408  0.00  0.00    -0.040 A 
ATOM      8  C   UNL     1       7.412   4.999 -22.799  0.00  0.00    +0.039 C 
ATOM      9  C   UNL     1       6.930   3.889 -23.277  0.00  0.00    -0.006 C 
ATOM     10  C   UNL     1       7.734   2.946 -23.668  0.00  0.00    +0.008 C 
ATOM     11  C   UNL     1       5.643   3.724 -23.362  0.00  0.00    +0.001 C 
ATOM     12  C   UNL     1       5.160   2.615 -23.839  0.00  0.00    +0.009 C 
ENDROOT
BRANCH   1  16
ATOM     13  C   UNL     1       0.979   4.177 -23.227  0.00  0.00    +0.162 A 
ATOM     14  C   UNL     1       1.524   5.276 -23.655  0.00  0.00    +0.050 A 
ATOM     15  C   UNL     1       2.811   5.440 -23.569  0.00  0.00    +0.008 A 
ATOM     16  C   UNL     1       3.553   4.503 -23.056  0.00  0.00    -0.036 A 
ATOM     17  C   UNL     1       3.007   3.403 -22.628  0.00  0.00    +0.053 A 
ATOM     18  C   UNL     1       1.720   3.240 -22.714  0.00  0.00    +0.162 A 
BRANCH  13  20
ATOM     19  C   UNL     1      -1.112   4.884 -22.777  0.00  0.00    +0.277 C 
ATOM     20  O   UNL     1      -0.308   4.013 -23.313  0.00  0.00    -0.491 OA
ENDBRANCH  13  20
BRANCH  18  21
ATOM     21  O   UNL     1       1.175   2.140 -22.287  0.00  0.00    -0.491 OA
ATOM     22  C   UNL     1       1.924   1.151 -21.897  0.00  0.00    +0.277 C 
ENDBRANCH  18  21
ENDBRANCH   1  16
BRANCH   5  23
ATOM     23  O   UNL     1       6.769   9.103 -21.062  0.00  0.00    -0.491 OA
ATOM     24  C   UNL     1       7.707   9.733 -21.705  0.00  0.00    +0.277 C 
ENDBRANCH   5  23
BRANCH   4  25
ATOM     25  O   UNL     1       4.196   8.773 -21.233  0.00  0.00    -0.491 OA
ATOM     26  C   UNL     1       3.896   9.747 -22.040  0.00  0.00    +0.277 C 
ENDBRANCH   4  25
TORSDOF 5
ENDMDL
MODEL 5
REMARK VINA RESULT:    -7.144      3.243      7.025
REMARK INTER + INTRA:          -6.844
REMARK INTER:                  -6.939
REMARK INTRA:                   0.095
REMARK UNBOUND:                 2.389
REMARK  Name = ZINC000004104688
REMARK  11 active torsions:
REMARK  status: ('A' for Active; 'I' for Inactive)
REMARK    1  A    between atoms: C_1  and  O_2
REMARK    2  A    between atoms: O_2  and  C_3
REMARK    3  A    between atoms: C_6  and  C_7
REMARK    4  A    between atoms: C_10  and  O_11
REMARK    5  A    between atoms: O_11  and  C_12
REMARK    6  A    between atoms: C_13  and  O_14
REMARK    7  A    between atoms: O_14  and  C_15
REMARK    8  A    between atoms: C_19  and  C_20
REMARK    9  A    between atoms: C_21  and  C_22
REMARK   10  A    between atoms: C_24  and  O_25
REMARK   11  A    between atoms: O_25  and  C_26
REMARK                            x       y       z     vdW  Elec       q    Type
REMARK                         _______ _______ _______ _____ _____    ______ ____
ROOT
ATOM      1  C   UNL     1       4.442   2.736 -22.267  0.00  0.00    +0.053 C 
ATOM      2  C   UNL     1       3.204   2.823 -22.658  0.00  0.00    -0.033 A 
ATOM      3  C   UNL     1       2.848   3.760 -23.485  0.00  0.00    +0.054 A 
ATOM      4  C   UNL     1       1.611   3.846 -23.875  0.00  0.00    +0.162 A 
ATOM      5  C   UNL     1       0.730   2.996 -23.439  0.00  0.00    +0.162 A 
ATOM      6  C   UNL     1       1.087   2.058 -22.611  0.00  0.00    +0.053 A 
ATOM      7  C   UNL     1       2.324   1.972 -22.221  0.00  0.00    -0.040 A 
ATOM      8  C   UNL     1       2.680   1.035 -21.393  0.00  0.00    +0.039 C 
ATOM      9  C   UNL     1       3.918   0.948 -21.003  0.00  0.00    -0.006 C 
ATOM     10  C   UNL     1       4.274   0.011 -20.175  0.00  0.00    +0.008 C 
ATOM     11  C   UNL     1       4.798   1.799 -21.440  0.00  0.00    +0.001 C 
ATOM     12  C   UNL     1       6.035   1.713 -21.050  0.00  0.00    +0.009 C 
ENDROOT
BRANCH   1  16
ATOM     13  C   UNL     1       7.080   5.292 -23.578  0.00  0.00    +0.162 A 
ATOM     14  C   UNL     1       6.285   5.620 -22.604  0.00  0.00    +0.050 A 
ATOM     15  C   UNL     1       5.406   4.768 -22.167  0.00  0.00    +0.008 A 
ATOM     16  C   UNL     1       5.321   3.587 -22.705  0.00  0.00    -0.036 A 
ATOM     17  C   UNL     1       6.116   3.259 -23.679  0.00  0.00    +0.053 A 
ATOM     18  C   UNL     1       6.996   4.111 -24.117  0.00  0.00    +0.162 A 
BRANCH  13  20
ATOM     19  C   UNL     1       8.555   6.947 -23.186  0.00  0.00    +0.277 C 
ATOM     20  O   UNL     1       7.959   6.143 -24.016  0.00  0.00    -0.491 OA
ENDBRANCH  13  20
BRANCH  18  21
ATOM     21  O   UNL     1       7.791   3.782 -25.091  0.00  0.00    -0.491 OA
ATOM     22  C   UNL     1       8.704   2.876 -24.908  0.00  0.00    +0.277 C 
ENDBRANCH  18  21
ENDBRANCH   1  16
BRANCH   5  23
ATOM     23  O   UNL     1      -0.506   3.082 -23.829  0.00  0.00    -0.491 OA
ATOM     24  C   UNL     1      -1.407   2.302 -23.310  0.00  0.00    +0.277 C 
ENDBRANCH   5  23
BRANCH   4  25
ATOM     25  O   UNL     1       1.254   4.784 -24.703  0.00  0.00    -0.491 OA
ATOM     26  C   UNL     1       1.088   4.510 -25.963  0.00  0.00    +0.277 C 
ENDBRANCH   4  25
TORSDOF 5
ENDMDL
