MODEL 1
REMARK VINA RESULT:    -7.195      0.000      0.000
REMARK INTER + INTRA:         -11.485
REMARK INTER:                 -10.743
REMARK INTRA:                  -0.741
REMARK UNBOUND:                 0.337
REMARK  Name = ZINC000071404304
REMARK  16 active torsions:
REMARK  status: ('A' for Active; 'I' for Inactive)
REMARK    1  A    between atoms: C_1  and  C_2
REMARK    2  A    between atoms: C_2  and  O_3
REMARK    3  A    between atoms: O_3  and  C_4
REMARK    4  A    between atoms: C_7  and  C_8
REMARK    5  A    between atoms: C_9  and  C_10
REMARK    6  A    between atoms: C_13  and  C_14
REMARK    7  A    between atoms: C_15  and  C_16
REMARK    8  A    between atoms: C_19  and  O_20
REMARK    9  A    between atoms: O_20  and  C_21
REMARK   10  A    between atoms: C_21  and  C_22
REMARK   11  A    between atoms: C_23  and  O_24
REMARK   12  A    between atoms: O_24  and  C_25
REMARK   13  A    between atoms: C_27  and  C_28
REMARK   14  A    between atoms: C_28  and  C_29
REMARK   15  A    between atoms: C_31  and  O_32
REMARK   16  A    between atoms: O_32  and  C_33
REMARK                            x       y       z     vdW  Elec       q    Type
REMARK                         _______ _______ _______ _____ _____    ______ ____
ROOT
ATOM      1  C   UNL     1       1.325   2.274 -22.675  0.00  0.00    +0.110 A 
ATOM      2  N   UNL     1       2.054   1.380 -22.073  0.00  0.00    -0.078 NA
ATOM      3  O   UNL     1       3.297   1.744 -22.167  0.00  0.00    -0.354 OA
ATOM      4  C   UNL     1       3.339   2.864 -22.828  0.00  0.00    +0.164 A 
ATOM      5  C   UNL     1       2.121   3.190 -23.141  0.00  0.00    +0.026 A 
ENDROOT
BRANCH   1   7
ATOM      6  C   UNL     1      -0.666   3.298 -22.456  0.00  0.00    +0.010 C 
ATOM      7  C   UNL     1       0.032   2.255 -22.791  0.00  0.00    +0.032 C 
BRANCH   6  11
ATOM      8  C   UNL     1      -4.551   3.239 -22.809  0.00  0.00    +0.162 A 
ATOM      9  C   UNL     1      -3.996   2.955 -21.665  0.00  0.00    +0.050 A 
ATOM     10  C   UNL     1      -2.702   2.976 -21.550  0.00  0.00    +0.012 A 
ATOM     11  C   UNL     1      -1.961   3.278 -22.573  0.00  0.00    -0.021 A 
ATOM     12  C   UNL     1      -2.515   3.562 -23.717  0.00  0.00    +0.057 A 
ATOM     13  C   UNL     1      -3.810   3.542 -23.831  0.00  0.00    +0.162 A 
BRANCH  13  14
ATOM     14  O   UNL     1      -4.364   3.825 -24.974  0.00  0.00    -0.491 OA
ATOM     15  C   UNL     1      -4.158   3.058 -26.004  0.00  0.00    +0.277 C 
ENDBRANCH  13  14
BRANCH   8  16
ATOM     16  O   UNL     1      -5.845   3.219 -22.925  0.00  0.00    -0.489 OA
BRANCH  16  18
ATOM     17  C   UNL     1      -6.937   2.025 -21.360  0.00  0.00    +0.048 C 
ATOM     18  C   UNL     1      -6.593   3.173 -21.863  0.00  0.00    +0.226 C 
ENDBRANCH  16  18
ENDBRANCH   8  16
ENDBRANCH   6  11
ENDBRANCH   1   7
BRANCH   4  19
ATOM     19  C   UNL     1       4.411   3.536 -23.121  0.00  0.00    +0.050 C 
ATOM     20  C   UNL     1       4.770   4.544 -22.382  0.00  0.00    +0.012 C 
BRANCH  20  21
ATOM     21  C   UNL     1       5.844   5.217 -22.677  0.00  0.00    -0.021 A 
ATOM     22  C   UNL     1       6.055   6.375 -22.126  0.00  0.00    +0.012 A 
ATOM     23  C   UNL     1       7.128   7.048 -22.421  0.00  0.00    +0.050 A 
ATOM     24  C   UNL     1       7.989   6.563 -23.265  0.00  0.00    +0.162 A 
ATOM     25  C   UNL     1       7.776   5.404 -23.815  0.00  0.00    +0.162 A 
ATOM     26  C   UNL     1       6.703   4.731 -23.522  0.00  0.00    +0.057 A 
BRANCH  25  27
ATOM     27  O   UNL     1       8.637   4.918 -24.661  0.00  0.00    -0.491 OA
ATOM     28  C   UNL     1       8.401   4.979 -25.938  0.00  0.00    +0.277 C 
ENDBRANCH  25  27
BRANCH  24  29
ATOM     29  O   UNL     1       9.061   7.235 -23.559  0.00  0.00    -0.489 OA
BRANCH  29  30
ATOM     30  C   UNL     1       8.962   8.452 -24.008  0.00  0.00    +0.226 C 
ATOM     31  C   UNL     1       8.840   8.666 -25.284  0.00  0.00    +0.048 C 
ENDBRANCH  29  30
ENDBRANCH  24  29
ENDBRANCH  20  21
ENDBRANCH   4  19
BRANCH   5  32
ATOM     32  C   UNL     1       1.762   4.249 -23.805  0.00  0.00    +0.038 C 
ATOM     33  C   UNL     1       1.587   4.182 -25.091  0.00  0.00    +0.009 C 
ENDBRANCH   5  32
TORSDOF 11
ENDMDL
MODEL 2
REMARK VINA RESULT:    -6.516      1.779      2.628
REMARK INTER + INTRA:         -10.369
REMARK INTER:                 -10.042
REMARK INTRA:                  -0.327
REMARK UNBOUND:                 0.337
REMARK  Name = ZINC000071404304
REMARK  16 active torsions:
REMARK  status: ('A' for Active; 'I' for Inactive)
REMARK    1  A    between atoms: C_1  and  C_2
REMARK    2  A    between atoms: C_2  and  O_3
REMARK    3  A    between atoms: O_3  and  C_4
REMARK    4  A    between atoms: C_7  and  C_8
REMARK    5  A    between atoms: C_9  and  C_10
REMARK    6  A    between atoms: C_13  and  C_14
REMARK    7  A    between atoms: C_15  and  C_16
REMARK    8  A    between atoms: C_19  and  O_20
REMARK    9  A    between atoms: O_20  and  C_21
REMARK   10  A    between atoms: C_21  and  C_22
REMARK   11  A    between atoms: C_23  and  O_24
REMARK   12  A    between atoms: O_24  and  C_25
REMARK   13  A    between atoms: C_27  and  C_28
REMARK   14  A    between atoms: C_28  and  C_29
REMARK   15  A    between atoms: C_31  and  O_32
REMARK   16  A    between atoms: O_32  and  C_33
REMARK                            x       y       z     vdW  Elec       q    Type
REMARK                         _______ _______ _______ _____ _____    ______ ____
ROOT
ATOM      1  C   UNL     1       2.631   2.864 -23.015  0.00  0.00    +0.110 A 
ATOM      2  N   UNL     1       3.589   1.985 -23.012  0.00  0.00    -0.078 NA
ATOM      3  O   UNL     1       4.721   2.621 -22.979  0.00  0.00    -0.354 OA
ATOM      4  C   UNL     1       4.463   3.897 -22.962  0.00  0.00    +0.164 A 
ATOM      5  C   UNL     1       3.172   4.045 -22.984  0.00  0.00    +0.026 A 
ENDROOT
BRANCH   1   7
ATOM      6  C   UNL     1       0.533   3.328 -22.345  0.00  0.00    +0.010 C 
ATOM      7  C   UNL     1       1.358   2.607 -23.044  0.00  0.00    +0.032 C 
BRANCH   6  11
ATOM      8  C   UNL     1      -3.290   2.557 -22.438  0.00  0.00    +0.162 A 
ATOM      9  C   UNL     1      -2.611   2.356 -21.344  0.00  0.00    +0.050 A 
ATOM     10  C   UNL     1      -1.337   2.614 -21.316  0.00  0.00    +0.012 A 
ATOM     11  C   UNL     1      -0.740   3.071 -22.374  0.00  0.00    -0.021 A 
ATOM     12  C   UNL     1      -1.419   3.272 -23.469  0.00  0.00    +0.057 A 
ATOM     13  C   UNL     1      -2.692   3.015 -23.496  0.00  0.00    +0.162 A 
BRANCH  13  14
ATOM     14  O   UNL     1      -3.370   3.216 -24.589  0.00  0.00    -0.491 OA
ATOM     15  C   UNL     1      -3.420   4.404 -25.113  0.00  0.00    +0.277 C 
ENDBRANCH  13  14
BRANCH   8  16
ATOM     16  O   UNL     1      -4.563   2.300 -22.467  0.00  0.00    -0.489 OA
BRANCH  16  18
ATOM     17  C   UNL     1      -6.612   2.627 -21.593  0.00  0.00    +0.048 C 
ATOM     18  C   UNL     1      -5.390   3.031 -21.781  0.00  0.00    +0.226 C 
ENDBRANCH  16  18
ENDBRANCH   8  16
ENDBRANCH   6  11
ENDBRANCH   1   7
BRANCH   4  19
ATOM     19  C   UNL     1       5.342   4.852 -22.929  0.00  0.00    +0.050 C 
ATOM     20  C   UNL     1       5.377   5.669 -21.918  0.00  0.00    +0.012 C 
BRANCH  20  21
ATOM     21  C   UNL     1       6.259   6.626 -21.885  0.00  0.00    -0.021 A 
ATOM     22  C   UNL     1       7.409   6.468 -22.469  0.00  0.00    +0.012 A 
ATOM     23  C   UNL     1       8.290   7.424 -22.436  0.00  0.00    +0.050 A 
ATOM     24  C   UNL     1       8.020   8.537 -21.820  0.00  0.00    +0.162 A 
ATOM     25  C   UNL     1       6.868   8.693 -21.238  0.00  0.00    +0.162 A 
ATOM     26  C   UNL     1       5.987   7.738 -21.270  0.00  0.00    +0.057 A 
BRANCH  25  27
ATOM     27  O   UNL     1       6.598   9.806 -20.622  0.00  0.00    -0.491 OA
ATOM     28  C   UNL     1       5.553  10.501 -20.962  0.00  0.00    +0.277 C 
ENDBRANCH  25  27
BRANCH  24  29
ATOM     29  O   UNL     1       8.900   9.492 -21.788  0.00  0.00    -0.489 OA
BRANCH  29  30
ATOM     30  C   UNL     1       9.061  10.263 -22.823  0.00  0.00    +0.226 C 
ATOM     31  C   UNL     1       8.924  11.550 -22.702  0.00  0.00    +0.048 C 
ENDBRANCH  29  30
ENDBRANCH  24  29
ENDBRANCH  20  21
ENDBRANCH   4  19
BRANCH   5  32
ATOM     32  C   UNL     1       2.534   5.178 -22.977  0.00  0.00    +0.038 C 
ATOM     33  C   UNL     1       1.934   5.594 -24.053  0.00  0.00    +0.009 C 
ENDBRANCH   5  32
TORSDOF 11
ENDMDL
MODEL 3
REMARK VINA RESULT:    -6.486      1.065     10.735
REMARK INTER + INTRA:         -10.321
REMARK INTER:                  -9.926
REMARK INTRA:                  -0.395
REMARK UNBOUND:                 0.337
REMARK  Name = ZINC000071404304
REMARK  16 active torsions:
REMARK  status: ('A' for Active; 'I' for Inactive)
REMARK    1  A    between atoms: C_1  and  C_2
REMARK    2  A    between atoms: C_2  and  O_3
REMARK    3  A    between atoms: O_3  and  C_4
REMARK    4  A    between atoms: C_7  and  C_8
REMARK    5  A    between atoms: C_9  and  C_10
REMARK    6  A    between atoms: C_13  and  C_14
REMARK    7  A    between atoms: C_15  and  C_16
REMARK    8  A    between atoms: C_19  and  O_20
REMARK    9  A    between atoms: O_20  and  C_21
REMARK   10  A    between atoms: C_21  and  C_22
REMARK   11  A    between atoms: C_23  and  O_24
REMARK   12  A    between atoms: O_24  and  C_25
REMARK   13  A    between atoms: C_27  and  C_28
REMARK   14  A    between atoms: C_28  and  C_29
REMARK   15  A    between atoms: C_31  and  O_32
REMARK   16  A    between atoms: O_32  and  C_33
REMARK                            x       y       z     vdW  Elec       q    Type
REMARK                         _______ _______ _______ _____ _____    ______ ____
ROOT
ATOM      1  C   UNL     1       3.968   3.462 -23.324  0.00  0.00    +0.110 A 
ATOM      2  N   UNL     1       4.017   2.170 -23.189  0.00  0.00    -0.078 NA
ATOM      3  O   UNL     1       2.802   1.713 -23.228  0.00  0.00    -0.354 OA
ATOM      4  C   UNL     1       1.999   2.724 -23.388  0.00  0.00    +0.164 A 
ATOM      5  C   UNL     1       2.720   3.803 -23.447  0.00  0.00    +0.026 A 
ENDROOT
BRANCH   1   7
ATOM      6  C   UNL     1       4.985   5.326 -22.577  0.00  0.00    +0.010 C 
ATOM      7  C   UNL     1       4.985   4.270 -23.335  0.00  0.00    +0.032 C 
BRANCH   6  11
ATOM      8  C   UNL     1       8.043   7.747 -22.613  0.00  0.00    +0.162 A 
ATOM      9  C   UNL     1       7.025   7.995 -21.840  0.00  0.00    +0.050 A 
ATOM     10  C   UNL     1       6.007   7.187 -21.830  0.00  0.00    +0.012 A 
ATOM     11  C   UNL     1       6.003   6.133 -22.588  0.00  0.00    -0.021 A 
ATOM     12  C   UNL     1       7.022   5.884 -23.362  0.00  0.00    +0.057 A 
ATOM     13  C   UNL     1       8.039   6.693 -23.372  0.00  0.00    +0.162 A 
BRANCH  13  14
ATOM     14  O   UNL     1       9.056   6.445 -24.145  0.00  0.00    -0.491 OA
ATOM     15  C   UNL     1       8.954   5.555 -25.088  0.00  0.00    +0.277 C 
ENDBRANCH  13  14
BRANCH   8  16
ATOM     16  O   UNL     1       9.062   8.554 -22.625  0.00  0.00    -0.489 OA
BRANCH  16  18
ATOM     17  C   UNL     1       8.976  10.149 -24.212  0.00  0.00    +0.048 C 
ATOM     18  C   UNL     1       8.900   9.799 -22.961  0.00  0.00    +0.226 C 
ENDBRANCH  16  18
ENDBRANCH   8  16
ENDBRANCH   6  11
ENDBRANCH   1   7
BRANCH   4  19
ATOM     19  C   UNL     1       0.704   2.663 -23.473  0.00  0.00    +0.050 C 
ATOM     20  C   UNL     1      -0.034   3.127 -22.509  0.00  0.00    +0.012 C 
BRANCH  20  21
ATOM     21  C   UNL     1      -1.331   3.066 -22.594  0.00  0.00    -0.021 A 
ATOM     22  C   UNL     1      -2.031   2.674 -21.571  0.00  0.00    +0.012 A 
ATOM     23  C   UNL     1      -3.327   2.613 -21.657  0.00  0.00    +0.050 A 
ATOM     24  C   UNL     1      -3.922   2.942 -22.765  0.00  0.00    +0.162 A 
ATOM     25  C   UNL     1      -3.220   3.333 -23.787  0.00  0.00    +0.162 A 
ATOM     26  C   UNL     1      -1.925   3.395 -23.702  0.00  0.00    +0.057 A 
BRANCH  25  27
ATOM     27  O   UNL     1      -3.815   3.663 -24.896  0.00  0.00    -0.491 OA
ATOM     28  C   UNL     1      -3.252   3.404 -26.039  0.00  0.00    +0.277 C 
ENDBRANCH  25  27
BRANCH  24  29
ATOM     29  O   UNL     1      -5.217   2.881 -22.850  0.00  0.00    -0.489 OA
BRANCH  29  30
ATOM     30  C   UNL     1      -5.947   3.052 -21.787  0.00  0.00    +0.226 C 
ATOM     31  C   UNL     1      -7.050   2.379 -21.642  0.00  0.00    +0.048 C 
ENDBRANCH  29  30
ENDBRANCH  24  29
ENDBRANCH  20  21
ENDBRANCH   4  19
BRANCH   5  32
ATOM     32  C   UNL     1       2.270   5.014 -23.602  0.00  0.00    +0.038 C 
ATOM     33  C   UNL     1       2.015   5.751 -22.562  0.00  0.00    +0.009 C 
ENDBRANCH   5  32
TORSDOF 11
ENDMDL
MODEL 4
REMARK VINA RESULT:    -6.122      1.985      3.289
REMARK INTER + INTRA:          -9.722
REMARK INTER:                 -10.147
REMARK INTRA:                   0.425
REMARK UNBOUND:                 0.337
REMARK  Name = ZINC000071404304
REMARK  16 active torsions:
REMARK  status: ('A' for Active; 'I' for Inactive)
REMARK    1  A    between atoms: C_1  and  C_2
REMARK    2  A    between atoms: C_2  and  O_3
REMARK    3  A    between atoms: O_3  and  C_4
REMARK    4  A    between atoms: C_7  and  C_8
REMARK    5  A    between atoms: C_9  and  C_10
REMARK    6  A    between atoms: C_13  and  C_14
REMARK    7  A    between atoms: C_15  and  C_16
REMARK    8  A    between atoms: C_19  and  O_20
REMARK    9  A    between atoms: O_20  and  C_21
REMARK   10  A    between atoms: C_21  and  C_22
REMARK   11  A    between atoms: C_23  and  O_24
REMARK   12  A    between atoms: O_24  and  C_25
REMARK   13  A    between atoms: C_27  and  C_28
REMARK   14  A    between atoms: C_28  and  C_29
REMARK   15  A    between atoms: C_31  and  O_32
REMARK   16  A    between atoms: O_32  and  C_33
REMARK                            x       y       z     vdW  Elec       q    Type
REMARK                         _______ _______ _______ _____ _____    ______ ____
ROOT
ATOM      1  C   UNL     1       2.683   3.066 -23.037  0.00  0.00    +0.110 A 
ATOM      2  N   UNL     1       3.554   2.206 -22.597  0.00  0.00    -0.078 NA
ATOM      3  O   UNL     1       4.690   2.820 -22.456  0.00  0.00    -0.354 OA
ATOM      4  C   UNL     1       4.522   4.061 -22.809  0.00  0.00    +0.164 A 
ATOM      5  C   UNL     1       3.283   4.211 -23.167  0.00  0.00    +0.026 A 
ENDROOT
BRANCH   1   7
ATOM      6  C   UNL     1       0.709   3.719 -23.898  0.00  0.00    +0.010 C 
ATOM      7  C   UNL     1       1.434   2.823 -23.299  0.00  0.00    +0.032 C 
BRANCH   6  11
ATOM      8  C   UNL     1      -3.042   2.986 -24.680  0.00  0.00    +0.162 A 
ATOM      9  C   UNL     1      -2.223   3.293 -25.645  0.00  0.00    +0.050 A 
ATOM     10  C   UNL     1      -0.974   3.537 -25.382  0.00  0.00    +0.012 A 
ATOM     11  C   UNL     1      -0.540   3.475 -24.160  0.00  0.00    -0.021 A 
ATOM     12  C   UNL     1      -1.359   3.168 -23.194  0.00  0.00    +0.057 A 
ATOM     13  C   UNL     1      -2.608   2.924 -23.458  0.00  0.00    +0.162 A 
BRANCH  13  14
ATOM     14  O   UNL     1      -3.426   2.618 -22.493  0.00  0.00    -0.491 OA
ATOM     15  C   UNL     1      -3.012   2.632 -21.261  0.00  0.00    +0.277 C 
ENDBRANCH  13  14
BRANCH   8  16
ATOM     16  O   UNL     1      -4.291   2.742 -24.942  0.00  0.00    -0.489 OA
BRANCH  16  18
ATOM     17  C   UNL     1      -5.223   4.755 -24.556  0.00  0.00    +0.048 C 
ATOM     18  C   UNL     1      -5.078   3.708 -25.313  0.00  0.00    +0.226 C 
ENDBRANCH  16  18
ENDBRANCH   8  16
ENDBRANCH   6  11
ENDBRANCH   1   7
BRANCH   4  19
ATOM     19  C   UNL     1       5.435   4.985 -22.804  0.00  0.00    +0.050 C 
ATOM     20  C   UNL     1       5.390   5.939 -21.922  0.00  0.00    +0.012 C 
BRANCH  20  21
ATOM     21  C   UNL     1       6.304   6.865 -21.917  0.00  0.00    -0.021 A 
ATOM     22  C   UNL     1       7.435   6.663 -22.526  0.00  0.00    +0.012 A 
ATOM     23  C   UNL     1       8.348   7.588 -22.522  0.00  0.00    +0.050 A 
ATOM     24  C   UNL     1       8.132   8.714 -21.908  0.00  0.00    +0.162 A 
ATOM     25  C   UNL     1       7.001   8.914 -21.299  0.00  0.00    +0.162 A 
ATOM     26  C   UNL     1       6.086   7.989 -21.304  0.00  0.00    +0.057 A 
BRANCH  25  27
ATOM     27  O   UNL     1       6.783  10.040 -20.685  0.00  0.00    -0.491 OA
ATOM     28  C   UNL     1       5.673  10.687 -20.886  0.00  0.00    +0.277 C 
ENDBRANCH  25  27
BRANCH  24  29
ATOM     29  O   UNL     1       9.045   9.637 -21.904  0.00  0.00    -0.489 OA
BRANCH  29  30
ATOM     30  C   UNL     1       9.049  10.552 -22.828  0.00  0.00    +0.226 C 
ATOM     31  C   UNL     1       9.060  11.809 -22.498  0.00  0.00    +0.048 C 
ENDBRANCH  29  30
ENDBRANCH  24  29
ENDBRANCH  20  21
ENDBRANCH   4  19
BRANCH   5  32
ATOM     32  C   UNL     1       2.737   5.316 -23.584  0.00  0.00    +0.038 C 
ATOM     33  C   UNL     1       2.418   6.246 -22.733  0.00  0.00    +0.009 C 
ENDBRANCH   5  32
TORSDOF 11
ENDMDL
MODEL 5
REMARK VINA RESULT:    -5.716      2.170     10.473
REMARK INTER + INTRA:          -9.054
REMARK INTER:                 -10.214
REMARK INTRA:                   1.159
REMARK UNBOUND:                 0.337
REMARK  Name = ZINC000071404304
REMARK  16 active torsions:
REMARK  status: ('A' for Active; 'I' for Inactive)
REMARK    1  A    between atoms: C_1  and  C_2
REMARK    2  A    between atoms: C_2  and  O_3
REMARK    3  A    between atoms: O_3  and  C_4
REMARK    4  A    between atoms: C_7  and  C_8
REMARK    5  A    between atoms: C_9  and  C_10
REMARK    6  A    between atoms: C_13  and  C_14
REMARK    7  A    between atoms: C_15  and  C_16
REMARK    8  A    between atoms: C_19  and  O_20
REMARK    9  A    between atoms: O_20  and  C_21
REMARK   10  A    between atoms: C_21  and  C_22
REMARK   11  A    between atoms: C_23  and  O_24
REMARK   12  A    between atoms: O_24  and  C_25
REMARK   13  A    between atoms: C_27  and  C_28
REMARK   14  A    between atoms: C_28  and  C_29
REMARK   15  A    between atoms: C_31  and  O_32
REMARK   16  A    between atoms: O_32  and  C_33
REMARK                            x       y       z     vdW  Elec       q    Type
REMARK                         _______ _______ _______ _____ _____    ______ ____
ROOT
ATOM      1  C   UNL     1       3.835   2.862 -23.626  0.00  0.00    +0.110 A 
ATOM      2  N   UNL     1       3.882   1.995 -24.594  0.00  0.00    -0.078 NA
ATOM      3  O   UNL     1       2.665   1.745 -24.971  0.00  0.00    -0.354 OA
ATOM      4  C   UNL     1       1.863   2.460 -24.236  0.00  0.00    +0.164 A 
ATOM      5  C   UNL     1       2.587   3.149 -23.406  0.00  0.00    +0.026 A 
ENDROOT
BRANCH   1   7
ATOM      6  C   UNL     1       4.968   4.641 -22.842  0.00  0.00    +0.010 C 
ATOM      7  C   UNL     1       4.855   3.355 -22.992  0.00  0.00    +0.032 C 
BRANCH   6  11
ATOM      8  C   UNL     1       8.032   6.125 -20.936  0.00  0.00    +0.162 A 
ATOM      9  C   UNL     1       7.881   4.834 -21.021  0.00  0.00    +0.050 A 
ATOM     10  C   UNL     1       6.859   4.342 -21.657  0.00  0.00    +0.012 A 
ATOM     11  C   UNL     1       5.990   5.134 -22.207  0.00  0.00    -0.021 A 
ATOM     12  C   UNL     1       6.141   6.426 -22.122  0.00  0.00    +0.057 A 
ATOM     13  C   UNL     1       7.163   6.917 -21.486  0.00  0.00    +0.162 A 
BRANCH  13  14
ATOM     14  O   UNL     1       7.314   8.206 -21.401  0.00  0.00    -0.491 OA
ATOM     15  C   UNL     1       6.429   8.925 -20.775  0.00  0.00    +0.277 C 
ENDBRANCH  13  14
BRANCH   8  16
ATOM     16  O   UNL     1       9.054   6.617 -20.301  0.00  0.00    -0.489 OA
BRANCH  16  18
ATOM     17  C   UNL     1       9.062   7.848 -18.416  0.00  0.00    +0.048 C 
ATOM     18  C   UNL     1       9.039   6.688 -19.003  0.00  0.00    +0.226 C 
ENDBRANCH  16  18
ENDBRANCH   8  16
ENDBRANCH   6  11
ENDBRANCH   1   7
BRANCH   4  19
ATOM     19  C   UNL     1       0.566   2.479 -24.319  0.00  0.00    +0.050 C 
ATOM     20  C   UNL     1      -0.052   3.592 -24.579  0.00  0.00    +0.012 C 
BRANCH  20  21
ATOM     21  C   UNL     1      -1.351   3.611 -24.662  0.00  0.00    -0.021 A 
ATOM     22  C   UNL     1      -2.070   3.586 -23.579  0.00  0.00    +0.012 A 
ATOM     23  C   UNL     1      -3.368   3.605 -23.662  0.00  0.00    +0.050 A 
ATOM     24  C   UNL     1      -3.945   3.649 -24.826  0.00  0.00    +0.162 A 
ATOM     25  C   UNL     1      -3.224   3.674 -25.907  0.00  0.00    +0.162 A 
ATOM     26  C   UNL     1      -1.926   3.655 -25.826  0.00  0.00    +0.057 A 
BRANCH  25  27
ATOM     27  O   UNL     1      -3.801   3.717 -27.073  0.00  0.00    -0.491 OA
ATOM     28  C   UNL     1      -3.164   3.308 -28.130  0.00  0.00    +0.277 C 
ENDBRANCH  25  27
BRANCH  24  29
ATOM     29  O   UNL     1      -5.241   3.667 -24.909  0.00  0.00    -0.489 OA
BRANCH  29  30
ATOM     30  C   UNL     1      -5.955   3.952 -23.859  0.00  0.00    +0.226 C 
ATOM     31  C   UNL     1      -5.711   3.360 -22.728  0.00  0.00    +0.048 C 
ENDBRANCH  29  30
ENDBRANCH  24  29
ENDBRANCH  20  21
ENDBRANCH   4  19
BRANCH   5  32
ATOM     32  C   UNL     1       2.140   3.980 -22.512  0.00  0.00    +0.038 C 
ATOM     33  C   UNL     1       2.007   5.240 -22.803  0.00  0.00    +0.009 C 
ENDBRANCH   5  32
TORSDOF 11
ENDMDL
MODEL 6
REMARK VINA RESULT:    -5.348      1.216      2.059
REMARK INTER + INTRA:          -8.451
REMARK INTER:                  -9.003
REMARK INTRA:                   0.552
REMARK UNBOUND:                 0.337
REMARK  Name = ZINC000071404304
REMARK  16 active torsions:
REMARK  status: ('A' for Active; 'I' for Inactive)
REMARK    1  A    between atoms: C_1  and  C_2
REMARK    2  A    between atoms: C_2  and  O_3
REMARK    3  A    between atoms: O_3  and  C_4
REMARK    4  A    between atoms: C_7  and  C_8
REMARK    5  A    between atoms: C_9  and  C_10
REMARK    6  A    between atoms: C_13  and  C_14
REMARK    7  A    between atoms: C_15  and  C_16
REMARK    8  A    between atoms: C_19  and  O_20
REMARK    9  A    between atoms: O_20  and  C_21
REMARK   10  A    between atoms: C_21  and  C_22
REMARK   11  A    between atoms: C_23  and  O_24
REMARK   12  A    between atoms: O_24  and  C_25
REMARK   13  A    between atoms: C_27  and  C_28
REMARK   14  A    between atoms: C_28  and  C_29
REMARK   15  A    between atoms: C_31  and  O_32
REMARK   16  A    between atoms: O_32  and  C_33
REMARK                            x       y       z     vdW  Elec       q    Type
REMARK                         _______ _______ _______ _____ _____    ______ ____
ROOT
ATOM      1  C   UNL     1       2.209   2.416 -22.909  0.00  0.00    +0.110 A 
ATOM      2  N   UNL     1       3.067   1.482 -22.620  0.00  0.00    -0.078 NA
ATOM      3  O   UNL     1       4.257   2.001 -22.655  0.00  0.00    -0.354 OA
ATOM      4  C   UNL     1       4.136   3.259 -22.966  0.00  0.00    +0.164 A 
ATOM      5  C   UNL     1       2.872   3.514 -23.123  0.00  0.00    +0.026 A 
ENDROOT
BRANCH   1   7
ATOM      6  C   UNL     1       0.142   3.258 -22.626  0.00  0.00    +0.010 C 
ATOM      7  C   UNL     1       0.920   2.277 -22.974  0.00  0.00    +0.032 C 
BRANCH   6  11
ATOM      8  C   UNL     1      -3.732   2.838 -22.816  0.00  0.00    +0.162 A 
ATOM      9  C   UNL     1      -3.035   2.958 -23.910  0.00  0.00    +0.050 A 
ATOM     10  C   UNL     1      -1.745   3.098 -23.844  0.00  0.00    +0.012 A 
ATOM     11  C   UNL     1      -1.148   3.118 -22.691  0.00  0.00    -0.021 A 
ATOM     12  C   UNL     1      -1.845   2.998 -21.596  0.00  0.00    +0.057 A 
ATOM     13  C   UNL     1      -3.135   2.858 -21.662  0.00  0.00    +0.162 A 
BRANCH  13  14
ATOM     14  O   UNL     1      -3.831   2.739 -20.569  0.00  0.00    -0.491 OA
ATOM     15  C   UNL     1      -3.558   3.485 -19.540  0.00  0.00    +0.277 C 
ENDBRANCH  13  14
BRANCH   8  16
ATOM     16  O   UNL     1      -5.022   2.698 -22.880  0.00  0.00    -0.489 OA
BRANCH  16  18
ATOM     17  C   UNL     1      -5.327   4.607 -24.034  0.00  0.00    +0.048 C 
ATOM     18  C   UNL     1      -5.771   3.711 -23.203  0.00  0.00    +0.226 C 
ENDBRANCH  16  18
ENDBRANCH   8  16
ENDBRANCH   6  11
ENDBRANCH   1   7
BRANCH   4  19
ATOM     19  C   UNL     1       5.110   4.109 -23.096  0.00  0.00    +0.050 C 
ATOM     20  C   UNL     1       5.155   5.167 -22.342  0.00  0.00    +0.012 C 
BRANCH  20  21
ATOM     21  C   UNL     1       6.131   6.018 -22.473  0.00  0.00    -0.021 A 
ATOM     22  C   UNL     1       6.200   7.051 -21.687  0.00  0.00    +0.012 A 
ATOM     23  C   UNL     1       7.176   7.901 -21.818  0.00  0.00    +0.050 A 
ATOM     24  C   UNL     1       8.080   7.719 -22.735  0.00  0.00    +0.162 A 
ATOM     25  C   UNL     1       8.008   6.685 -23.520  0.00  0.00    +0.162 A 
ATOM     26  C   UNL     1       7.034   5.835 -23.390  0.00  0.00    +0.057 A 
BRANCH  25  27
ATOM     27  O   UNL     1       8.912   6.502 -24.437  0.00  0.00    -0.491 OA
ATOM     28  C   UNL     1       8.626   5.819 -25.506  0.00  0.00    +0.277 C 
ENDBRANCH  25  27
BRANCH  24  29
ATOM     29  O   UNL     1       9.053   8.569 -22.865  0.00  0.00    -0.489 OA
BRANCH  29  30
ATOM     30  C   UNL     1       8.962   9.534 -23.732  0.00  0.00    +0.226 C 
ATOM     31  C   UNL     1       8.877  10.766 -23.325  0.00  0.00    +0.048 C 
ENDBRANCH  29  30
ENDBRANCH  24  29
ENDBRANCH  20  21
ENDBRANCH   4  19
BRANCH   5  32
ATOM     32  C   UNL     1       2.359   4.666 -23.438  0.00  0.00    +0.038 C 
ATOM     33  C   UNL     1       2.049   4.924 -24.675  0.00  0.00    +0.009 C 
ENDBRANCH   5  32
TORSDOF 11
ENDMDL
MODEL 7
REMARK VINA RESULT:    -5.104      1.543      2.027
REMARK INTER + INTRA:          -8.049
REMARK INTER:                 -10.771
REMARK INTRA:                   2.722
REMARK UNBOUND:                 0.337
REMARK  Name = ZINC000071404304
REMARK  16 active torsions:
REMARK  status: ('A' for Active; 'I' for Inactive)
REMARK    1  A    between atoms: C_1  and  C_2
REMARK    2  A    between atoms: C_2  and  O_3
REMARK    3  A    between atoms: O_3  and  C_4
REMARK    4  A    between atoms: C_7  and  C_8
REMARK    5  A    between atoms: C_9  and  C_10
REMARK    6  A    between atoms: C_13  and  C_14
REMARK    7  A    between atoms: C_15  and  C_16
REMARK    8  A    between atoms: C_19  and  O_20
REMARK    9  A    between atoms: O_20  and  C_21
REMARK   10  A    between atoms: C_21  and  C_22
REMARK   11  A    between atoms: C_23  and  O_24
REMARK   12  A    between atoms: O_24  and  C_25
REMARK   13  A    between atoms: C_27  and  C_28
REMARK   14  A    between atoms: C_28  and  C_29
REMARK   15  A    between atoms: C_31  and  O_32
REMARK   16  A    between atoms: O_32  and  C_33
REMARK                            x       y       z     vdW  Elec       q    Type
REMARK                         _______ _______ _______ _____ _____    ______ ____
ROOT
ATOM      1  C   UNL     1       1.503   2.489 -24.258  0.00  0.00    +0.110 A 
ATOM      2  N   UNL     1       2.184   1.564 -24.868  0.00  0.00    -0.078 NA
ATOM      3  O   UNL     1       3.442   1.743 -24.596  0.00  0.00    -0.354 OA
ATOM      4  C   UNL     1       3.540   2.781 -23.817  0.00  0.00    +0.164 A 
ATOM      5  C   UNL     1       2.343   3.240 -23.609  0.00  0.00    +0.026 A 
ENDROOT
BRANCH   1   7
ATOM      6  C   UNL     1      -0.408   3.153 -23.273  0.00  0.00    +0.010 C 
ATOM      7  C   UNL     1       0.214   2.637 -24.291  0.00  0.00    +0.032 C 
BRANCH   6  11
ATOM      8  C   UNL     1      -4.283   3.596 -23.379  0.00  0.00    +0.162 A 
ATOM      9  C   UNL     1      -3.695   3.264 -22.265  0.00  0.00    +0.050 A 
ATOM     10  C   UNL     1      -2.404   3.117 -22.232  0.00  0.00    +0.012 A 
ATOM     11  C   UNL     1      -1.699   3.300 -23.307  0.00  0.00    -0.021 A 
ATOM     12  C   UNL     1      -2.286   3.632 -24.422  0.00  0.00    +0.057 A 
ATOM     13  C   UNL     1      -3.577   3.779 -24.454  0.00  0.00    +0.162 A 
BRANCH  13  14
ATOM     14  O   UNL     1      -4.164   4.111 -25.567  0.00  0.00    -0.491 OA
ATOM     15  C   UNL     1      -4.019   3.368 -26.625  0.00  0.00    +0.277 C 
ENDBRANCH  13  14
BRANCH   8  16
ATOM     16  O   UNL     1      -5.573   3.743 -23.413  0.00  0.00    -0.489 OA
BRANCH  16  18
ATOM     17  C   UNL     1      -5.987   2.788 -21.417  0.00  0.00    +0.048 C 
ATOM     18  C   UNL     1      -6.331   3.013 -22.651  0.00  0.00    +0.226 C 
ENDBRANCH  16  18
ENDBRANCH   8  16
ENDBRANCH   6  11
ENDBRANCH   1   7
BRANCH   4  19
ATOM     19  C   UNL     1       4.642   3.270 -23.333  0.00  0.00    +0.050 C 
ATOM     20  C   UNL     1       4.650   4.457 -22.803  0.00  0.00    +0.012 C 
BRANCH  20  21
ATOM     21  C   UNL     1       5.754   4.946 -22.319  0.00  0.00    -0.021 A 
ATOM     22  C   UNL     1       6.086   4.700 -21.086  0.00  0.00    +0.012 A 
ATOM     23  C   UNL     1       7.190   5.189 -20.602  0.00  0.00    +0.050 A 
ATOM     24  C   UNL     1       7.960   5.922 -21.350  0.00  0.00    +0.162 A 
ATOM     25  C   UNL     1       7.626   6.166 -22.582  0.00  0.00    +0.162 A 
ATOM     26  C   UNL     1       6.523   5.678 -23.067  0.00  0.00    +0.057 A 
BRANCH  25  27
ATOM     27  O   UNL     1       8.396   6.900 -23.331  0.00  0.00    -0.491 OA
ATOM     28  C   UNL     1       8.091   7.101 -24.579  0.00  0.00    +0.277 C 
ENDBRANCH  25  27
BRANCH  24  29
ATOM     29  O   UNL     1       9.062   6.410 -20.866  0.00  0.00    -0.489 OA
BRANCH  29  30
ATOM     30  C   UNL     1       9.018   7.335 -19.953  0.00  0.00    +0.226 C 
ATOM     31  C   UNL     1       8.717   7.024 -18.727  0.00  0.00    +0.048 C 
ENDBRANCH  29  30
ENDBRANCH  24  29
ENDBRANCH  20  21
ENDBRANCH   4  19
BRANCH   5  32
ATOM     32  C   UNL     1       2.038   4.272 -22.878  0.00  0.00    +0.038 C 
ATOM     33  C   UNL     1       1.976   5.455 -23.415  0.00  0.00    +0.009 C 
ENDBRANCH   5  32
TORSDOF 11
ENDMDL
MODEL 8
REMARK VINA RESULT:    -4.520      7.747     12.908
REMARK INTER + INTRA:          -7.090
REMARK INTER:                  -5.435
REMARK INTRA:                  -1.655
REMARK UNBOUND:                 0.337
REMARK  Name = ZINC000071404304
REMARK  16 active torsions:
REMARK  status: ('A' for Active; 'I' for Inactive)
REMARK    1  A    between atoms: C_1  and  C_2
REMARK    2  A    between atoms: C_2  and  O_3
REMARK    3  A    between atoms: O_3  and  C_4
REMARK    4  A    between atoms: C_7  and  C_8
REMARK    5  A    between atoms: C_9  and  C_10
REMARK    6  A    between atoms: C_13  and  C_14
REMARK    7  A    between atoms: C_15  and  C_16
REMARK    8  A    between atoms: C_19  and  O_20
REMARK    9  A    between atoms: O_20  and  C_21
REMARK   10  A    between atoms: C_21  and  C_22
REMARK   11  A    between atoms: C_23  and  O_24
REMARK   12  A    between atoms: O_24  and  C_25
REMARK   13  A    between atoms: C_27  and  C_28
REMARK   14  A    between atoms: C_28  and  C_29
REMARK   15  A    between atoms: C_31  and  O_32
REMARK   16  A    between atoms: O_32  and  C_33
REMARK                            x       y       z     vdW  Elec       q    Type
REMARK                         _______ _______ _______ _____ _____    ______ ____
ROOT
ATOM      1  C   UNL     1       2.495  12.587 -22.888  0.00  0.00    +0.110 A 
ATOM      2  N   UNL     1       1.674  13.152 -22.052  0.00  0.00    -0.078 NA
ATOM      3  O   UNL     1       0.605  13.493 -22.704  0.00  0.00    -0.354 OA
ATOM      4  C   UNL     1       0.763  13.140 -23.947  0.00  0.00    +0.164 A 
ATOM      5  C   UNL     1       1.930  12.581 -24.059  0.00  0.00    +0.026 A 
ENDROOT
BRANCH   1   7
ATOM      6  C   UNL     1       3.783  10.948 -22.042  0.00  0.00    +0.010 C 
ATOM      7  C   UNL     1       3.670  12.114 -22.605  0.00  0.00    +0.032 C 
BRANCH   6  11
ATOM      8  C   UNL     1       7.318   9.531 -21.193  0.00  0.00    +0.162 A 
ATOM      9  C   UNL     1       6.255   8.985 -20.675  0.00  0.00    +0.050 A 
ATOM     10  C   UNL     1       5.079   9.458 -20.959  0.00  0.00    +0.012 A 
ATOM     11  C   UNL     1       4.960  10.475 -21.758  0.00  0.00    -0.021 A 
ATOM     12  C   UNL     1       6.023  11.022 -22.277  0.00  0.00    +0.057 A 
ATOM     13  C   UNL     1       7.199  10.548 -21.993  0.00  0.00    +0.162 A 
BRANCH  13  14
ATOM     14  O   UNL     1       8.261  11.094 -22.511  0.00  0.00    -0.491 OA
ATOM     15  C   UNL     1       8.633  12.280 -22.129  0.00  0.00    +0.277 C 
ENDBRANCH  13  14
BRANCH   8  16
ATOM     16  O   UNL     1       8.495   9.058 -20.910  0.00  0.00    -0.489 OA
BRANCH  16  18
ATOM     17  C   UNL     1       8.848   7.469 -22.465  0.00  0.00    +0.048 C 
ATOM     18  C   UNL     1       8.793   7.831 -21.217  0.00  0.00    +0.226 C 
ENDBRANCH  16  18
ENDBRANCH   8  16
ENDBRANCH   6  11
ENDBRANCH   1   7
BRANCH   4  19
ATOM     19  C   UNL     1      -0.097  13.316 -24.905  0.00  0.00    +0.050 C 
ATOM     20  C   UNL     1      -1.044  12.446 -25.098  0.00  0.00    +0.012 C 
BRANCH  20  21
ATOM     21  C   UNL     1      -1.904  12.623 -26.058  0.00  0.00    -0.021 A 
ATOM     22  C   UNL     1      -1.536  12.468 -27.295  0.00  0.00    +0.012 A 
ATOM     23  C   UNL     1      -2.396  12.645 -28.254  0.00  0.00    +0.050 A 
ATOM     24  C   UNL     1      -3.622  12.977 -27.977  0.00  0.00    +0.162 A 
ATOM     25  C   UNL     1      -3.988  13.131 -26.739  0.00  0.00    +0.162 A 
ATOM     26  C   UNL     1      -3.129  12.954 -25.779  0.00  0.00    +0.057 A 
BRANCH  25  27
ATOM     27  O   UNL     1      -5.214  13.463 -26.460  0.00  0.00    -0.491 OA
ATOM     28  C   UNL     1      -5.625  13.460 -25.226  0.00  0.00    +0.277 C 
ENDBRANCH  25  27
BRANCH  24  29
ATOM     29  O   UNL     1      -4.481  13.153 -28.935  0.00  0.00    -0.489 OA
BRANCH  29  30
ATOM     30  C   UNL     1      -4.903  12.135 -29.625  0.00  0.00    +0.226 C 
ATOM     31  C   UNL     1      -6.138  11.744 -29.516  0.00  0.00    +0.048 C 
ENDBRANCH  29  30
ENDBRANCH  24  29
ENDBRANCH  20  21
ENDBRANCH   4  19
BRANCH   5  32
ATOM     32  C   UNL     1       2.443  12.098 -25.152  0.00  0.00    +0.038 C 
ATOM     33  C   UNL     1       3.089  12.879 -25.967  0.00  0.00    +0.009 C 
ENDBRANCH   5  32
TORSDOF 11
ENDMDL
