MODEL 1
REMARK VINA RESULT:   -10.107      0.000      0.000
REMARK INTER + INTRA:         -10.107
REMARK INTER:                 -10.107
REMARK INTRA:                   0.000
REMARK UNBOUND:                 0.000
REMARK  Name = ZINC000044602242
REMARK  1 active torsions:
REMARK  status: ('A' for Active; 'I' for Inactive)
REMARK    1  A    between atoms: C_8  and  C_9
REMARK                            x       y       z     vdW  Elec       q    Type
REMARK                         _______ _______ _______ _____ _____    ______ ____
ROOT
ATOM      1  C   UNL     1       0.480   1.508 -21.102  0.00  0.00    +0.020 C 
ATOM      2  C   UNL     1       0.160   2.038 -22.245  0.00  0.00    +0.036 C 
ATOM      3  C   UNL     1       0.966   2.251 -23.241  0.00  0.00    +0.335 C 
ATOM      4  O   UNL     1       0.280   2.793 -24.204  0.00  0.00    -0.457 OA
ATOM      5  C   UNL     1      -0.950   2.914 -23.801  0.00  0.00    +0.185 C 
ATOM      6  C   UNL     1      -2.011   3.389 -24.381  0.00  0.00    +0.052 C 
ATOM      7  C   UNL     1      -3.149   3.398 -23.752  0.00  0.00    -0.022 C 
ATOM      8  C   UNL     1      -4.210   3.873 -24.332  0.00  0.00    +0.007 C 
ATOM      9  C   UNL     1      -5.347   3.882 -23.701  0.00  0.00    +0.005 C 
ATOM     10  C   UNL     1      -5.422   3.415 -22.490  0.00  0.00    +0.030 C 
ATOM     11  C   UNL     1      -4.360   2.939 -21.909  0.00  0.00    -0.073 C 
ATOM     12  C   UNL     1      -4.435   2.472 -20.698  0.00  0.00    +0.008 C 
ATOM     13  C   UNL     1      -3.074   3.865 -24.963  0.00  0.00    +0.012 C 
ATOM     14  C   UNL     1      -3.223   2.931 -22.540  0.00  0.00    +0.021 C 
ATOM     15  C   UNL     1      -2.161   2.456 -21.960  0.00  0.00    +0.020 C 
ATOM     16  O   UNL     1       2.235   1.972 -23.270  0.00  0.00    -0.245 OA
ATOM     17  C   UNL     1      -1.025   2.447 -22.590  0.00  0.00    +0.067 C 
ENDROOT
TORSDOF 0
ENDMDL
MODEL 2
REMARK VINA RESULT:   -10.025      0.961      2.534
REMARK INTER + INTRA:         -10.025
REMARK INTER:                 -10.025
REMARK INTRA:                   0.000
REMARK UNBOUND:                 0.000
REMARK  Name = ZINC000044602242
REMARK  1 active torsions:
REMARK  status: ('A' for Active; 'I' for Inactive)
REMARK    1  A    between atoms: C_8  and  C_9
REMARK                            x       y       z     vdW  Elec       q    Type
REMARK                         _______ _______ _______ _____ _____    ______ ____
ROOT
ATOM      1  C   UNL     1       0.560   3.364 -25.136  0.00  0.00    +0.020 C 
ATOM      2  C   UNL     1       0.140   3.035 -23.951  0.00  0.00    +0.036 C 
ATOM      3  C   UNL     1       0.875   2.596 -22.974  0.00  0.00    +0.335 C 
ATOM      4  O   UNL     1       0.100   2.377 -21.954  0.00  0.00    -0.457 OA
ATOM      5  C   UNL     1      -1.116   2.681 -22.301  0.00  0.00    +0.185 C 
ATOM      6  C   UNL     1      -2.241   2.640 -21.653  0.00  0.00    +0.052 C 
ATOM      7  C   UNL     1      -3.343   3.006 -22.238  0.00  0.00    -0.022 C 
ATOM      8  C   UNL     1      -4.469   2.965 -21.589  0.00  0.00    +0.007 C 
ATOM      9  C   UNL     1      -5.570   3.332 -22.175  0.00  0.00    +0.005 C 
ATOM     10  C   UNL     1      -5.545   3.738 -23.409  0.00  0.00    +0.030 C 
ATOM     11  C   UNL     1      -4.420   3.780 -24.059  0.00  0.00    -0.073 C 
ATOM     12  C   UNL     1      -4.395   4.187 -25.293  0.00  0.00    +0.008 C 
ATOM     13  C   UNL     1      -3.368   2.599 -21.003  0.00  0.00    +0.012 C 
ATOM     14  C   UNL     1      -3.318   3.413 -23.473  0.00  0.00    +0.021 C 
ATOM     15  C   UNL     1      -2.192   3.454 -24.122  0.00  0.00    +0.020 C 
ATOM     16  O   UNL     1       2.161   2.408 -23.010  0.00  0.00    -0.245 OA
ATOM     17  C   UNL     1      -1.091   3.088 -23.536  0.00  0.00    +0.067 C 
ENDROOT
TORSDOF 0
ENDMDL
MODEL 3
REMARK VINA RESULT:    -9.802      1.283      1.578
REMARK INTER + INTRA:          -9.802
REMARK INTER:                  -9.802
REMARK INTRA:                   0.000
REMARK UNBOUND:                 0.000
REMARK  Name = ZINC000044602242
REMARK  1 active torsions:
REMARK  status: ('A' for Active; 'I' for Inactive)
REMARK    1  A    between atoms: C_8  and  C_9
REMARK                            x       y       z     vdW  Elec       q    Type
REMARK                         _______ _______ _______ _____ _____    ______ ____
ROOT
ATOM      1  C   UNL     1       0.995   2.717 -23.153  0.00  0.00    +0.020 C 
ATOM      2  C   UNL     1       0.134   3.105 -24.047  0.00  0.00    +0.036 C 
ATOM      3  C   UNL     1       0.402   3.424 -25.278  0.00  0.00    +0.335 C 
ATOM      4  O   UNL     1      -0.712   3.758 -25.858  0.00  0.00    -0.457 OA
ATOM      5  C   UNL     1      -1.669   3.645 -24.985  0.00  0.00    +0.185 C 
ATOM      6  C   UNL     1      -2.948   3.858 -25.064  0.00  0.00    +0.052 C 
ATOM      7  C   UNL     1      -3.706   3.667 -24.025  0.00  0.00    -0.022 C 
ATOM      8  C   UNL     1      -4.986   3.880 -24.105  0.00  0.00    +0.007 C 
ATOM      9  C   UNL     1      -5.742   3.689 -23.066  0.00  0.00    +0.005 C 
ATOM     10  C   UNL     1      -5.219   3.285 -21.946  0.00  0.00    +0.030 C 
ATOM     11  C   UNL     1      -3.939   3.072 -21.865  0.00  0.00    -0.073 C 
ATOM     12  C   UNL     1      -3.416   2.668 -20.746  0.00  0.00    +0.008 C 
ATOM     13  C   UNL     1      -4.229   4.071 -25.145  0.00  0.00    +0.012 C 
ATOM     14  C   UNL     1      -3.182   3.263 -22.905  0.00  0.00    +0.021 C 
ATOM     15  C   UNL     1      -1.902   3.050 -22.825  0.00  0.00    +0.020 C 
ATOM     16  O   UNL     1       1.578   3.412 -25.832  0.00  0.00    -0.245 OA
ATOM     17  C   UNL     1      -1.146   3.241 -23.865  0.00  0.00    +0.067 C 
ENDROOT
TORSDOF 0
ENDMDL
MODEL 4
REMARK VINA RESULT:    -9.591      2.230      5.289
REMARK INTER + INTRA:          -9.591
REMARK INTER:                  -9.591
REMARK INTRA:                   0.000
REMARK UNBOUND:                 0.000
REMARK  Name = ZINC000044602242
REMARK  1 active torsions:
REMARK  status: ('A' for Active; 'I' for Inactive)
REMARK    1  A    between atoms: C_8  and  C_9
REMARK                            x       y       z     vdW  Elec       q    Type
REMARK                         _______ _______ _______ _____ _____    ______ ____
ROOT
ATOM      1  C   UNL     1      -4.652   4.224 -24.368  0.00  0.00    +0.020 C 
ATOM      2  C   UNL     1      -4.177   3.582 -23.343  0.00  0.00    +0.036 C 
ATOM      3  C   UNL     1      -4.852   3.200 -22.301  0.00  0.00    +0.335 C 
ATOM      4  O   UNL     1      -4.035   2.591 -21.494  0.00  0.00    -0.457 OA
ATOM      5  C   UNL     1      -2.854   2.598 -22.038  0.00  0.00    +0.185 C 
ATOM      6  C   UNL     1      -1.711   2.125 -21.640  0.00  0.00    +0.052 C 
ATOM      7  C   UNL     1      -0.654   2.264 -22.384  0.00  0.00    -0.022 C 
ATOM      8  C   UNL     1       0.489   1.792 -21.986  0.00  0.00    +0.007 C 
ATOM      9  C   UNL     1       1.545   1.932 -22.731  0.00  0.00    +0.005 C 
ATOM     10  C   UNL     1       1.457   2.544 -23.875  0.00  0.00    +0.030 C 
ATOM     11  C   UNL     1       0.314   3.017 -24.274  0.00  0.00    -0.073 C 
ATOM     12  C   UNL     1       0.226   3.630 -25.417  0.00  0.00    +0.008 C 
ATOM     13  C   UNL     1      -0.566   1.652 -21.241  0.00  0.00    +0.012 C 
ATOM     14  C   UNL     1      -0.743   2.878 -23.528  0.00  0.00    +0.021 C 
ATOM     15  C   UNL     1      -1.886   3.350 -23.926  0.00  0.00    +0.020 C 
ATOM     16  O   UNL     1      -6.122   3.392 -22.100  0.00  0.00    -0.245 OA
ATOM     17  C   UNL     1      -2.942   3.210 -23.181  0.00  0.00    +0.067 C 
ENDROOT
TORSDOF 0
ENDMDL
MODEL 5
REMARK VINA RESULT:    -9.455      2.134      4.631
REMARK INTER + INTRA:          -9.455
REMARK INTER:                  -9.455
REMARK INTRA:                   0.000
REMARK UNBOUND:                 0.000
REMARK  Name = ZINC000044602242
REMARK  1 active torsions:
REMARK  status: ('A' for Active; 'I' for Inactive)
REMARK    1  A    between atoms: C_8  and  C_9
REMARK                            x       y       z     vdW  Elec       q    Type
REMARK                         _______ _______ _______ _____ _____    ______ ____
ROOT
ATOM      1  C   UNL     1      -4.233   2.274 -20.536  0.00  0.00    +0.020 C 
ATOM      2  C   UNL     1      -4.042   2.783 -21.717  0.00  0.00    +0.036 C 
ATOM      3  C   UNL     1      -4.947   3.338 -22.466  0.00  0.00    +0.335 C 
ATOM      4  O   UNL     1      -4.376   3.724 -23.567  0.00  0.00    -0.457 OA
ATOM      5  C   UNL     1      -3.117   3.408 -23.499  0.00  0.00    +0.185 C 
ATOM      6  C   UNL     1      -2.132   3.575 -24.331  0.00  0.00    +0.052 C 
ATOM      7  C   UNL     1      -0.940   3.161 -24.020  0.00  0.00    -0.022 C 
ATOM      8  C   UNL     1       0.045   3.327 -24.851  0.00  0.00    +0.007 C 
ATOM      9  C   UNL     1       1.236   2.913 -24.539  0.00  0.00    +0.005 C 
ATOM     10  C   UNL     1       1.443   2.331 -23.395  0.00  0.00    +0.030 C 
ATOM     11  C   UNL     1       0.459   2.163 -22.563  0.00  0.00    -0.073 C 
ATOM     12  C   UNL     1       0.666   1.582 -21.419  0.00  0.00    +0.008 C 
ATOM     13  C   UNL     1      -1.147   3.742 -25.164  0.00  0.00    +0.012 C 
ATOM     14  C   UNL     1      -0.734   2.578 -22.875  0.00  0.00    +0.021 C 
ATOM     15  C   UNL     1      -1.718   2.412 -22.043  0.00  0.00    +0.020 C 
ATOM     16  O   UNL     1      -6.204   3.481 -22.166  0.00  0.00    -0.245 OA
ATOM     17  C   UNL     1      -2.910   2.826 -22.355  0.00  0.00    +0.067 C 
ENDROOT
TORSDOF 0
ENDMDL
MODEL 6
REMARK VINA RESULT:    -9.418      1.269      2.649
REMARK INTER + INTRA:          -9.418
REMARK INTER:                  -9.418
REMARK INTRA:                   0.000
REMARK UNBOUND:                 0.000
REMARK  Name = ZINC000044602242
REMARK  1 active torsions:
REMARK  status: ('A' for Active; 'I' for Inactive)
REMARK    1  A    between atoms: C_8  and  C_9
REMARK                            x       y       z     vdW  Elec       q    Type
REMARK                         _______ _______ _______ _____ _____    ______ ____
ROOT
ATOM      1  C   UNL     1       1.260   1.754 -23.457  0.00  0.00    +0.020 C 
ATOM      2  C   UNL     1       0.332   1.915 -22.561  0.00  0.00    +0.036 C 
ATOM      3  C   UNL     1       0.448   1.674 -21.289  0.00  0.00    +0.335 C 
ATOM      4  O   UNL     1      -0.687   1.955 -20.722  0.00  0.00    -0.457 OA
ATOM      5  C   UNL     1      -1.505   2.370 -21.644  0.00  0.00    +0.185 C 
ATOM      6  C   UNL     1      -2.741   2.767 -21.595  0.00  0.00    +0.052 C 
ATOM      7  C   UNL     1      -3.349   3.139 -22.683  0.00  0.00    -0.022 C 
ATOM      8  C   UNL     1      -4.586   3.536 -22.634  0.00  0.00    +0.007 C 
ATOM      9  C   UNL     1      -5.192   3.908 -23.721  0.00  0.00    +0.005 C 
ATOM     10  C   UNL     1      -4.562   3.883 -24.858  0.00  0.00    +0.030 C 
ATOM     11  C   UNL     1      -3.325   3.486 -24.908  0.00  0.00    -0.073 C 
ATOM     12  C   UNL     1      -2.695   3.461 -26.045  0.00  0.00    +0.008 C 
ATOM     13  C   UNL     1      -3.979   3.164 -21.546  0.00  0.00    +0.012 C 
ATOM     14  C   UNL     1      -2.718   3.114 -23.820  0.00  0.00    +0.021 C 
ATOM     15  C   UNL     1      -1.481   2.717 -23.869  0.00  0.00    +0.020 C 
ATOM     16  O   UNL     1       1.512   1.230 -20.690  0.00  0.00    -0.245 OA
ATOM     17  C   UNL     1      -0.875   2.345 -22.781  0.00  0.00    +0.067 C 
ENDROOT
TORSDOF 0
ENDMDL
MODEL 7
REMARK VINA RESULT:    -8.516      2.434      4.454
REMARK INTER + INTRA:          -8.516
REMARK INTER:                  -8.516
REMARK INTRA:                   0.000
REMARK UNBOUND:                 0.000
REMARK  Name = ZINC000044602242
REMARK  1 active torsions:
REMARK  status: ('A' for Active; 'I' for Inactive)
REMARK    1  A    between atoms: C_8  and  C_9
REMARK                            x       y       z     vdW  Elec       q    Type
REMARK                         _______ _______ _______ _____ _____    ______ ____
ROOT
ATOM      1  C   UNL     1       4.871   1.990 -22.778  0.00  0.00    +0.020 C 
ATOM      2  C   UNL     1       3.822   1.606 -22.114  0.00  0.00    +0.036 C 
ATOM      3  C   UNL     1       3.815   0.794 -21.099  0.00  0.00    +0.335 C 
ATOM      4  O   UNL     1       2.584   0.652 -20.706  0.00  0.00    -0.457 OA
ATOM      5  C   UNL     1       1.830   1.378 -21.479  0.00  0.00    +0.185 C 
ATOM      6  C   UNL     1       0.546   1.577 -21.502  0.00  0.00    +0.052 C 
ATOM      7  C   UNL     1       0.026   2.366 -22.395  0.00  0.00    -0.022 C 
ATOM      8  C   UNL     1      -1.258   2.566 -22.418  0.00  0.00    +0.007 C 
ATOM      9  C   UNL     1      -1.777   3.355 -23.311  0.00  0.00    +0.005 C 
ATOM     10  C   UNL     1      -1.012   3.944 -24.181  0.00  0.00    +0.030 C 
ATOM     11  C   UNL     1       0.273   3.745 -24.159  0.00  0.00    -0.073 C 
ATOM     12  C   UNL     1       1.038   4.334 -25.029  0.00  0.00    +0.008 C 
ATOM     13  C   UNL     1      -0.739   1.777 -21.524  0.00  0.00    +0.012 C 
ATOM     14  C   UNL     1       0.792   2.956 -23.265  0.00  0.00    +0.021 C 
ATOM     15  C   UNL     1       2.076   2.756 -23.242  0.00  0.00    +0.020 C 
ATOM     16  O   UNL     1       4.856   0.223 -20.570  0.00  0.00    -0.245 OA
ATOM     17  C   UNL     1       2.595   1.967 -22.349  0.00  0.00    +0.067 C 
ENDROOT
TORSDOF 0
ENDMDL
MODEL 8
REMARK VINA RESULT:    -8.031      2.760      6.231
REMARK INTER + INTRA:          -8.031
REMARK INTER:                  -8.031
REMARK INTRA:                   0.000
REMARK UNBOUND:                 0.000
REMARK  Name = ZINC000044602242
REMARK  1 active torsions:
REMARK  status: ('A' for Active; 'I' for Inactive)
REMARK    1  A    between atoms: C_8  and  C_9
REMARK                            x       y       z     vdW  Elec       q    Type
REMARK                         _______ _______ _______ _____ _____    ______ ____
ROOT
ATOM      1  C   UNL     1      -1.440   4.984 -22.925  0.00  0.00    +0.020 C 
ATOM      2  C   UNL     1      -0.818   3.872 -23.184  0.00  0.00    +0.036 C 
ATOM      3  C   UNL     1      -1.374   2.723 -23.425  0.00  0.00    +0.335 C 
ATOM      4  O   UNL     1      -0.429   1.856 -23.637  0.00  0.00    -0.457 OA
ATOM      5  C   UNL     1       0.712   2.470 -23.528  0.00  0.00    +0.185 C 
ATOM      6  C   UNL     1       1.937   2.056 -23.648  0.00  0.00    +0.052 C 
ATOM      7  C   UNL     1       2.924   2.887 -23.487  0.00  0.00    -0.022 C 
ATOM      8  C   UNL     1       4.150   2.472 -23.607  0.00  0.00    +0.007 C 
ATOM      9  C   UNL     1       5.136   3.304 -23.446  0.00  0.00    +0.005 C 
ATOM     10  C   UNL     1       4.896   4.550 -23.166  0.00  0.00    +0.030 C 
ATOM     11  C   UNL     1       3.670   4.966 -23.046  0.00  0.00    -0.073 C 
ATOM     12  C   UNL     1       3.430   6.212 -22.766  0.00  0.00    +0.008 C 
ATOM     13  C   UNL     1       3.165   1.640 -23.767  0.00  0.00    +0.012 C 
ATOM     14  C   UNL     1       2.683   4.134 -23.207  0.00  0.00    +0.021 C 
ATOM     15  C   UNL     1       1.457   4.549 -23.088  0.00  0.00    +0.020 C 
ATOM     16  O   UNL     1      -2.651   2.482 -23.449  0.00  0.00    -0.245 OA
ATOM     17  C   UNL     1       0.471   3.717 -23.248  0.00  0.00    +0.067 C 
ENDROOT
TORSDOF 0
ENDMDL
MODEL 9
REMARK VINA RESULT:    -7.850      1.961      5.242
REMARK INTER + INTRA:          -7.850
REMARK INTER:                  -7.850
REMARK INTRA:                   0.000
REMARK UNBOUND:                 0.000
REMARK  Name = ZINC000044602242
REMARK  1 active torsions:
REMARK  status: ('A' for Active; 'I' for Inactive)
REMARK    1  A    between atoms: C_8  and  C_9
REMARK                            x       y       z     vdW  Elec       q    Type
REMARK                         _______ _______ _______ _____ _____    ______ ____
ROOT
ATOM      1  C   UNL     1      -2.732   3.644 -22.213  0.00  0.00    +0.020 C 
ATOM      2  C   UNL     1      -2.035   3.643 -23.310  0.00  0.00    +0.036 C 
ATOM      3  C   UNL     1      -2.415   4.121 -24.457  0.00  0.00    +0.335 C 
ATOM      4  O   UNL     1      -1.449   3.936 -25.308  0.00  0.00    -0.457 OA
ATOM      5  C   UNL     1      -0.473   3.345 -24.686  0.00  0.00    +0.185 C 
ATOM      6  C   UNL     1       0.698   2.948 -25.085  0.00  0.00    +0.052 C 
ATOM      7  C   UNL     1       1.509   2.369 -24.250  0.00  0.00    -0.022 C 
ATOM      8  C   UNL     1       2.681   1.972 -24.649  0.00  0.00    +0.007 C 
ATOM      9  C   UNL     1       3.490   1.394 -23.813  0.00  0.00    +0.005 C 
ATOM     10  C   UNL     1       3.129   1.213 -22.577  0.00  0.00    +0.030 C 
ATOM     11  C   UNL     1       1.957   1.609 -22.177  0.00  0.00    -0.073 C 
ATOM     12  C   UNL     1       1.595   1.428 -20.942  0.00  0.00    +0.008 C 
ATOM     13  C   UNL     1       1.871   2.551 -25.485  0.00  0.00    +0.012 C 
ATOM     14  C   UNL     1       1.146   2.188 -23.014  0.00  0.00    +0.021 C 
ATOM     15  C   UNL     1      -0.025   2.585 -22.615  0.00  0.00    +0.020 C 
ATOM     16  O   UNL     1      -3.559   4.684 -24.709  0.00  0.00    -0.245 OA
ATOM     17  C   UNL     1      -0.835   3.163 -23.451  0.00  0.00    +0.067 C 
ENDROOT
TORSDOF 0
ENDMDL
