MODEL 1
REMARK VINA RESULT:    -8.269      0.000      0.000
REMARK INTER + INTRA:         -10.689
REMARK INTER:                 -10.485
REMARK INTRA:                  -0.204
REMARK UNBOUND:                -0.245
REMARK  Name = ZINC000013374377
REMARK  7 active torsions:
REMARK  status: ('A' for Active; 'I' for Inactive)
REMARK    1  A    between atoms: C_2  and  C_3
REMARK    2  A    between atoms: C_2  and  C_4
REMARK    3  A    between atoms: C_4  and  O_5
REMARK    4  A    between atoms: C_4  and  C_6
REMARK    5  A    between atoms: C_6  and  C_7
REMARK    6  A    between atoms: C_8  and  O_9
REMARK    7  A    between atoms: O_9  and  C_10
REMARK                            x       y       z     vdW  Elec       q    Type
REMARK                         _______ _______ _______ _____ _____    ______ ____
ROOT
ATOM      1  C   UNL     1      -1.694   3.227 -23.050  0.00  0.00    +0.040 A 
ATOM      2  C   UNL     1      -1.254   2.657 -21.967  0.00  0.00    +0.127 A 
ATOM      3  C   UNL     1      -2.088   2.302 -21.035  0.00  0.00    +0.047 A 
ATOM      4  C   UNL     1      -3.361   2.515 -21.185  0.00  0.00    +0.015 A 
ATOM      5  C   UNL     1      -3.800   3.085 -22.268  0.00  0.00    +0.018 A 
ATOM      6  C   UNL     1      -5.074   3.298 -22.419  0.00  0.00    +0.018 A 
ATOM      7  C   UNL     1      -5.514   3.868 -23.501  0.00  0.00    +0.092 A 
ATOM      8  C   UNL     1      -4.681   4.223 -24.434  0.00  0.00    +0.337 A 
ATOM      9  O   UNL     1      -3.407   4.009 -24.283  0.00  0.00    -0.422 OA
ATOM     10  O   UNL     1      -5.121   4.792 -25.516  0.00  0.00    -0.245 OA
ATOM     11  C   UNL     1      -2.967   3.440 -23.200  0.00  0.00    +0.146 A 
ENDROOT
BRANCH   2  12
ATOM     12  O   UNL     1       0.020   2.443 -21.816  0.00  0.00    -0.495 OA
ATOM     13  C   UNL     1       0.430   1.469 -21.061  0.00  0.00    +0.277 C 
ENDBRANCH   2  12
BRANCH   1  14
ATOM     14  C   UNL     1      -0.861   3.582 -23.982  0.00  0.00    +0.078 C 
BRANCH  14  15
ATOM     15  C   UNL     1      -0.105   4.627 -23.815  0.00  0.00    +0.144 C 
BRANCH  15  17
ATOM     16  C   UNL     1       2.064   5.140 -23.497  0.00  0.00    +0.010 C 
ATOM     17  C   UNL     1       1.128   4.610 -24.227  0.00  0.00    -0.051 C 
ATOM     18  C   UNL     1       1.424   4.064 -25.369  0.00  0.00    +0.041 C 
ENDBRANCH  15  17
BRANCH  15  19
ATOM     19  O   UNL     1      -0.583   5.688 -23.236  0.00  0.00    -0.387 OA
ATOM     20  H   UNL     1       0.113   6.360 -23.168  0.00  0.00    +0.210 HD
ENDBRANCH  15  19
ENDBRANCH  14  15
ENDBRANCH   1  14
TORSDOF 5
ENDMDL
MODEL 2
REMARK VINA RESULT:    -7.941      1.458      5.435
REMARK INTER + INTRA:         -10.276
REMARK INTER:                  -9.862
REMARK INTRA:                  -0.414
REMARK UNBOUND:                -0.245
REMARK  Name = ZINC000013374377
REMARK  7 active torsions:
REMARK  status: ('A' for Active; 'I' for Inactive)
REMARK    1  A    between atoms: C_2  and  C_3
REMARK    2  A    between atoms: C_2  and  C_4
REMARK    3  A    between atoms: C_4  and  O_5
REMARK    4  A    between atoms: C_4  and  C_6
REMARK    5  A    between atoms: C_6  and  C_7
REMARK    6  A    between atoms: C_8  and  O_9
REMARK    7  A    between atoms: O_9  and  C_10
REMARK                            x       y       z     vdW  Elec       q    Type
REMARK                         _______ _______ _______ _____ _____    ______ ____
ROOT
ATOM      1  C   UNL     1      -1.700   3.921 -23.417  0.00  0.00    +0.040 A 
ATOM      2  C   UNL     1      -2.683   3.836 -24.263  0.00  0.00    +0.127 A 
ATOM      3  C   UNL     1      -2.438   3.653 -25.527  0.00  0.00    +0.047 A 
ATOM      4  C   UNL     1      -1.211   3.556 -25.944  0.00  0.00    +0.015 A 
ATOM      5  C   UNL     1      -0.228   3.641 -25.097  0.00  0.00    +0.018 A 
ATOM      6  C   UNL     1       1.000   3.544 -25.514  0.00  0.00    +0.018 A 
ATOM      7  C   UNL     1       1.982   3.630 -24.667  0.00  0.00    +0.092 A 
ATOM      8  C   UNL     1       1.737   3.813 -23.403  0.00  0.00    +0.337 A 
ATOM      9  O   UNL     1       0.509   3.910 -22.987  0.00  0.00    -0.422 OA
ATOM     10  O   UNL     1       2.720   3.899 -22.556  0.00  0.00    -0.245 OA
ATOM     11  C   UNL     1      -0.473   3.824 -23.833  0.00  0.00    +0.146 A 
ENDROOT
BRANCH   2  12
ATOM     12  O   UNL     1      -3.911   3.933 -23.847  0.00  0.00    -0.495 OA
ATOM     13  C   UNL     1      -4.881   4.051 -24.704  0.00  0.00    +0.277 C 
ENDBRANCH   2  12
BRANCH   1  14
ATOM     14  C   UNL     1      -1.945   4.104 -22.153  0.00  0.00    +0.078 C 
BRANCH  14  15
ATOM     15  C   UNL     1      -2.154   3.083 -21.377  0.00  0.00    +0.144 C 
BRANCH  15  17
ATOM     16  C   UNL     1      -3.296   3.818 -19.581  0.00  0.00    +0.010 C 
ATOM     17  C   UNL     1      -3.213   3.046 -20.622  0.00  0.00    -0.051 C 
ATOM     18  C   UNL     1      -4.188   2.236 -20.910  0.00  0.00    +0.041 C 
ENDBRANCH  15  17
BRANCH  15  19
ATOM     19  O   UNL     1      -1.306   2.099 -21.355  0.00  0.00    -0.387 OA
ATOM     20  H   UNL     1      -0.438   2.414 -21.652  0.00  0.00    +0.210 HD
ENDBRANCH  15  19
ENDBRANCH  14  15
ENDBRANCH   1  14
TORSDOF 5
ENDMDL
MODEL 3
REMARK VINA RESULT:    -7.891      1.769      3.331
REMARK INTER + INTRA:         -10.212
REMARK INTER:                  -9.957
REMARK INTRA:                  -0.255
REMARK UNBOUND:                -0.245
REMARK  Name = ZINC000013374377
REMARK  7 active torsions:
REMARK  status: ('A' for Active; 'I' for Inactive)
REMARK    1  A    between atoms: C_2  and  C_3
REMARK    2  A    between atoms: C_2  and  C_4
REMARK    3  A    between atoms: C_4  and  O_5
REMARK    4  A    between atoms: C_4  and  C_6
REMARK    5  A    between atoms: C_6  and  C_7
REMARK    6  A    between atoms: C_8  and  O_9
REMARK    7  A    between atoms: O_9  and  C_10
REMARK                            x       y       z     vdW  Elec       q    Type
REMARK                         _______ _______ _______ _____ _____    ______ ____
ROOT
ATOM      1  C   UNL     1      -1.604   3.423 -23.279  0.00  0.00    +0.040 A 
ATOM      2  C   UNL     1      -0.393   2.988 -23.097  0.00  0.00    +0.127 A 
ATOM      3  C   UNL     1      -0.135   2.173 -22.117  0.00  0.00    +0.047 A 
ATOM      4  C   UNL     1      -1.088   1.793 -21.320  0.00  0.00    +0.015 A 
ATOM      5  C   UNL     1      -2.299   2.228 -21.502  0.00  0.00    +0.018 A 
ATOM      6  C   UNL     1      -3.253   1.848 -20.704  0.00  0.00    +0.018 A 
ATOM      7  C   UNL     1      -4.465   2.283 -20.886  0.00  0.00    +0.092 A 
ATOM      8  C   UNL     1      -4.723   3.098 -21.865  0.00  0.00    +0.337 A 
ATOM      9  O   UNL     1      -3.769   3.478 -22.663  0.00  0.00    -0.422 OA
ATOM     10  O   UNL     1      -5.934   3.533 -22.047  0.00  0.00    -0.245 OA
ATOM     11  C   UNL     1      -2.557   3.043 -22.481  0.00  0.00    +0.146 A 
ENDROOT
BRANCH   2  12
ATOM     12  O   UNL     1       0.561   3.368 -23.895  0.00  0.00    -0.495 OA
ATOM     13  C   UNL     1       1.530   2.551 -24.185  0.00  0.00    +0.277 C 
ENDBRANCH   2  12
BRANCH   1  14
ATOM     14  C   UNL     1      -1.862   4.238 -24.258  0.00  0.00    +0.078 C 
BRANCH  14  15
ATOM     15  C   UNL     1      -2.228   3.770 -25.414  0.00  0.00    +0.144 C 
BRANCH  15  17
ATOM     16  C   UNL     1      -4.013   2.853 -26.434  0.00  0.00    +0.010 C 
ATOM     17  C   UNL     1      -3.474   3.837 -25.779  0.00  0.00    -0.051 C 
ATOM     18  C   UNL     1      -4.181   4.887 -25.487  0.00  0.00    +0.041 C 
ENDBRANCH  15  17
BRANCH  15  19
ATOM     19  O   UNL     1      -1.347   3.235 -26.206  0.00  0.00    -0.387 OA
ATOM     20  H   UNL     1      -1.719   2.435 -26.611  0.00  0.00    +0.210 HD
ENDBRANCH  15  19
ENDBRANCH  14  15
ENDBRANCH   1  14
TORSDOF 5
ENDMDL
MODEL 4
REMARK VINA RESULT:    -7.855      1.885      4.775
REMARK INTER + INTRA:         -10.167
REMARK INTER:                  -9.817
REMARK INTRA:                  -0.350
REMARK UNBOUND:                -0.245
REMARK  Name = ZINC000013374377
REMARK  7 active torsions:
REMARK  status: ('A' for Active; 'I' for Inactive)
REMARK    1  A    between atoms: C_2  and  C_3
REMARK    2  A    between atoms: C_2  and  C_4
REMARK    3  A    between atoms: C_4  and  O_5
REMARK    4  A    between atoms: C_4  and  C_6
REMARK    5  A    between atoms: C_6  and  C_7
REMARK    6  A    between atoms: C_8  and  O_9
REMARK    7  A    between atoms: O_9  and  C_10
REMARK                            x       y       z     vdW  Elec       q    Type
REMARK                         _______ _______ _______ _____ _____    ______ ____
ROOT
ATOM      1  C   UNL     1      -1.471   3.253 -23.058  0.00  0.00    +0.040 A 
ATOM      2  C   UNL     1      -2.377   2.738 -22.281  0.00  0.00    +0.127 A 
ATOM      3  C   UNL     1      -2.041   1.855 -21.387  0.00  0.00    +0.047 A 
ATOM      4  C   UNL     1      -0.800   1.488 -21.270  0.00  0.00    +0.015 A 
ATOM      5  C   UNL     1       0.106   2.004 -22.047  0.00  0.00    +0.018 A 
ATOM      6  C   UNL     1       1.348   1.637 -21.930  0.00  0.00    +0.018 A 
ATOM      7  C   UNL     1       2.254   2.152 -22.706  0.00  0.00    +0.092 A 
ATOM      8  C   UNL     1       1.919   3.035 -23.600  0.00  0.00    +0.337 A 
ATOM      9  O   UNL     1       0.677   3.402 -23.717  0.00  0.00    -0.422 OA
ATOM     10  O   UNL     1       2.825   3.550 -24.377  0.00  0.00    -0.245 OA
ATOM     11  C   UNL     1      -0.229   2.886 -22.941  0.00  0.00    +0.146 A 
ENDROOT
BRANCH   2  12
ATOM     12  O   UNL     1      -3.619   3.104 -22.399  0.00  0.00    -0.495 OA
ATOM     13  C   UNL     1      -4.482   2.777 -21.484  0.00  0.00    +0.277 C 
ENDBRANCH   2  12
BRANCH   1  14
ATOM     14  C   UNL     1      -1.806   4.135 -23.952  0.00  0.00    +0.078 C 
BRANCH  14  15
ATOM     15  C   UNL     1      -2.111   3.756 -25.157  0.00  0.00    +0.144 C 
BRANCH  15  17
ATOM     16  C   UNL     1      -3.824   2.942 -26.370  0.00  0.00    +0.010 C 
ATOM     17  C   UNL     1      -3.337   3.850 -25.578  0.00  0.00    -0.051 C 
ATOM     18  C   UNL     1      -4.076   4.853 -25.207  0.00  0.00    +0.041 C 
ENDBRANCH  15  17
BRANCH  15  19
ATOM     19  O   UNL     1      -1.189   3.283 -25.942  0.00  0.00    -0.387 OA
ATOM     20  H   UNL     1      -0.872   3.986 -26.530  0.00  0.00    +0.210 HD
ENDBRANCH  15  19
ENDBRANCH  14  15
ENDBRANCH   1  14
TORSDOF 5
ENDMDL
MODEL 5
REMARK VINA RESULT:    -7.844      1.896      2.866
REMARK INTER + INTRA:         -10.153
REMARK INTER:                  -9.870
REMARK INTRA:                  -0.282
REMARK UNBOUND:                -0.245
REMARK  Name = ZINC000013374377
REMARK  7 active torsions:
REMARK  status: ('A' for Active; 'I' for Inactive)
REMARK    1  A    between atoms: C_2  and  C_3
REMARK    2  A    between atoms: C_2  and  C_4
REMARK    3  A    between atoms: C_4  and  O_5
REMARK    4  A    between atoms: C_4  and  C_6
REMARK    5  A    between atoms: C_6  and  C_7
REMARK    6  A    between atoms: C_8  and  O_9
REMARK    7  A    between atoms: O_9  and  C_10
REMARK                            x       y       z     vdW  Elec       q    Type
REMARK                         _______ _______ _______ _____ _____    ______ ____
ROOT
ATOM      1  C   UNL     1      -2.642   3.631 -22.939  0.00  0.00    +0.040 A 
ATOM      2  C   UNL     1      -3.253   3.640 -21.792  0.00  0.00    +0.127 A 
ATOM      3  C   UNL     1      -4.552   3.617 -21.747  0.00  0.00    +0.047 A 
ATOM      4  C   UNL     1      -5.240   3.585 -22.849  0.00  0.00    +0.015 A 
ATOM      5  C   UNL     1      -4.629   3.575 -23.996  0.00  0.00    +0.018 A 
ATOM      6  C   UNL     1      -5.317   3.543 -25.099  0.00  0.00    +0.018 A 
ATOM      7  C   UNL     1      -4.706   3.533 -26.247  0.00  0.00    +0.092 A 
ATOM      8  C   UNL     1      -3.407   3.556 -26.292  0.00  0.00    +0.337 A 
ATOM      9  O   UNL     1      -2.719   3.589 -25.188  0.00  0.00    -0.422 OA
ATOM     10  O   UNL     1      -2.796   3.547 -27.439  0.00  0.00    -0.245 OA
ATOM     11  C   UNL     1      -3.330   3.598 -24.041  0.00  0.00    +0.146 A 
ENDROOT
BRANCH   2  12
ATOM     12  O   UNL     1      -2.565   3.673 -20.689  0.00  0.00    -0.495 OA
ATOM     13  C   UNL     1      -3.176   3.690 -19.542  0.00  0.00    +0.277 C 
ENDBRANCH   2  12
BRANCH   1  14
ATOM     14  C   UNL     1      -1.343   3.654 -22.984  0.00  0.00    +0.078 C 
BRANCH  14  15
ATOM     15  C   UNL     1      -0.678   2.546 -23.129  0.00  0.00    +0.144 C 
BRANCH  15  17
ATOM     16  C   UNL     1       1.489   2.571 -22.519  0.00  0.00    +0.010 C 
ATOM     17  C   UNL     1       0.257   2.233 -22.281  0.00  0.00    -0.051 C 
ATOM     18  C   UNL     1      -0.041   1.583 -21.196  0.00  0.00    +0.041 C 
ENDBRANCH  15  17
BRANCH  15  19
ATOM     19  O   UNL     1      -0.947   1.752 -24.122  0.00  0.00    -0.387 OA
ATOM     20  H   UNL     1      -0.137   1.578 -24.626  0.00  0.00    +0.210 HD
ENDBRANCH  15  19
ENDBRANCH  14  15
ENDBRANCH   1  14
TORSDOF 5
ENDMDL
MODEL 6
REMARK VINA RESULT:    -7.738      1.698      2.303
REMARK INTER + INTRA:         -10.019
REMARK INTER:                  -9.576
REMARK INTRA:                  -0.443
REMARK UNBOUND:                -0.245
REMARK  Name = ZINC000013374377
REMARK  7 active torsions:
REMARK  status: ('A' for Active; 'I' for Inactive)
REMARK    1  A    between atoms: C_2  and  C_3
REMARK    2  A    between atoms: C_2  and  C_4
REMARK    3  A    between atoms: C_4  and  O_5
REMARK    4  A    between atoms: C_4  and  C_6
REMARK    5  A    between atoms: C_6  and  C_7
REMARK    6  A    between atoms: C_8  and  O_9
REMARK    7  A    between atoms: O_9  and  C_10
REMARK                            x       y       z     vdW  Elec       q    Type
REMARK                         _______ _______ _______ _____ _____    ______ ____
ROOT
ATOM      1  C   UNL     1       0.369   2.199 -23.363  0.00  0.00    +0.040 A 
ATOM      2  C   UNL     1       0.742   1.705 -22.220  0.00  0.00    +0.127 A 
ATOM      3  C   UNL     1      -0.116   1.586 -21.251  0.00  0.00    +0.047 A 
ATOM      4  C   UNL     1      -1.349   1.961 -21.425  0.00  0.00    +0.015 A 
ATOM      5  C   UNL     1      -1.722   2.455 -22.568  0.00  0.00    +0.018 A 
ATOM      6  C   UNL     1      -2.955   2.831 -22.743  0.00  0.00    +0.018 A 
ATOM      7  C   UNL     1      -3.328   3.325 -23.886  0.00  0.00    +0.092 A 
ATOM      8  C   UNL     1      -2.469   3.444 -24.854  0.00  0.00    +0.337 A 
ATOM      9  O   UNL     1      -1.236   3.068 -24.680  0.00  0.00    -0.422 OA
ATOM     10  O   UNL     1      -2.842   3.938 -25.997  0.00  0.00    -0.245 OA
ATOM     11  C   UNL     1      -0.863   2.574 -23.537  0.00  0.00    +0.146 A 
ENDROOT
BRANCH   2  12
ATOM     12  O   UNL     1       1.975   1.329 -22.045  0.00  0.00    -0.495 OA
ATOM     13  C   UNL     1       2.573   1.566 -20.916  0.00  0.00    +0.277 C 
ENDBRANCH   2  12
BRANCH   1  14
ATOM     14  C   UNL     1       1.228   2.317 -24.332  0.00  0.00    +0.078 C 
BRANCH  14  15
ATOM     15  C   UNL     1       1.620   3.497 -24.712  0.00  0.00    +0.144 C 
BRANCH  15  17
ATOM     16  C   UNL     1       1.855   5.313 -23.403  0.00  0.00    +0.010 C 
ATOM     17  C   UNL     1       2.347   4.227 -23.920  0.00  0.00    -0.051 C 
ATOM     18  C   UNL     1       3.567   3.872 -23.645  0.00  0.00    +0.041 C 
ENDBRANCH  15  17
BRANCH  15  19
ATOM     19  O   UNL     1       1.284   3.946 -25.885  0.00  0.00    -0.387 OA
ATOM     20  H   UNL     1       0.882   3.230 -26.402  0.00  0.00    +0.210 HD
ENDBRANCH  15  19
ENDBRANCH  14  15
ENDBRANCH   1  14
TORSDOF 5
ENDMDL
MODEL 7
REMARK VINA RESULT:    -7.736      1.731      5.711
REMARK INTER + INTRA:         -10.016
REMARK INTER:                  -9.890
REMARK INTRA:                  -0.126
REMARK UNBOUND:                -0.245
REMARK  Name = ZINC000013374377
REMARK  7 active torsions:
REMARK  status: ('A' for Active; 'I' for Inactive)
REMARK    1  A    between atoms: C_2  and  C_3
REMARK    2  A    between atoms: C_2  and  C_4
REMARK    3  A    between atoms: C_4  and  O_5
REMARK    4  A    between atoms: C_4  and  C_6
REMARK    5  A    between atoms: C_6  and  C_7
REMARK    6  A    between atoms: C_8  and  O_9
REMARK    7  A    between atoms: O_9  and  C_10
REMARK                            x       y       z     vdW  Elec       q    Type
REMARK                         _______ _______ _______ _____ _____    ______ ____
ROOT
ATOM      1  C   UNL     1      -0.730   2.924 -23.543  0.00  0.00    +0.040 A 
ATOM      2  C   UNL     1      -0.963   3.513 -24.678  0.00  0.00    +0.127 A 
ATOM      3  C   UNL     1       0.019   3.769 -25.491  0.00  0.00    +0.047 A 
ATOM      4  C   UNL     1       1.233   3.437 -25.168  0.00  0.00    +0.015 A 
ATOM      5  C   UNL     1       1.466   2.848 -24.033  0.00  0.00    +0.018 A 
ATOM      6  C   UNL     1       2.681   2.515 -23.710  0.00  0.00    +0.018 A 
ATOM      7  C   UNL     1       2.913   1.927 -22.575  0.00  0.00    +0.092 A 
ATOM      8  C   UNL     1       1.932   1.670 -21.762  0.00  0.00    +0.337 A 
ATOM      9  O   UNL     1       0.717   2.003 -22.085  0.00  0.00    -0.422 OA
ATOM     10  O   UNL     1       2.164   1.081 -20.627  0.00  0.00    -0.245 OA
ATOM     11  C   UNL     1       0.484   2.592 -23.220  0.00  0.00    +0.146 A 
ENDROOT
BRANCH   2  12
ATOM     12  O   UNL     1      -2.178   3.846 -25.001  0.00  0.00    -0.495 OA
ATOM     13  C   UNL     1      -2.686   3.438 -26.126  0.00  0.00    +0.277 C 
ENDBRANCH   2  12
BRANCH   1  14
ATOM     14  C   UNL     1      -1.712   2.668 -22.730  0.00  0.00    +0.078 C 
BRANCH  14  15
ATOM     15  C   UNL     1      -2.174   3.602 -21.954  0.00  0.00    +0.144 C 
BRANCH  15  17
ATOM     16  C   UNL     1      -3.079   3.755 -19.898  0.00  0.00    +0.010 C 
ATOM     17  C   UNL     1      -3.144   3.341 -21.129  0.00  0.00    -0.051 C 
ATOM     18  C   UNL     1      -4.179   2.667 -21.533  0.00  0.00    +0.041 C 
ENDBRANCH  15  17
BRANCH  15  19
ATOM     19  O   UNL     1      -1.667   4.798 -22.004  0.00  0.00    -0.387 OA
ATOM     20  H   UNL     1      -1.718   5.208 -21.126  0.00  0.00    +0.210 HD
ENDBRANCH  15  19
ENDBRANCH  14  15
ENDBRANCH   1  14
TORSDOF 5
ENDMDL
MODEL 8
REMARK VINA RESULT:    -7.661      1.849      3.717
REMARK INTER + INTRA:          -9.922
REMARK INTER:                  -9.742
REMARK INTRA:                  -0.179
REMARK UNBOUND:                -0.245
REMARK  Name = ZINC000013374377
REMARK  7 active torsions:
REMARK  status: ('A' for Active; 'I' for Inactive)
REMARK    1  A    between atoms: C_2  and  C_3
REMARK    2  A    between atoms: C_2  and  C_4
REMARK    3  A    between atoms: C_4  and  O_5
REMARK    4  A    between atoms: C_4  and  C_6
REMARK    5  A    between atoms: C_6  and  C_7
REMARK    6  A    between atoms: C_8  and  O_9
REMARK    7  A    between atoms: O_9  and  C_10
REMARK                            x       y       z     vdW  Elec       q    Type
REMARK                         _______ _______ _______ _____ _____    ______ ____
ROOT
ATOM      1  C   UNL     1      -2.758   3.864 -24.368  0.00  0.00    +0.040 A 
ATOM      2  C   UNL     1      -3.414   3.825 -25.490  0.00  0.00    +0.127 A 
ATOM      3  C   UNL     1      -4.703   3.654 -25.484  0.00  0.00    +0.047 A 
ATOM      4  C   UNL     1      -5.335   3.522 -24.356  0.00  0.00    +0.015 A 
ATOM      5  C   UNL     1      -4.680   3.561 -23.235  0.00  0.00    +0.018 A 
ATOM      6  C   UNL     1      -5.312   3.428 -22.106  0.00  0.00    +0.018 A 
ATOM      7  C   UNL     1      -4.656   3.467 -20.985  0.00  0.00    +0.092 A 
ATOM      8  C   UNL     1      -3.368   3.638 -20.991  0.00  0.00    +0.337 A 
ATOM      9  O   UNL     1      -2.735   3.770 -22.119  0.00  0.00    -0.422 OA
ATOM     10  O   UNL     1      -2.712   3.677 -19.869  0.00  0.00    -0.245 OA
ATOM     11  C   UNL     1      -3.391   3.732 -23.241  0.00  0.00    +0.146 A 
ENDROOT
BRANCH   2  12
ATOM     12  O   UNL     1      -2.781   3.958 -26.618  0.00  0.00    -0.495 OA
ATOM     13  C   UNL     1      -3.306   3.499 -27.715  0.00  0.00    +0.277 C 
ENDBRANCH   2  12
BRANCH   1  14
ATOM     14  C   UNL     1      -1.469   4.035 -24.374  0.00  0.00    +0.078 C 
BRANCH  14  15
ATOM     15  C   UNL     1      -0.677   3.012 -24.254  0.00  0.00    +0.144 C 
BRANCH  15  17
ATOM     16  C   UNL     1       1.115   3.739 -25.405  0.00  0.00    +0.010 C 
ATOM     17  C   UNL     1       0.609   3.170 -24.352  0.00  0.00    -0.051 C 
ATOM     18  C   UNL     1       1.390   2.760 -23.397  0.00  0.00    +0.041 C 
ENDBRANCH  15  17
BRANCH  15  19
ATOM     19  O   UNL     1      -1.171   1.830 -24.035  0.00  0.00    -0.387 OA
ATOM     20  H   UNL     1      -1.962   1.908 -23.478  0.00  0.00    +0.210 HD
ENDBRANCH  15  19
ENDBRANCH  14  15
ENDBRANCH   1  14
TORSDOF 5
ENDMDL
MODEL 9
REMARK VINA RESULT:    -7.443      2.001      3.616
REMARK INTER + INTRA:          -9.646
REMARK INTER:                  -9.401
REMARK INTRA:                  -0.245
REMARK UNBOUND:                -0.245
REMARK  Name = ZINC000013374377
REMARK  7 active torsions:
REMARK  status: ('A' for Active; 'I' for Inactive)
REMARK    1  A    between atoms: C_2  and  C_3
REMARK    2  A    between atoms: C_2  and  C_4
REMARK    3  A    between atoms: C_4  and  O_5
REMARK    4  A    between atoms: C_4  and  C_6
REMARK    5  A    between atoms: C_6  and  C_7
REMARK    6  A    between atoms: C_8  and  O_9
REMARK    7  A    between atoms: O_9  and  C_10
REMARK                            x       y       z     vdW  Elec       q    Type
REMARK                         _______ _______ _______ _____ _____    ______ ____
ROOT
ATOM      1  C   UNL     1      -0.924   3.154 -23.317  0.00  0.00    +0.040 A 
ATOM      2  C   UNL     1      -0.755   3.227 -24.603  0.00  0.00    +0.127 A 
ATOM      3  C   UNL     1      -1.778   3.401 -25.385  0.00  0.00    +0.047 A 
ATOM      4  C   UNL     1      -2.972   3.500 -24.881  0.00  0.00    +0.015 A 
ATOM      5  C   UNL     1      -3.142   3.426 -23.594  0.00  0.00    +0.018 A 
ATOM      6  C   UNL     1      -4.336   3.526 -23.089  0.00  0.00    +0.018 A 
ATOM      7  C   UNL     1      -4.506   3.452 -21.802  0.00  0.00    +0.092 A 
ATOM      8  C   UNL     1      -3.482   3.279 -21.020  0.00  0.00    +0.337 A 
ATOM      9  O   UNL     1      -2.288   3.179 -21.526  0.00  0.00    -0.422 OA
ATOM     10  O   UNL     1      -3.652   3.205 -19.734  0.00  0.00    -0.245 OA
ATOM     11  C   UNL     1      -2.118   3.253 -22.812  0.00  0.00    +0.146 A 
ENDROOT
BRANCH   2  12
ATOM     12  O   UNL     1       0.440   3.128 -25.108  0.00  0.00    -0.495 OA
ATOM     13  C   UNL     1       0.991   4.156 -25.681  0.00  0.00    +0.277 C 
ENDBRANCH   2  12
BRANCH   1  14
ATOM     14  C   UNL     1       0.100   2.980 -22.535  0.00  0.00    +0.078 C 
BRANCH  14  15
ATOM     15  C   UNL     1       0.515   1.779 -22.264  0.00  0.00    +0.144 C 
BRANCH  15  17
ATOM     16  C   UNL     1       2.540   1.428 -23.185  0.00  0.00    +0.010 C 
ATOM     17  C   UNL     1       1.787   1.545 -22.132  0.00  0.00    -0.051 C 
ATOM     18  C   UNL     1       2.307   1.429 -20.946  0.00  0.00    +0.041 C 
ENDBRANCH  15  17
BRANCH  15  19
ATOM     19  O   UNL     1      -0.341   0.811 -22.127  0.00  0.00    -0.387 OA
ATOM     20  H   UNL     1      -1.232   1.180 -22.022  0.00  0.00    +0.210 HD
ENDBRANCH  15  19
ENDBRANCH  14  15
ENDBRANCH   1  14
TORSDOF 5
ENDMDL
