MODEL 1
REMARK VINA RESULT:    -9.766      0.000      0.000
REMARK INTER + INTRA:          -9.766
REMARK INTER:                  -9.766
REMARK INTRA:                   0.000
REMARK UNBOUND:                 0.000
REMARK  Name = ZINC000004104808
REMARK  3 active torsions:
REMARK  status: ('A' for Active; 'I' for Inactive)
REMARK    1  A    between atoms: C_1  and  C_2
REMARK    2  A    between atoms: C_6  and  C_7
REMARK    3  A    between atoms: C_14  and  C_15
REMARK                            x       y       z     vdW  Elec       q    Type
REMARK                         _______ _______ _______ _____ _____    ______ ____
ROOT
ATOM      1  C   UNL     1      -3.256   3.756 -27.076  0.00  0.00    +0.007 C 
ATOM      2  C   UNL     1      -3.454   3.584 -25.803  0.00  0.00    -0.014 C 
ATOM      3  C   UNL     1      -4.644   3.739 -25.303  0.00  0.00    +0.003 C 
ATOM      4  C   UNL     1      -4.842   3.567 -24.031  0.00  0.00    +0.003 C 
ATOM      5  C   UNL     1      -3.850   3.238 -23.257  0.00  0.00    +0.037 C 
ATOM      6  C   UNL     1      -4.048   3.065 -21.984  0.00  0.00    +0.097 C 
ATOM      7  O   UNL     1      -4.247   2.893 -20.711  0.00  0.00    -0.361 OA
ATOM      8  C   UNL     1      -5.308   3.345 -22.142  0.00  0.00    +0.044 C 
ATOM      9  C   UNL     1      -3.057   2.737 -21.210  0.00  0.00    +0.191 C 
ATOM     10  C   UNL     1      -1.867   2.581 -21.710  0.00  0.00    +0.212 C 
ATOM     11  O   UNL     1      -0.730   2.262 -21.166  0.00  0.00    -0.458 OA
ATOM     12  C   UNL     1       0.171   2.237 -22.104  0.00  0.00    +0.311 C 
ATOM     13  C   UNL     1      -0.410   2.541 -23.226  0.00  0.00    +0.101 C 
ATOM     14  C   UNL     1       0.168   2.619 -24.388  0.00  0.00    +0.019 C 
ATOM     15  O   UNL     1       1.430   1.957 -21.945  0.00  0.00    -0.251 OA
ATOM     16  C   UNL     1      -1.669   2.754 -22.983  0.00  0.00    +0.046 C 
ATOM     17  C   UNL     1      -2.660   3.082 -23.756  0.00  0.00    +0.008 C 
ATOM     18  C   UNL     1      -2.462   3.255 -25.030  0.00  0.00    +0.004 C 
ENDROOT
TORSDOF 0
ENDMDL
MODEL 2
REMARK VINA RESULT:    -9.754      1.934      3.505
REMARK INTER + INTRA:          -9.754
REMARK INTER:                  -9.754
REMARK INTRA:                   0.000
REMARK UNBOUND:                 0.000
REMARK  Name = ZINC000004104808
REMARK  3 active torsions:
REMARK  status: ('A' for Active; 'I' for Inactive)
REMARK    1  A    between atoms: C_1  and  C_2
REMARK    2  A    between atoms: C_6  and  C_7
REMARK    3  A    between atoms: C_14  and  C_15
REMARK                            x       y       z     vdW  Elec       q    Type
REMARK                         _______ _______ _______ _____ _____    ______ ____
ROOT
ATOM      1  C   UNL     1      -4.082   2.241 -19.975  0.00  0.00    +0.007 C 
ATOM      2  C   UNL     1      -4.062   2.694 -21.194  0.00  0.00    -0.014 C 
ATOM      3  C   UNL     1      -5.153   3.147 -21.736  0.00  0.00    +0.003 C 
ATOM      4  C   UNL     1      -5.134   3.599 -22.955  0.00  0.00    +0.003 C 
ATOM      5  C   UNL     1      -4.023   3.599 -23.631  0.00  0.00    +0.037 C 
ATOM      6  C   UNL     1      -4.004   4.051 -24.849  0.00  0.00    +0.097 C 
ATOM      7  O   UNL     1      -3.984   4.504 -26.068  0.00  0.00    -0.361 OA
ATOM      8  C   UNL     1      -5.274   4.313 -24.772  0.00  0.00    +0.044 C 
ATOM      9  C   UNL     1      -2.893   4.051 -25.525  0.00  0.00    +0.191 C 
ATOM     10  C   UNL     1      -1.802   3.597 -24.982  0.00  0.00    +0.212 C 
ATOM     11  O   UNL     1      -0.588   3.488 -25.432  0.00  0.00    -0.458 OA
ATOM     12  C   UNL     1       0.143   2.968 -24.491  0.00  0.00    +0.311 C 
ATOM     13  C   UNL     1      -0.620   2.756 -23.460  0.00  0.00    +0.101 C 
ATOM     14  C   UNL     1      -0.245   2.245 -22.325  0.00  0.00    +0.019 C 
ATOM     15  O   UNL     1       1.414   2.706 -24.568  0.00  0.00    -0.251 OA
ATOM     16  C   UNL     1      -1.822   3.145 -23.764  0.00  0.00    +0.046 C 
ATOM     17  C   UNL     1      -2.932   3.146 -23.088  0.00  0.00    +0.008 C 
ATOM     18  C   UNL     1      -2.952   2.693 -21.869  0.00  0.00    +0.004 C 
ENDROOT
TORSDOF 0
ENDMDL
MODEL 3
REMARK VINA RESULT:    -9.601      2.124      4.982
REMARK INTER + INTRA:          -9.601
REMARK INTER:                  -9.601
REMARK INTRA:                   0.000
REMARK UNBOUND:                 0.000
REMARK  Name = ZINC000004104808
REMARK  3 active torsions:
REMARK  status: ('A' for Active; 'I' for Inactive)
REMARK    1  A    between atoms: C_1  and  C_2
REMARK    2  A    between atoms: C_6  and  C_7
REMARK    3  A    between atoms: C_14  and  C_15
REMARK                            x       y       z     vdW  Elec       q    Type
REMARK                         _______ _______ _______ _____ _____    ______ ____
ROOT
ATOM      1  C   UNL     1       0.464   1.501 -20.630  0.00  0.00    +0.007 C 
ATOM      2  C   UNL     1      -0.096   1.982 -21.700  0.00  0.00    -0.014 C 
ATOM      3  C   UNL     1       0.618   2.203 -22.764  0.00  0.00    +0.003 C 
ATOM      4  C   UNL     1       0.058   2.684 -23.834  0.00  0.00    +0.003 C 
ATOM      5  C   UNL     1      -1.217   2.943 -23.841  0.00  0.00    +0.037 C 
ATOM      6  C   UNL     1      -1.777   3.424 -24.911  0.00  0.00    +0.097 C 
ATOM      7  O   UNL     1      -2.336   3.904 -25.981  0.00  0.00    -0.361 OA
ATOM      8  C   UNL     1      -0.629   3.402 -25.521  0.00  0.00    +0.044 C 
ATOM      9  C   UNL     1      -3.050   3.683 -24.918  0.00  0.00    +0.191 C 
ATOM     10  C   UNL     1      -3.764   3.461 -23.854  0.00  0.00    +0.212 C 
ATOM     11  O   UNL     1      -5.029   3.629 -23.604  0.00  0.00    -0.458 OA
ATOM     12  C   UNL     1      -5.250   3.253 -22.380  0.00  0.00    +0.311 C 
ATOM     13  C   UNL     1      -4.122   2.852 -21.873  0.00  0.00    +0.101 C 
ATOM     14  C   UNL     1      -3.944   2.401 -20.666  0.00  0.00    +0.019 C 
ATOM     15  O   UNL     1      -6.397   3.274 -21.770  0.00  0.00    -0.251 OA
ATOM     16  C   UNL     1      -3.204   2.980 -22.784  0.00  0.00    +0.046 C 
ATOM     17  C   UNL     1      -1.931   2.721 -22.777  0.00  0.00    +0.008 C 
ATOM     18  C   UNL     1      -1.370   2.240 -21.707  0.00  0.00    +0.004 C 
ENDROOT
TORSDOF 0
ENDMDL
MODEL 4
REMARK VINA RESULT:    -9.119      2.362      4.126
REMARK INTER + INTRA:          -9.119
REMARK INTER:                  -9.119
REMARK INTRA:                   0.000
REMARK UNBOUND:                 0.000
REMARK  Name = ZINC000004104808
REMARK  3 active torsions:
REMARK  status: ('A' for Active; 'I' for Inactive)
REMARK    1  A    between atoms: C_1  and  C_2
REMARK    2  A    between atoms: C_6  and  C_7
REMARK    3  A    between atoms: C_14  and  C_15
REMARK                            x       y       z     vdW  Elec       q    Type
REMARK                         _______ _______ _______ _____ _____    ______ ____
ROOT
ATOM      1  C   UNL     1       0.490   2.023 -22.125  0.00  0.00    +0.007 C 
ATOM      2  C   UNL     1      -0.776   2.316 -22.109  0.00  0.00    -0.014 C 
ATOM      3  C   UNL     1      -1.457   2.194 -21.009  0.00  0.00    +0.003 C 
ATOM      4  C   UNL     1      -2.724   2.487 -20.992  0.00  0.00    +0.003 C 
ATOM      5  C   UNL     1      -3.309   2.903 -22.076  0.00  0.00    +0.037 C 
ATOM      6  C   UNL     1      -4.575   3.197 -22.060  0.00  0.00    +0.097 C 
ATOM      7  O   UNL     1      -5.841   3.490 -22.044  0.00  0.00    -0.361 OA
ATOM      8  C   UNL     1      -4.631   2.886 -20.799  0.00  0.00    +0.044 C 
ATOM      9  C   UNL     1      -5.160   3.612 -23.144  0.00  0.00    +0.191 C 
ATOM     10  C   UNL     1      -4.478   3.734 -24.244  0.00  0.00    +0.212 C 
ATOM     11  O   UNL     1      -4.816   4.120 -25.439  0.00  0.00    -0.458 OA
ATOM     12  C   UNL     1      -3.759   4.065 -26.193  0.00  0.00    +0.311 C 
ATOM     13  C   UNL     1      -2.767   3.645 -25.465  0.00  0.00    +0.101 C 
ATOM     14  C   UNL     1      -1.546   3.462 -25.870  0.00  0.00    +0.019 C 
ATOM     15  O   UNL     1      -3.703   4.375 -27.454  0.00  0.00    -0.251 OA
ATOM     16  C   UNL     1      -3.212   3.441 -24.261  0.00  0.00    +0.046 C 
ATOM     17  C   UNL     1      -2.627   3.025 -23.177  0.00  0.00    +0.008 C 
ATOM     18  C   UNL     1      -1.360   2.731 -23.193  0.00  0.00    +0.004 C 
ENDROOT
TORSDOF 0
ENDMDL
MODEL 5
REMARK VINA RESULT:    -8.654      1.434      4.386
REMARK INTER + INTRA:          -8.654
REMARK INTER:                  -8.654
REMARK INTRA:                   0.000
REMARK UNBOUND:                 0.000
REMARK  Name = ZINC000004104808
REMARK  3 active torsions:
REMARK  status: ('A' for Active; 'I' for Inactive)
REMARK    1  A    between atoms: C_1  and  C_2
REMARK    2  A    between atoms: C_6  and  C_7
REMARK    3  A    between atoms: C_14  and  C_15
REMARK                            x       y       z     vdW  Elec       q    Type
REMARK                         _______ _______ _______ _____ _____    ______ ____
ROOT
ATOM      1  C   UNL     1       1.189   4.445 -26.047  0.00  0.00    +0.007 C 
ATOM      2  C   UNL     1       0.972   3.770 -24.957  0.00  0.00    -0.014 C 
ATOM      3  C   UNL     1       1.958   3.176 -24.354  0.00  0.00    +0.003 C 
ATOM      4  C   UNL     1       1.741   2.501 -23.264  0.00  0.00    +0.003 C 
ATOM      5  C   UNL     1       0.538   2.421 -22.777  0.00  0.00    +0.037 C 
ATOM      6  C   UNL     1       0.321   1.746 -21.688  0.00  0.00    +0.097 C 
ATOM      7  O   UNL     1       0.104   1.072 -20.598  0.00  0.00    -0.361 OA
ATOM      8  C   UNL     1       1.584   1.449 -21.620  0.00  0.00    +0.044 C 
ATOM      9  C   UNL     1      -0.882   1.666 -21.202  0.00  0.00    +0.191 C 
ATOM     10  C   UNL     1      -1.868   2.261 -21.806  0.00  0.00    +0.212 C 
ATOM     11  O   UNL     1      -3.137   2.335 -21.533  0.00  0.00    -0.458 OA
ATOM     12  C   UNL     1      -3.704   3.056 -22.455  0.00  0.00    +0.311 C 
ATOM     13  C   UNL     1      -2.785   3.427 -23.297  0.00  0.00    +0.101 C 
ATOM     14  C   UNL     1      -2.969   4.160 -24.354  0.00  0.00    +0.019 C 
ATOM     15  O   UNL     1      -4.967   3.353 -22.523  0.00  0.00    -0.251 OA
ATOM     16  C   UNL     1      -1.651   2.936 -22.895  0.00  0.00    +0.046 C 
ATOM     17  C   UNL     1      -0.448   3.015 -23.381  0.00  0.00    +0.008 C 
ATOM     18  C   UNL     1      -0.231   3.690 -24.471  0.00  0.00    +0.004 C 
ENDROOT
TORSDOF 0
ENDMDL
MODEL 6
REMARK VINA RESULT:    -8.350      1.201      3.549
REMARK INTER + INTRA:          -8.350
REMARK INTER:                  -8.350
REMARK INTRA:                   0.000
REMARK UNBOUND:                 0.000
REMARK  Name = ZINC000004104808
REMARK  3 active torsions:
REMARK  status: ('A' for Active; 'I' for Inactive)
REMARK    1  A    between atoms: C_1  and  C_2
REMARK    2  A    between atoms: C_6  and  C_7
REMARK    3  A    between atoms: C_14  and  C_15
REMARK                            x       y       z     vdW  Elec       q    Type
REMARK                         _______ _______ _______ _____ _____    ______ ____
ROOT
ATOM      1  C   UNL     1      -5.234   3.376 -26.264  0.00  0.00    +0.007 C 
ATOM      2  C   UNL     1      -4.054   3.417 -25.720  0.00  0.00    -0.014 C 
ATOM      3  C   UNL     1      -2.992   3.444 -26.469  0.00  0.00    +0.003 C 
ATOM      4  C   UNL     1      -1.813   3.485 -25.925  0.00  0.00    +0.003 C 
ATOM      5  C   UNL     1      -1.694   3.499 -24.630  0.00  0.00    +0.037 C 
ATOM      6  C   UNL     1      -0.515   3.540 -24.086  0.00  0.00    +0.097 C 
ATOM      7  O   UNL     1       0.665   3.582 -23.542  0.00  0.00    -0.361 OA
ATOM      8  C   UNL     1       0.030   3.548 -25.266  0.00  0.00    +0.044 C 
ATOM      9  C   UNL     1      -0.397   3.555 -22.792  0.00  0.00    +0.191 C 
ATOM     10  C   UNL     1      -1.458   3.528 -22.042  0.00  0.00    +0.212 C 
ATOM     11  O   UNL     1      -1.611   3.533 -20.751  0.00  0.00    -0.458 OA
ATOM     12  C   UNL     1      -2.886   3.496 -20.498  0.00  0.00    +0.311 C 
ATOM     13  C   UNL     1      -3.520   3.467 -21.632  0.00  0.00    +0.101 C 
ATOM     14  C   UNL     1      -4.811   3.426 -21.785  0.00  0.00    +0.019 C 
ATOM     15  O   UNL     1      -3.430   3.489 -19.317  0.00  0.00    -0.251 OA
ATOM     16  C   UNL     1      -2.638   3.487 -22.586  0.00  0.00    +0.046 C 
ATOM     17  C   UNL     1      -2.756   3.472 -23.880  0.00  0.00    +0.008 C 
ATOM     18  C   UNL     1      -3.936   3.431 -24.425  0.00  0.00    +0.004 C 
ENDROOT
TORSDOF 0
ENDMDL
MODEL 7
REMARK VINA RESULT:    -8.242      1.357      2.402
REMARK INTER + INTRA:          -8.242
REMARK INTER:                  -8.242
REMARK INTRA:                   0.000
REMARK UNBOUND:                 0.000
REMARK  Name = ZINC000004104808
REMARK  3 active torsions:
REMARK  status: ('A' for Active; 'I' for Inactive)
REMARK    1  A    between atoms: C_1  and  C_2
REMARK    2  A    between atoms: C_6  and  C_7
REMARK    3  A    between atoms: C_14  and  C_15
REMARK                            x       y       z     vdW  Elec       q    Type
REMARK                         _______ _______ _______ _____ _____    ______ ____
ROOT
ATOM      1  C   UNL     1      -5.549   4.224 -24.991  0.00  0.00    +0.007 C 
ATOM      2  C   UNL     1      -4.675   3.841 -24.108  0.00  0.00    -0.014 C 
ATOM      3  C   UNL     1      -5.046   3.613 -22.883  0.00  0.00    +0.003 C 
ATOM      4  C   UNL     1      -4.172   3.231 -21.999  0.00  0.00    +0.003 C 
ATOM      5  C   UNL     1      -2.927   3.076 -22.341  0.00  0.00    +0.037 C 
ATOM      6  C   UNL     1      -2.053   2.693 -21.458  0.00  0.00    +0.097 C 
ATOM      7  O   UNL     1      -1.180   2.311 -20.575  0.00  0.00    -0.361 OA
ATOM      8  C   UNL     1      -2.986   2.651 -20.554  0.00  0.00    +0.044 C 
ATOM      9  C   UNL     1      -0.809   2.539 -21.800  0.00  0.00    +0.191 C 
ATOM     10  C   UNL     1      -0.438   2.767 -23.025  0.00  0.00    +0.212 C 
ATOM     11  O   UNL     1       0.719   2.689 -23.612  0.00  0.00    -0.458 OA
ATOM     12  C   UNL     1       0.560   3.023 -24.858  0.00  0.00    +0.311 C 
ATOM     13  C   UNL     1      -0.695   3.308 -25.041  0.00  0.00    +0.101 C 
ATOM     14  C   UNL     1      -1.238   3.685 -26.160  0.00  0.00    +0.019 C 
ATOM     15  O   UNL     1       1.493   3.065 -25.762  0.00  0.00    -0.251 OA
ATOM     16  C   UNL     1      -1.312   3.149 -23.908  0.00  0.00    +0.046 C 
ATOM     17  C   UNL     1      -2.556   3.304 -23.566  0.00  0.00    +0.008 C 
ATOM     18  C   UNL     1      -3.431   3.687 -24.449  0.00  0.00    +0.004 C 
ENDROOT
TORSDOF 0
ENDMDL
MODEL 8
REMARK VINA RESULT:    -8.166      1.929      4.036
REMARK INTER + INTRA:          -8.166
REMARK INTER:                  -8.166
REMARK INTRA:                   0.000
REMARK UNBOUND:                 0.000
REMARK  Name = ZINC000004104808
REMARK  3 active torsions:
REMARK  status: ('A' for Active; 'I' for Inactive)
REMARK    1  A    between atoms: C_1  and  C_2
REMARK    2  A    between atoms: C_6  and  C_7
REMARK    3  A    between atoms: C_14  and  C_15
REMARK                            x       y       z     vdW  Elec       q    Type
REMARK                         _______ _______ _______ _____ _____    ______ ____
ROOT
ATOM      1  C   UNL     1       1.605   3.453 -23.813  0.00  0.00    +0.007 C 
ATOM      2  C   UNL     1       0.372   3.457 -24.224  0.00  0.00    -0.014 C 
ATOM      3  C   UNL     1       0.108   3.643 -25.484  0.00  0.00    +0.003 C 
ATOM      4  C   UNL     1      -1.125   3.647 -25.895  0.00  0.00    +0.003 C 
ATOM      5  C   UNL     1      -2.094   3.466 -25.048  0.00  0.00    +0.037 C 
ATOM      6  C   UNL     1      -3.327   3.470 -25.459  0.00  0.00    +0.097 C 
ATOM      7  O   UNL     1      -4.560   3.474 -25.871  0.00  0.00    -0.361 OA
ATOM      8  C   UNL     1      -2.920   3.682 -26.676  0.00  0.00    +0.044 C 
ATOM      9  C   UNL     1      -4.296   3.289 -24.612  0.00  0.00    +0.191 C 
ATOM     10  C   UNL     1      -4.031   3.103 -23.353  0.00  0.00    +0.212 C 
ATOM     11  O   UNL     1      -4.799   2.903 -22.323  0.00  0.00    -0.458 OA
ATOM     12  C   UNL     1      -4.040   2.775 -21.275  0.00  0.00    +0.311 C 
ATOM     13  C   UNL     1      -2.804   2.896 -21.657  0.00  0.00    +0.101 C 
ATOM     14  C   UNL     1      -1.757   2.827 -20.890  0.00  0.00    +0.019 C 
ATOM     15  O   UNL     1      -4.447   2.563 -20.059  0.00  0.00    -0.251 OA
ATOM     16  C   UNL     1      -2.798   3.099 -22.941  0.00  0.00    +0.046 C 
ATOM     17  C   UNL     1      -1.830   3.280 -23.788  0.00  0.00    +0.008 C 
ATOM     18  C   UNL     1      -0.596   3.276 -23.377  0.00  0.00    +0.004 C 
ENDROOT
TORSDOF 0
ENDMDL
MODEL 9
REMARK VINA RESULT:    -8.103      1.737      4.196
REMARK INTER + INTRA:          -8.103
REMARK INTER:                  -8.103
REMARK INTRA:                   0.000
REMARK UNBOUND:                 0.000
REMARK  Name = ZINC000004104808
REMARK  3 active torsions:
REMARK  status: ('A' for Active; 'I' for Inactive)
REMARK    1  A    between atoms: C_1  and  C_2
REMARK    2  A    between atoms: C_6  and  C_7
REMARK    3  A    between atoms: C_14  and  C_15
REMARK                            x       y       z     vdW  Elec       q    Type
REMARK                         _______ _______ _______ _____ _____    ______ ____
ROOT
ATOM      1  C   UNL     1       1.708   2.718 -25.496  0.00  0.00    +0.007 C 
ATOM      2  C   UNL     1       0.804   2.686 -24.562  0.00  0.00    -0.014 C 
ATOM      3  C   UNL     1       1.138   2.371 -23.345  0.00  0.00    +0.003 C 
ATOM      4  C   UNL     1       0.234   2.340 -22.411  0.00  0.00    +0.003 C 
ATOM      5  C   UNL     1      -1.003   2.624 -22.693  0.00  0.00    +0.037 C 
ATOM      6  C   UNL     1      -1.906   2.592 -21.759  0.00  0.00    +0.097 C 
ATOM      7  O   UNL     1      -2.809   2.561 -20.825  0.00  0.00    -0.361 OA
ATOM      8  C   UNL     1      -1.000   2.247 -20.894  0.00  0.00    +0.044 C 
ATOM      9  C   UNL     1      -3.143   2.876 -22.041  0.00  0.00    +0.191 C 
ATOM     10  C   UNL     1      -3.476   3.191 -23.258  0.00  0.00    +0.212 C 
ATOM     11  O   UNL     1      -4.618   3.510 -23.792  0.00  0.00    -0.458 OA
ATOM     12  C   UNL     1      -4.419   3.739 -25.056  0.00  0.00    +0.311 C 
ATOM     13  C   UNL     1      -3.155   3.561 -25.303  0.00  0.00    +0.101 C 
ATOM     14  C   UNL     1      -2.576   3.698 -26.459  0.00  0.00    +0.019 C 
ATOM     15  O   UNL     1      -5.326   4.085 -25.921  0.00  0.00    -0.251 OA
ATOM     16  C   UNL     1      -2.573   3.223 -24.192  0.00  0.00    +0.046 C 
ATOM     17  C   UNL     1      -1.336   2.939 -23.910  0.00  0.00    +0.008 C 
ATOM     18  C   UNL     1      -0.432   2.970 -24.844  0.00  0.00    +0.004 C 
ENDROOT
TORSDOF 0
ENDMDL
