MODEL 1
REMARK VINA RESULT:    -7.892      0.000      0.000
REMARK INTER + INTRA:         -10.637
REMARK INTER:                 -11.977
REMARK INTRA:                   1.339
REMARK UNBOUND:                 0.946
REMARK  Name = ZINC000004716501
REMARK  13 active torsions:
REMARK  status: ('A' for Active; 'I' for Inactive)
REMARK    1  A    between atoms: C_1  and  O_2
REMARK    2  A    between atoms: O_2  and  C_3
REMARK    3  A    between atoms: C_6  and  C_7
REMARK    4  A    between atoms: C_11  and  O_12
REMARK    5  A    between atoms: O_12  and  C_13
REMARK    6  A    between atoms: C_13  and  C_14
REMARK    7  A    between atoms: C_16  and  O_17
REMARK    8  A    between atoms: O_17  and  C_18
REMARK    9  A    between atoms: C_19  and  O_20
REMARK   10  A    between atoms: O_20  and  C_21
REMARK   11  A    between atoms: C_21  and  C_22
REMARK   12  A    between atoms: C_27  and  O_28
REMARK   13  A    between atoms: O_28  and  C_29
REMARK                            x       y       z     vdW  Elec       q    Type
REMARK                         _______ _______ _______ _____ _____    ______ ____
ROOT
ATOM      1  C   UNL     1       0.729   3.480 -23.458  0.00  0.00    +0.181 A 
ATOM      2  O   UNL     1       1.626   4.421 -23.500  0.00  0.00    -0.451 OA
ATOM      3  C   UNL     1       2.861   4.156 -23.192  0.00  0.00    +0.147 A 
ATOM      4  C   UNL     1       3.757   5.097 -23.234  0.00  0.00    +0.097 A 
ATOM      5  C   UNL     1       4.992   4.833 -22.926  0.00  0.00    +0.180 A 
ATOM      6  C   UNL     1       5.331   3.628 -22.575  0.00  0.00    +0.206 A 
ATOM      7  C   UNL     1       4.434   2.687 -22.532  0.00  0.00    +0.191 A 
ATOM      8  C   UNL     1       3.199   2.951 -22.841  0.00  0.00    +0.114 A 
ATOM      9  C   UNL     1       2.303   2.011 -22.798  0.00  0.00    +0.238 A 
ATOM     10  O   UNL     1       2.642   0.806 -22.447  0.00  0.00    -0.283 OA
ATOM     11  C   UNL     1       1.068   2.275 -23.107  0.00  0.00    +0.211 A 
ENDROOT
BRANCH   1  15
ATOM     12  C   UNL     1      -2.975   4.273 -24.384  0.00  0.00    +0.120 A 
ATOM     13  C   UNL     1      -2.176   3.765 -25.275  0.00  0.00    +0.046 A 
ATOM     14  C   UNL     1      -0.942   3.500 -24.966  0.00  0.00    +0.015 A 
ATOM     15  C   UNL     1      -0.505   3.744 -23.766  0.00  0.00    +0.021 A 
ATOM     16  C   UNL     1      -1.304   4.252 -22.875  0.00  0.00    +0.015 A 
ATOM     17  C   UNL     1      -2.539   4.517 -23.183  0.00  0.00    +0.046 A 
BRANCH  12  19
ATOM     18  C   UNL     1      -5.178   3.963 -24.042  0.00  0.00    +0.277 C 
ATOM     19  O   UNL     1      -4.210   4.537 -24.692  0.00  0.00    -0.495 OA
ENDBRANCH  12  19
ENDBRANCH   1  15
BRANCH   6  20
ATOM     20  O   UNL     1       6.565   3.363 -22.266  0.00  0.00    -0.488 OA
ATOM     21  C   UNL     1       7.422   3.080 -23.202  0.00  0.00    +0.277 C 
ENDBRANCH   6  20
BRANCH  11  22
ATOM     22  O   UNL     1       0.172   1.334 -23.064  0.00  0.00    -0.488 OA
ATOM     23  C   UNL     1      -0.473   1.100 -21.960  0.00  0.00    +0.277 C 
ENDBRANCH  11  22
BRANCH   5  24
ATOM     24  O   UNL     1       5.888   5.773 -22.968  0.00  0.00    -0.422 OA
BRANCH  24  25
ATOM     25  C   UNL     1       6.087   6.528 -21.929  0.00  0.00    +0.309 C 
ATOM     26  O   UNL     1       5.087   7.142 -21.369  0.00  0.00    -0.251 OA
ATOM     27  C   UNL     1       7.288   6.669 -21.447  0.00  0.00    +0.136 C 
ENDBRANCH  24  25
ENDBRANCH   5  24
BRANCH   7  28
ATOM     28  O   UNL     1       4.772   1.482 -22.181  0.00  0.00    -0.421 OA
BRANCH  28  29
ATOM     29  C   UNL     1       5.019   1.214 -20.933  0.00  0.00    +0.309 C 
ATOM     30  O   UNL     1       5.003   2.167 -20.048  0.00  0.00    -0.251 OA
ATOM     31  C   UNL     1       5.283  -0.005 -20.569  0.00  0.00    +0.136 C 
ENDBRANCH  28  29
ENDBRANCH   7  28
TORSDOF 8
ENDMDL
MODEL 2
REMARK VINA RESULT:    -7.388      2.010      3.627
REMARK INTER + INTRA:          -9.898
REMARK INTER:                 -10.481
REMARK INTRA:                   0.584
REMARK UNBOUND:                 0.946
REMARK  Name = ZINC000004716501
REMARK  13 active torsions:
REMARK  status: ('A' for Active; 'I' for Inactive)
REMARK    1  A    between atoms: C_1  and  O_2
REMARK    2  A    between atoms: O_2  and  C_3
REMARK    3  A    between atoms: C_6  and  C_7
REMARK    4  A    between atoms: C_11  and  O_12
REMARK    5  A    between atoms: O_12  and  C_13
REMARK    6  A    between atoms: C_13  and  C_14
REMARK    7  A    between atoms: C_16  and  O_17
REMARK    8  A    between atoms: O_17  and  C_18
REMARK    9  A    between atoms: C_19  and  O_20
REMARK   10  A    between atoms: O_20  and  C_21
REMARK   11  A    between atoms: C_21  and  C_22
REMARK   12  A    between atoms: C_27  and  O_28
REMARK   13  A    between atoms: O_28  and  C_29
REMARK                            x       y       z     vdW  Elec       q    Type
REMARK                         _______ _______ _______ _____ _____    ______ ____
ROOT
ATOM      1  C   UNL     1       2.489   4.661 -23.447  0.00  0.00    +0.181 A 
ATOM      2  O   UNL     1       2.577   5.862 -22.957  0.00  0.00    -0.451 OA
ATOM      3  C   UNL     1       3.726   6.317 -22.554  0.00  0.00    +0.147 A 
ATOM      4  C   UNL     1       3.814   7.518 -22.065  0.00  0.00    +0.097 A 
ATOM      5  C   UNL     1       4.964   7.973 -21.661  0.00  0.00    +0.180 A 
ATOM      6  C   UNL     1       6.025   7.227 -21.748  0.00  0.00    +0.206 A 
ATOM      7  C   UNL     1       5.936   6.025 -22.239  0.00  0.00    +0.191 A 
ATOM      8  C   UNL     1       4.787   5.571 -22.641  0.00  0.00    +0.114 A 
ATOM      9  C   UNL     1       4.699   4.370 -23.131  0.00  0.00    +0.238 A 
ATOM     10  O   UNL     1       5.760   3.624 -23.218  0.00  0.00    -0.283 OA
ATOM     11  C   UNL     1       3.549   3.914 -23.534  0.00  0.00    +0.211 A 
ENDROOT
BRANCH   1  15
ATOM     12  C   UNL     1      -0.960   3.296 -24.655  0.00  0.00    +0.120 A 
ATOM     13  C   UNL     1      -0.685   3.338 -23.385  0.00  0.00    +0.046 A 
ATOM     14  C   UNL     1       0.464   3.793 -22.982  0.00  0.00    +0.015 A 
ATOM     15  C   UNL     1       1.340   4.206 -23.850  0.00  0.00    +0.021 A 
ATOM     16  C   UNL     1       1.066   4.164 -25.121  0.00  0.00    +0.015 A 
ATOM     17  C   UNL     1      -0.083   3.710 -25.523  0.00  0.00    +0.046 A 
BRANCH  12  19
ATOM     18  C   UNL     1      -2.917   3.616 -25.720  0.00  0.00    +0.277 C 
ATOM     19  O   UNL     1      -2.108   2.842 -25.059  0.00  0.00    -0.495 OA
ENDBRANCH  12  19
ENDBRANCH   1  15
BRANCH   6  20
ATOM     20  O   UNL     1       7.174   7.681 -21.346  0.00  0.00    -0.488 OA
ATOM     21  C   UNL     1       7.916   8.378 -22.154  0.00  0.00    +0.277 C 
ENDBRANCH   6  20
BRANCH  11  22
ATOM     22  O   UNL     1       3.461   2.714 -24.024  0.00  0.00    -0.488 OA
ATOM     23  C   UNL     1       3.429   1.688 -23.226  0.00  0.00    +0.277 C 
ENDBRANCH  11  22
BRANCH   5  24
ATOM     24  O   UNL     1       5.053   9.173 -21.172  0.00  0.00    -0.422 OA
BRANCH  24  25
ATOM     25  C   UNL     1       4.652  10.192 -21.873  0.00  0.00    +0.309 C 
ATOM     26  O   UNL     1       5.088  10.359 -23.086  0.00  0.00    -0.251 OA
ATOM     27  C   UNL     1       3.814  11.045 -21.361  0.00  0.00    +0.136 C 
ENDBRANCH  24  25
ENDBRANCH   5  24
BRANCH   7  28
ATOM     28  O   UNL     1       6.997   5.279 -22.326  0.00  0.00    -0.421 OA
BRANCH  28  29
ATOM     29  C   UNL     1       7.581   4.852 -21.245  0.00  0.00    +0.309 C 
ATOM     30  O   UNL     1       6.875   4.322 -20.291  0.00  0.00    -0.251 OA
ATOM     31  C   UNL     1       8.870   4.954 -21.119  0.00  0.00    +0.136 C 
ENDBRANCH  28  29
ENDBRANCH   7  28
TORSDOF 8
ENDMDL
MODEL 3
REMARK VINA RESULT:    -7.196      1.796      2.669
REMARK INTER + INTRA:          -9.615
REMARK INTER:                 -10.705
REMARK INTRA:                   1.090
REMARK UNBOUND:                 0.946
REMARK  Name = ZINC000004716501
REMARK  13 active torsions:
REMARK  status: ('A' for Active; 'I' for Inactive)
REMARK    1  A    between atoms: C_1  and  O_2
REMARK    2  A    between atoms: O_2  and  C_3
REMARK    3  A    between atoms: C_6  and  C_7
REMARK    4  A    between atoms: C_11  and  O_12
REMARK    5  A    between atoms: O_12  and  C_13
REMARK    6  A    between atoms: C_13  and  C_14
REMARK    7  A    between atoms: C_16  and  O_17
REMARK    8  A    between atoms: O_17  and  C_18
REMARK    9  A    between atoms: C_19  and  O_20
REMARK   10  A    between atoms: O_20  and  C_21
REMARK   11  A    between atoms: C_21  and  C_22
REMARK   12  A    between atoms: C_27  and  O_28
REMARK   13  A    between atoms: O_28  and  C_29
REMARK                            x       y       z     vdW  Elec       q    Type
REMARK                         _______ _______ _______ _____ _____    ______ ____
ROOT
ATOM      1  C   UNL     1       1.574   4.143 -23.649  0.00  0.00    +0.181 A 
ATOM      2  O   UNL     1       1.994   5.305 -23.243  0.00  0.00    -0.451 OA
ATOM      3  C   UNL     1       3.249   5.478 -22.956  0.00  0.00    +0.147 A 
ATOM      4  C   UNL     1       3.669   6.639 -22.550  0.00  0.00    +0.097 A 
ATOM      5  C   UNL     1       4.925   6.813 -22.263  0.00  0.00    +0.180 A 
ATOM      6  C   UNL     1       5.761   5.825 -22.381  0.00  0.00    +0.206 A 
ATOM      7  C   UNL     1       5.341   4.662 -22.786  0.00  0.00    +0.191 A 
ATOM      8  C   UNL     1       4.085   4.489 -23.074  0.00  0.00    +0.114 A 
ATOM      9  C   UNL     1       3.666   3.328 -23.479  0.00  0.00    +0.238 A 
ATOM     10  O   UNL     1       4.502   2.339 -23.597  0.00  0.00    -0.283 OA
ATOM     11  C   UNL     1       2.410   3.154 -23.767  0.00  0.00    +0.211 A 
ENDROOT
BRANCH   1  15
ATOM     12  C   UNL     1      -2.195   3.623 -24.512  0.00  0.00    +0.120 A 
ATOM     13  C   UNL     1      -1.311   3.684 -25.464  0.00  0.00    +0.046 A 
ATOM     14  C   UNL     1      -0.056   3.857 -25.176  0.00  0.00    +0.015 A 
ATOM     15  C   UNL     1       0.318   3.969 -23.936  0.00  0.00    +0.021 A 
ATOM     16  C   UNL     1      -0.565   3.908 -22.983  0.00  0.00    +0.015 A 
ATOM     17  C   UNL     1      -1.821   3.735 -23.270  0.00  0.00    +0.046 A 
BRANCH  12  19
ATOM     18  C   UNL     1      -3.806   3.175 -26.018  0.00  0.00    +0.277 C 
ATOM     19  O   UNL     1      -3.450   3.450 -24.798  0.00  0.00    -0.495 OA
ENDBRANCH  12  19
ENDBRANCH   1  15
BRANCH   6  20
ATOM     20  O   UNL     1       7.018   5.997 -22.093  0.00  0.00    -0.488 OA
ATOM     21  C   UNL     1       7.412   5.953 -20.856  0.00  0.00    +0.277 C 
ENDBRANCH   6  20
BRANCH  11  22
ATOM     22  O   UNL     1       1.990   1.993 -24.172  0.00  0.00    -0.488 OA
ATOM     23  C   UNL     1       2.430   1.497 -25.291  0.00  0.00    +0.277 C 
ENDBRANCH  11  22
BRANCH   5  24
ATOM     24  O   UNL     1       5.345   7.974 -21.857  0.00  0.00    -0.422 OA
BRANCH  24  25
ATOM     25  C   UNL     1       4.644   8.656 -21.001  0.00  0.00    +0.309 C 
ATOM     26  O   UNL     1       4.334   8.135 -19.851  0.00  0.00    -0.251 OA
ATOM     27  C   UNL     1       4.251   9.861 -21.295  0.00  0.00    +0.136 C 
ENDBRANCH  24  25
ENDBRANCH   5  24
BRANCH   7  28
ATOM     28  O   UNL     1       6.177   3.674 -22.905  0.00  0.00    -0.421 OA
BRANCH  28  29
ATOM     29  C   UNL     1       7.149   3.744 -23.766  0.00  0.00    +0.309 C 
ATOM     30  O   UNL     1       7.009   4.455 -24.846  0.00  0.00    -0.251 OA
ATOM     31  C   UNL     1       8.258   3.104 -23.549  0.00  0.00    +0.136 C 
ENDBRANCH  28  29
ENDBRANCH   7  28
TORSDOF 8
ENDMDL
MODEL 4
REMARK VINA RESULT:    -6.840      2.546      7.044
REMARK INTER + INTRA:          -9.093
REMARK INTER:                  -9.820
REMARK INTRA:                   0.726
REMARK UNBOUND:                 0.946
REMARK  Name = ZINC000004716501
REMARK  13 active torsions:
REMARK  status: ('A' for Active; 'I' for Inactive)
REMARK    1  A    between atoms: C_1  and  O_2
REMARK    2  A    between atoms: O_2  and  C_3
REMARK    3  A    between atoms: C_6  and  C_7
REMARK    4  A    between atoms: C_11  and  O_12
REMARK    5  A    between atoms: O_12  and  C_13
REMARK    6  A    between atoms: C_13  and  C_14
REMARK    7  A    between atoms: C_16  and  O_17
REMARK    8  A    between atoms: O_17  and  C_18
REMARK    9  A    between atoms: C_19  and  O_20
REMARK   10  A    between atoms: O_20  and  C_21
REMARK   11  A    between atoms: C_21  and  C_22
REMARK   12  A    between atoms: C_27  and  O_28
REMARK   13  A    between atoms: O_28  and  C_29
REMARK                            x       y       z     vdW  Elec       q    Type
REMARK                         _______ _______ _______ _____ _____    ______ ____
ROOT
ATOM      1  C   UNL     1       4.648   7.403 -22.114  0.00  0.00    +0.181 A 
ATOM      2  O   UNL     1       3.458   7.090 -22.536  0.00  0.00    -0.451 OA
ATOM      3  C   UNL     1       3.190   5.864 -22.873  0.00  0.00    +0.147 A 
ATOM      4  C   UNL     1       2.001   5.551 -23.294  0.00  0.00    +0.097 A 
ATOM      5  C   UNL     1       1.732   4.324 -23.632  0.00  0.00    +0.180 A 
ATOM      6  C   UNL     1       2.654   3.411 -23.548  0.00  0.00    +0.206 A 
ATOM      7  C   UNL     1       3.843   3.724 -23.127  0.00  0.00    +0.191 A 
ATOM      8  C   UNL     1       4.112   4.950 -22.789  0.00  0.00    +0.114 A 
ATOM      9  C   UNL     1       5.301   5.263 -22.368  0.00  0.00    +0.238 A 
ATOM     10  O   UNL     1       6.222   4.350 -22.285  0.00  0.00    -0.283 OA
ATOM     11  C   UNL     1       5.569   6.490 -22.031  0.00  0.00    +0.211 A 
ENDROOT
BRANCH   1  15
ATOM     12  C   UNL     1       5.452  11.083 -21.102  0.00  0.00    +0.120 A 
ATOM     13  C   UNL     1       4.624  10.378 -20.390  0.00  0.00    +0.046 A 
ATOM     14  C   UNL     1       4.356   9.152 -20.727  0.00  0.00    +0.015 A 
ATOM     15  C   UNL     1       4.916   8.629 -21.777  0.00  0.00    +0.021 A 
ATOM     16  C   UNL     1       5.745   9.334 -22.490  0.00  0.00    +0.015 A 
ATOM     17  C   UNL     1       6.013  10.560 -22.152  0.00  0.00    +0.046 A 
BRANCH  12  19
ATOM     18  C   UNL     1       4.829  13.022 -20.144  0.00  0.00    +0.277 C 
ATOM     19  O   UNL     1       5.721  12.309 -20.765  0.00  0.00    -0.495 OA
ENDBRANCH  12  19
ENDBRANCH   1  15
BRANCH   6  20
ATOM     20  O   UNL     1       2.386   2.184 -23.885  0.00  0.00    -0.488 OA
ATOM     21  C   UNL     1       2.369   1.845 -25.140  0.00  0.00    +0.277 C 
ENDBRANCH   6  20
BRANCH  11  22
ATOM     22  O   UNL     1       6.759   6.803 -21.610  0.00  0.00    -0.488 OA
ATOM     23  C   UNL     1       7.089   6.581 -20.372  0.00  0.00    +0.277 C 
ENDBRANCH  11  22
BRANCH   5  24
ATOM     24  O   UNL     1       0.544   4.011 -24.053  0.00  0.00    -0.422 OA
BRANCH  24  25
ATOM     25  C   UNL     1      -0.450   3.965 -23.216  0.00  0.00    +0.309 C 
ATOM     26  O   UNL     1      -0.452   3.090 -22.254  0.00  0.00    -0.251 OA
ATOM     27  C   UNL     1      -1.445   4.794 -23.342  0.00  0.00    +0.136 C 
ENDBRANCH  24  25
ENDBRANCH   5  24
BRANCH   7  28
ATOM     28  O   UNL     1       4.765   2.811 -23.043  0.00  0.00    -0.421 OA
BRANCH  28  29
ATOM     29  C   UNL     1       4.724   1.932 -22.085  0.00  0.00    +0.309 C 
ATOM     30  O   UNL     1       4.152   2.229 -20.956  0.00  0.00    -0.251 OA
ATOM     31  C   UNL     1       5.255   0.759 -22.255  0.00  0.00    +0.136 C 
ENDBRANCH  28  29
ENDBRANCH   7  28
TORSDOF 8
ENDMDL
MODEL 5
REMARK VINA RESULT:    -6.435      2.176      8.113
REMARK INTER + INTRA:          -8.498
REMARK INTER:                  -9.866
REMARK INTRA:                   1.367
REMARK UNBOUND:                 0.946
REMARK  Name = ZINC000004716501
REMARK  13 active torsions:
REMARK  status: ('A' for Active; 'I' for Inactive)
REMARK    1  A    between atoms: C_1  and  O_2
REMARK    2  A    between atoms: O_2  and  C_3
REMARK    3  A    between atoms: C_6  and  C_7
REMARK    4  A    between atoms: C_11  and  O_12
REMARK    5  A    between atoms: O_12  and  C_13
REMARK    6  A    between atoms: C_13  and  C_14
REMARK    7  A    between atoms: C_16  and  O_17
REMARK    8  A    between atoms: O_17  and  C_18
REMARK    9  A    between atoms: C_19  and  O_20
REMARK   10  A    between atoms: O_20  and  C_21
REMARK   11  A    between atoms: C_21  and  C_22
REMARK   12  A    between atoms: C_27  and  O_28
REMARK   13  A    between atoms: O_28  and  C_29
REMARK                            x       y       z     vdW  Elec       q    Type
REMARK                         _______ _______ _______ _____ _____    ______ ____
ROOT
ATOM      1  C   UNL     1       1.231   3.223 -23.486  0.00  0.00    +0.181 A 
ATOM      2  O   UNL     1       0.359   3.356 -22.529  0.00  0.00    -0.451 OA
ATOM      3  C   UNL     1      -0.883   3.614 -22.812  0.00  0.00    +0.147 A 
ATOM      4  C   UNL     1      -1.753   3.746 -21.856  0.00  0.00    +0.097 A 
ATOM      5  C   UNL     1      -2.996   4.004 -22.139  0.00  0.00    +0.180 A 
ATOM      6  C   UNL     1      -3.368   4.128 -23.378  0.00  0.00    +0.206 A 
ATOM      7  C   UNL     1      -2.497   3.995 -24.335  0.00  0.00    +0.191 A 
ATOM      8  C   UNL     1      -1.254   3.738 -24.052  0.00  0.00    +0.114 A 
ATOM      9  C   UNL     1      -0.384   3.605 -25.008  0.00  0.00    +0.238 A 
ATOM     10  O   UNL     1      -0.756   3.729 -26.247  0.00  0.00    -0.283 OA
ATOM     11  C   UNL     1       0.859   3.348 -24.725  0.00  0.00    +0.211 A 
ENDROOT
BRANCH   1  15
ATOM     12  C   UNL     1       4.958   2.452 -22.636  0.00  0.00    +0.120 A 
ATOM     13  C   UNL     1       4.618   3.634 -23.056  0.00  0.00    +0.046 A 
ATOM     14  C   UNL     1       3.376   3.891 -23.339  0.00  0.00    +0.015 A 
ATOM     15  C   UNL     1       2.473   2.966 -23.203  0.00  0.00    +0.021 A 
ATOM     16  C   UNL     1       2.813   1.783 -22.783  0.00  0.00    +0.015 A 
ATOM     17  C   UNL     1       4.055   1.526 -22.499  0.00  0.00    +0.046 A 
BRANCH  12  19
ATOM     18  C   UNL     1       7.133   3.027 -22.706  0.00  0.00    +0.277 C 
ATOM     19  O   UNL     1       6.200   2.194 -22.353  0.00  0.00    -0.495 OA
ENDBRANCH  12  19
ENDBRANCH   1  15
BRANCH   6  20
ATOM     20  O   UNL     1      -4.610   4.385 -23.662  0.00  0.00    -0.488 OA
ATOM     21  C   UNL     1      -5.538   3.533 -23.344  0.00  0.00    +0.277 C 
ENDBRANCH   6  20
BRANCH  11  22
ATOM     22  O   UNL     1       1.729   3.215 -25.681  0.00  0.00    -0.488 OA
ATOM     23  C   UNL     1       1.949   2.044 -26.201  0.00  0.00    +0.277 C 
ENDBRANCH  11  22
BRANCH   5  24
ATOM     24  O   UNL     1      -3.866   4.137 -21.183  0.00  0.00    -0.422 OA
BRANCH  24  25
ATOM     25  C   UNL     1      -3.830   3.341 -20.156  0.00  0.00    +0.309 C 
ATOM     26  O   UNL     1      -3.272   3.732 -19.049  0.00  0.00    -0.251 OA
ATOM     27  C   UNL     1      -4.352   2.151 -20.235  0.00  0.00    +0.136 C 
ENDBRANCH  24  25
ENDBRANCH   5  24
BRANCH   7  28
ATOM     28  O   UNL     1      -2.868   4.119 -25.574  0.00  0.00    -0.421 OA
BRANCH  28  29
ATOM     29  C   UNL     1      -3.462   3.132 -26.177  0.00  0.00    +0.309 C 
ATOM     30  O   UNL     1      -3.509   1.961 -25.613  0.00  0.00    -0.251 OA
ATOM     31  C   UNL     1      -4.008   3.314 -27.341  0.00  0.00    +0.136 C 
ENDBRANCH  28  29
ENDBRANCH   7  28
TORSDOF 8
ENDMDL
MODEL 6
REMARK VINA RESULT:    -6.399      2.886      6.887
REMARK INTER + INTRA:          -8.445
REMARK INTER:                  -9.150
REMARK INTRA:                   0.705
REMARK UNBOUND:                 0.946
REMARK  Name = ZINC000004716501
REMARK  13 active torsions:
REMARK  status: ('A' for Active; 'I' for Inactive)
REMARK    1  A    between atoms: C_1  and  O_2
REMARK    2  A    between atoms: O_2  and  C_3
REMARK    3  A    between atoms: C_6  and  C_7
REMARK    4  A    between atoms: C_11  and  O_12
REMARK    5  A    between atoms: O_12  and  C_13
REMARK    6  A    between atoms: C_13  and  C_14
REMARK    7  A    between atoms: C_16  and  O_17
REMARK    8  A    between atoms: O_17  and  C_18
REMARK    9  A    between atoms: C_19  and  O_20
REMARK   10  A    between atoms: O_20  and  C_21
REMARK   11  A    between atoms: C_21  and  C_22
REMARK   12  A    between atoms: C_27  and  O_28
REMARK   13  A    between atoms: O_28  and  C_29
REMARK                            x       y       z     vdW  Elec       q    Type
REMARK                         _______ _______ _______ _____ _____    ______ ____
ROOT
ATOM      1  C   UNL     1       4.567   7.798 -22.001  0.00  0.00    +0.181 A 
ATOM      2  O   UNL     1       3.616   7.007 -22.403  0.00  0.00    -0.451 OA
ATOM      3  C   UNL     1       3.876   5.761 -22.666  0.00  0.00    +0.147 A 
ATOM      4  C   UNL     1       2.926   4.970 -23.068  0.00  0.00    +0.097 A 
ATOM      5  C   UNL     1       3.185   3.724 -23.332  0.00  0.00    +0.180 A 
ATOM      6  C   UNL     1       4.395   3.268 -23.194  0.00  0.00    +0.206 A 
ATOM      7  C   UNL     1       5.345   4.060 -22.792  0.00  0.00    +0.191 A 
ATOM      8  C   UNL     1       5.086   5.306 -22.528  0.00  0.00    +0.114 A 
ATOM      9  C   UNL     1       6.036   6.096 -22.127  0.00  0.00    +0.238 A 
ATOM     10  O   UNL     1       7.246   5.641 -21.989  0.00  0.00    -0.283 OA
ATOM     11  C   UNL     1       5.777   7.343 -21.863  0.00  0.00    +0.211 A 
ENDROOT
BRANCH   1  15
ATOM     12  C   UNL     1       3.788  11.537 -21.209  0.00  0.00    +0.120 A 
ATOM     13  C   UNL     1       3.951  10.687 -20.239  0.00  0.00    +0.046 A 
ATOM     14  C   UNL     1       4.211   9.441 -20.503  0.00  0.00    +0.015 A 
ATOM     15  C   UNL     1       4.307   9.044 -21.737  0.00  0.00    +0.021 A 
ATOM     16  C   UNL     1       4.144   9.894 -22.708  0.00  0.00    +0.015 A 
ATOM     17  C   UNL     1       3.884  11.140 -22.444  0.00  0.00    +0.046 A 
BRANCH  12  19
ATOM     18  C   UNL     1       2.364  13.118 -20.473  0.00  0.00    +0.277 C 
ATOM     19  O   UNL     1       3.528  12.783 -20.946  0.00  0.00    -0.495 OA
ENDBRANCH  12  19
ENDBRANCH   1  15
BRANCH   6  20
ATOM     20  O   UNL     1       4.655   2.022 -23.458  0.00  0.00    -0.488 OA
ATOM     21  C   UNL     1       4.658   1.143 -22.500  0.00  0.00    +0.277 C 
ENDBRANCH   6  20
BRANCH  11  22
ATOM     22  O   UNL     1       6.727   8.134 -21.461  0.00  0.00    -0.488 OA
ATOM     23  C   UNL     1       7.608   8.574 -22.309  0.00  0.00    +0.277 C 
ENDBRANCH  11  22
BRANCH   5  24
ATOM     24  O   UNL     1       2.236   2.933 -23.734  0.00  0.00    -0.422 OA
BRANCH  24  25
ATOM     25  C   UNL     1       1.181   2.756 -22.994  0.00  0.00    +0.309 C 
ATOM     26  O   UNL     1       0.121   3.484 -23.187  0.00  0.00    -0.251 OA
ATOM     27  C   UNL     1       1.186   1.850 -22.061  0.00  0.00    +0.136 C 
ENDBRANCH  24  25
ENDBRANCH   5  24
BRANCH   7  28
ATOM     28  O   UNL     1       6.555   3.605 -22.654  0.00  0.00    -0.421 OA
BRANCH  28  29
ATOM     29  C   UNL     1       7.291   3.385 -23.704  0.00  0.00    +0.309 C 
ATOM     30  O   UNL     1       7.079   4.057 -24.797  0.00  0.00    -0.251 OA
ATOM     31  C   UNL     1       8.237   2.496 -23.661  0.00  0.00    +0.136 C 
ENDBRANCH  28  29
ENDBRANCH   7  28
TORSDOF 8
ENDMDL
MODEL 7
REMARK VINA RESULT:    -5.810      1.942      7.381
REMARK INTER + INTRA:          -7.582
REMARK INTER:                  -8.918
REMARK INTRA:                   1.336
REMARK UNBOUND:                 0.946
REMARK  Name = ZINC000004716501
REMARK  13 active torsions:
REMARK  status: ('A' for Active; 'I' for Inactive)
REMARK    1  A    between atoms: C_1  and  O_2
REMARK    2  A    between atoms: O_2  and  C_3
REMARK    3  A    between atoms: C_6  and  C_7
REMARK    4  A    between atoms: C_11  and  O_12
REMARK    5  A    between atoms: O_12  and  C_13
REMARK    6  A    between atoms: C_13  and  C_14
REMARK    7  A    between atoms: C_16  and  O_17
REMARK    8  A    between atoms: O_17  and  C_18
REMARK    9  A    between atoms: C_19  and  O_20
REMARK   10  A    between atoms: O_20  and  C_21
REMARK   11  A    between atoms: C_21  and  C_22
REMARK   12  A    between atoms: C_27  and  O_28
REMARK   13  A    between atoms: O_28  and  C_29
REMARK                            x       y       z     vdW  Elec       q    Type
REMARK                         _______ _______ _______ _____ _____    ______ ____
ROOT
ATOM      1  C   UNL     1       5.679   5.808 -22.277  0.00  0.00    +0.181 A 
ATOM      2  O   UNL     1       4.442   6.091 -22.563  0.00  0.00    -0.451 OA
ATOM      3  C   UNL     1       3.629   5.149 -22.939  0.00  0.00    +0.147 A 
ATOM      4  C   UNL     1       2.393   5.433 -23.224  0.00  0.00    +0.097 A 
ATOM      5  C   UNL     1       1.580   4.491 -23.600  0.00  0.00    +0.180 A 
ATOM      6  C   UNL     1       2.003   3.265 -23.689  0.00  0.00    +0.206 A 
ATOM      7  C   UNL     1       3.239   2.981 -23.404  0.00  0.00    +0.191 A 
ATOM      8  C   UNL     1       4.052   3.923 -23.028  0.00  0.00    +0.114 A 
ATOM      9  C   UNL     1       5.288   3.639 -22.743  0.00  0.00    +0.238 A 
ATOM     10  O   UNL     1       5.711   2.413 -22.832  0.00  0.00    -0.283 OA
ATOM     11  C   UNL     1       6.102   4.582 -22.367  0.00  0.00    +0.211 A 
ENDROOT
BRANCH   1  15
ATOM     12  C   UNL     1       8.118   8.635 -21.151  0.00  0.00    +0.120 A 
ATOM     13  C   UNL     1       8.090   8.257 -22.395  0.00  0.00    +0.046 A 
ATOM     14  C   UNL     1       7.277   7.315 -22.770  0.00  0.00    +0.015 A 
ATOM     15  C   UNL     1       6.492   6.750 -21.902  0.00  0.00    +0.021 A 
ATOM     16  C   UNL     1       6.520   7.127 -20.658  0.00  0.00    +0.015 A 
ATOM     17  C   UNL     1       7.332   8.070 -20.282  0.00  0.00    +0.046 A 
BRANCH  12  19
ATOM     18  C   UNL     1       9.062  10.648 -21.500  0.00  0.00    +0.277 C 
ATOM     19  O   UNL     1       8.931   9.577 -20.775  0.00  0.00    -0.495 OA
ENDBRANCH  12  19
ENDBRANCH   1  15
BRANCH   6  20
ATOM     20  O   UNL     1       1.190   2.322 -24.065  0.00  0.00    -0.488 OA
ATOM     21  C   UNL     1       0.798   2.258 -25.302  0.00  0.00    +0.277 C 
ENDBRANCH   6  20
BRANCH  11  22
ATOM     22  O   UNL     1       7.338   4.298 -22.081  0.00  0.00    -0.488 OA
ATOM     23  C   UNL     1       8.161   3.955 -23.027  0.00  0.00    +0.277 C 
ENDBRANCH  11  22
BRANCH   5  24
ATOM     24  O   UNL     1       0.344   4.774 -23.885  0.00  0.00    -0.422 OA
BRANCH  24  25
ATOM     25  C   UNL     1      -0.541   4.849 -22.936  0.00  0.00    +0.309 C 
ATOM     26  O   UNL     1      -0.736   5.974 -22.316  0.00  0.00    -0.251 OA
ATOM     27  C   UNL     1      -1.233   3.797 -22.607  0.00  0.00    +0.136 C 
ENDBRANCH  24  25
ENDBRANCH   5  24
BRANCH   7  28
ATOM     28  O   UNL     1       3.662   1.755 -23.493  0.00  0.00    -0.421 OA
BRANCH  28  29
ATOM     29  C   UNL     1       3.138   0.831 -22.744  0.00  0.00    +0.309 C 
ATOM     30  O   UNL     1       2.568  -0.202 -23.290  0.00  0.00    -0.251 OA
ATOM     31  C   UNL     1       3.184   0.938 -21.450  0.00  0.00    +0.136 C 
ENDBRANCH  28  29
ENDBRANCH   7  28
TORSDOF 8
ENDMDL
MODEL 8
REMARK VINA RESULT:    -5.602      1.768      4.018
REMARK INTER + INTRA:          -7.276
REMARK INTER:                 -11.097
REMARK INTRA:                   3.822
REMARK UNBOUND:                 0.946
REMARK  Name = ZINC000004716501
REMARK  13 active torsions:
REMARK  status: ('A' for Active; 'I' for Inactive)
REMARK    1  A    between atoms: C_1  and  O_2
REMARK    2  A    between atoms: O_2  and  C_3
REMARK    3  A    between atoms: C_6  and  C_7
REMARK    4  A    between atoms: C_11  and  O_12
REMARK    5  A    between atoms: O_12  and  C_13
REMARK    6  A    between atoms: C_13  and  C_14
REMARK    7  A    between atoms: C_16  and  O_17
REMARK    8  A    between atoms: O_17  and  C_18
REMARK    9  A    between atoms: C_19  and  O_20
REMARK   10  A    between atoms: O_20  and  C_21
REMARK   11  A    between atoms: C_21  and  C_22
REMARK   12  A    between atoms: C_27  and  O_28
REMARK   13  A    between atoms: O_28  and  C_29
REMARK                            x       y       z     vdW  Elec       q    Type
REMARK                         _______ _______ _______ _____ _____    ______ ____
ROOT
ATOM      1  C   UNL     1      -0.745   3.359 -22.424  0.00  0.00    +0.181 A 
ATOM      2  O   UNL     1      -0.022   2.327 -22.104  0.00  0.00    -0.451 OA
ATOM      3  C   UNL     1       1.254   2.326 -22.351  0.00  0.00    +0.147 A 
ATOM      4  C   UNL     1       1.977   1.294 -22.032  0.00  0.00    +0.097 A 
ATOM      5  C   UNL     1       3.254   1.292 -22.279  0.00  0.00    +0.180 A 
ATOM      6  C   UNL     1       3.807   2.323 -22.846  0.00  0.00    +0.206 A 
ATOM      7  C   UNL     1       3.083   3.355 -23.166  0.00  0.00    +0.191 A 
ATOM      8  C   UNL     1       1.807   3.357 -22.918  0.00  0.00    +0.114 A 
ATOM      9  C   UNL     1       1.085   4.389 -23.238  0.00  0.00    +0.238 A 
ATOM     10  O   UNL     1       1.638   5.419 -23.805  0.00  0.00    -0.283 OA
ATOM     11  C   UNL     1      -0.192   4.390 -22.991  0.00  0.00    +0.211 A 
ENDROOT
BRANCH   1  15
ATOM     12  C   UNL     1      -4.574   3.362 -21.682  0.00  0.00    +0.120 A 
ATOM     13  C   UNL     1      -4.132   2.913 -22.819  0.00  0.00    +0.046 A 
ATOM     14  C   UNL     1      -2.856   2.912 -23.066  0.00  0.00    +0.015 A 
ATOM     15  C   UNL     1      -2.021   3.360 -22.176  0.00  0.00    +0.021 A 
ATOM     16  C   UNL     1      -2.463   3.810 -21.039  0.00  0.00    +0.015 A 
ATOM     17  C   UNL     1      -3.739   3.811 -20.791  0.00  0.00    +0.046 A 
BRANCH  12  19
ATOM     18  C   UNL     1      -6.568   2.319 -21.719  0.00  0.00    +0.277 C 
ATOM     19  O   UNL     1      -5.850   3.364 -21.434  0.00  0.00    -0.495 OA
ENDBRANCH  12  19
ENDBRANCH   1  15
BRANCH   6  20
ATOM     20  O   UNL     1       5.083   2.323 -23.094  0.00  0.00    -0.488 OA
ATOM     21  C   UNL     1       5.931   2.539 -22.133  0.00  0.00    +0.277 C 
ENDBRANCH   6  20
BRANCH  11  22
ATOM     22  O   UNL     1      -0.915   5.422 -23.310  0.00  0.00    -0.488 OA
ATOM     23  C   UNL     1      -1.648   5.394 -24.383  0.00  0.00    +0.277 C 
ENDBRANCH  11  22
BRANCH   5  24
ATOM     24  O   UNL     1       3.977   0.261 -21.960  0.00  0.00    -0.422 OA
BRANCH  24  25
ATOM     25  C   UNL     1       4.295   0.050 -20.717  0.00  0.00    +0.309 C 
ATOM     26  O   UNL     1       3.399   0.184 -19.784  0.00  0.00    -0.251 OA
ATOM     27  C   UNL     1       5.510  -0.295 -20.405  0.00  0.00    +0.136 C 
ENDBRANCH  24  25
ENDBRANCH   5  24
BRANCH   7  28
ATOM     28  O   UNL     1       3.636   4.386 -23.733  0.00  0.00    -0.421 OA
BRANCH  28  29
ATOM     29  C   UNL     1       4.296   5.247 -23.015  0.00  0.00    +0.309 C 
ATOM     30  O   UNL     1       3.656   6.086 -22.256  0.00  0.00    -0.251 OA
ATOM     31  C   UNL     1       5.595   5.268 -23.055  0.00  0.00    +0.136 C 
ENDBRANCH  28  29
ENDBRANCH   7  28
TORSDOF 8
ENDMDL
