MODEL 1
REMARK VINA RESULT:    -8.349      0.000      0.000
REMARK INTER + INTRA:          -8.933
REMARK INTER:                  -9.227
REMARK INTRA:                   0.294
REMARK UNBOUND:                 0.148
REMARK  Name = ZINC000036649201
REMARK  4 active torsions:
REMARK  status: ('A' for Active; 'I' for Inactive)
REMARK    1  A    between atoms: C_1  and  C_2
REMARK    2  A    between atoms: C_3  and  C_4
REMARK    3  A    between atoms: C_7  and  O_8
REMARK    4  A    between atoms: C_18  and  C_19
REMARK                            x       y       z     vdW  Elec       q    Type
REMARK                         _______ _______ _______ _____ _____    ______ ____
ROOT
ATOM      1  C   UNL     1      -3.954   3.741 -24.566  0.00  0.00    +0.009 C 
ATOM      2  C   UNL     1      -2.684   3.595 -24.801  0.00  0.00    +0.001 C 
ATOM      3  C   UNL     1      -1.848   3.493 -23.811  0.00  0.00    +0.052 C 
ATOM      4  C   UNL     1      -0.577   3.347 -24.046  0.00  0.00    -0.033 A 
ATOM      5  C   UNL     1       0.259   3.246 -23.056  0.00  0.00    +0.054 A 
ATOM      6  C   UNL     1       1.529   3.100 -23.291  0.00  0.00    +0.167 A 
ATOM      7  C   UNL     1       1.963   3.055 -24.517  0.00  0.00    +0.167 A 
ATOM      8  O   UNL     1       3.254   2.905 -24.480  0.00  0.00    -0.453 OA
ATOM      9  C   UNL     1       3.618   2.858 -23.233  0.00  0.00    +0.466 C 
ATOM     10  C   UNL     1       1.126   3.156 -25.506  0.00  0.00    +0.053 A 
ATOM     11  O   UNL     1       2.552   2.978 -22.499  0.00  0.00    -0.453 OA
ATOM     12  C   UNL     1      -0.143   3.302 -25.271  0.00  0.00    -0.040 A 
ATOM     13  C   UNL     1      -0.981   3.403 -26.261  0.00  0.00    +0.039 C 
ATOM     14  C   UNL     1      -2.250   3.550 -26.026  0.00  0.00    -0.006 C 
ATOM     15  C   UNL     1      -3.087   3.651 -27.016  0.00  0.00    +0.008 C 
ENDROOT
BRANCH   3  16
ATOM     16  C   UNL     1      -2.281   3.538 -22.587  0.00  0.00    -0.039 A 
ATOM     17  C   UNL     1      -2.076   4.598 -21.863  0.00  0.00    +0.008 A 
ATOM     18  C   UNL     1      -2.509   4.643 -20.638  0.00  0.00    +0.045 A 
ATOM     19  C   UNL     1      -3.148   3.628 -20.137  0.00  0.00    +0.117 A 
ATOM     20  C   UNL     1      -3.355   2.568 -20.861  0.00  0.00    +0.045 A 
ATOM     21  C   UNL     1      -2.921   2.523 -22.086  0.00  0.00    +0.008 A 
BRANCH  19  22
ATOM     22  O   UNL     1      -3.582   3.673 -18.912  0.00  0.00    -0.507 OA
ATOM     23  H   UNL     1      -2.974   3.669 -18.200  0.00  0.00    +0.292 HD
ENDBRANCH  19  22
ENDBRANCH   3  16
TORSDOF 2
ENDMDL
MODEL 2
REMARK VINA RESULT:    -7.965      1.208      4.956
REMARK INTER + INTRA:          -8.515
REMARK INTER:                  -8.650
REMARK INTRA:                   0.135
REMARK UNBOUND:                 0.148
REMARK  Name = ZINC000036649201
REMARK  4 active torsions:
REMARK  status: ('A' for Active; 'I' for Inactive)
REMARK    1  A    between atoms: C_1  and  C_2
REMARK    2  A    between atoms: C_3  and  C_4
REMARK    3  A    between atoms: C_7  and  O_8
REMARK    4  A    between atoms: C_18  and  C_19
REMARK                            x       y       z     vdW  Elec       q    Type
REMARK                         _______ _______ _______ _____ _____    ______ ____
ROOT
ATOM      1  C   UNL     1      -0.192   3.703 -26.310  0.00  0.00    +0.009 C 
ATOM      2  C   UNL     1      -1.160   3.613 -25.449  0.00  0.00    +0.001 C 
ATOM      3  C   UNL     1      -0.902   3.644 -24.175  0.00  0.00    +0.052 C 
ATOM      4  C   UNL     1      -1.871   3.555 -23.313  0.00  0.00    -0.033 A 
ATOM      5  C   UNL     1      -1.613   3.586 -22.039  0.00  0.00    +0.054 A 
ATOM      6  C   UNL     1      -2.582   3.496 -21.178  0.00  0.00    +0.167 A 
ATOM      7  C   UNL     1      -3.810   3.376 -21.590  0.00  0.00    +0.167 A 
ATOM      8  O   UNL     1      -4.579   3.307 -20.544  0.00  0.00    -0.453 OA
ATOM      9  C   UNL     1      -3.828   3.384 -19.486  0.00  0.00    +0.466 C 
ATOM     10  C   UNL     1      -4.067   3.345 -22.863  0.00  0.00    +0.053 A 
ATOM     11  O   UNL     1      -2.594   3.501 -19.878  0.00  0.00    -0.453 OA
ATOM     12  C   UNL     1      -3.098   3.435 -23.725  0.00  0.00    -0.040 A 
ATOM     13  C   UNL     1      -3.356   3.404 -24.999  0.00  0.00    +0.039 C 
ATOM     14  C   UNL     1      -2.388   3.493 -25.861  0.00  0.00    -0.006 C 
ATOM     15  C   UNL     1      -2.646   3.462 -27.134  0.00  0.00    +0.008 C 
ENDROOT
BRANCH   3  16
ATOM     16  C   UNL     1       0.325   3.764 -23.764  0.00  0.00    -0.039 A 
ATOM     17  C   UNL     1       0.865   4.943 -23.664  0.00  0.00    +0.008 A 
ATOM     18  C   UNL     1       2.092   5.063 -23.253  0.00  0.00    +0.045 A 
ATOM     19  C   UNL     1       2.779   4.005 -22.940  0.00  0.00    +0.117 A 
ATOM     20  C   UNL     1       2.240   2.826 -23.039  0.00  0.00    +0.045 A 
ATOM     21  C   UNL     1       1.013   2.706 -23.451  0.00  0.00    +0.008 A 
BRANCH  19  22
ATOM     22  O   UNL     1       4.007   4.125 -22.528  0.00  0.00    -0.507 OA
ATOM     23  H   UNL     1       4.250   4.849 -21.985  0.00  0.00    +0.292 HD
ENDBRANCH  19  22
ENDBRANCH   3  16
TORSDOF 2
ENDMDL
MODEL 3
REMARK VINA RESULT:    -7.937      2.159      4.282
REMARK INTER + INTRA:          -8.485
REMARK INTER:                  -9.959
REMARK INTRA:                   1.474
REMARK UNBOUND:                 0.148
REMARK  Name = ZINC000036649201
REMARK  4 active torsions:
REMARK  status: ('A' for Active; 'I' for Inactive)
REMARK    1  A    between atoms: C_1  and  C_2
REMARK    2  A    between atoms: C_3  and  C_4
REMARK    3  A    between atoms: C_7  and  O_8
REMARK    4  A    between atoms: C_18  and  C_19
REMARK                            x       y       z     vdW  Elec       q    Type
REMARK                         _______ _______ _______ _____ _____    ______ ____
ROOT
ATOM      1  C   UNL     1      -4.371   3.628 -22.655  0.00  0.00    +0.009 C 
ATOM      2  C   UNL     1      -3.174   3.229 -22.345  0.00  0.00    +0.001 C 
ATOM      3  C   UNL     1      -2.317   2.954 -23.283  0.00  0.00    +0.052 C 
ATOM      4  C   UNL     1      -1.119   2.555 -22.973  0.00  0.00    -0.033 A 
ATOM      5  C   UNL     1      -0.262   2.280 -23.911  0.00  0.00    +0.054 A 
ATOM      6  C   UNL     1       0.935   1.880 -23.601  0.00  0.00    +0.167 A 
ATOM      7  C   UNL     1       1.276   1.756 -22.351  0.00  0.00    +0.167 A 
ATOM      8  O   UNL     1       2.509   1.348 -22.311  0.00  0.00    -0.453 OA
ATOM      9  C   UNL     1       2.931   1.219 -23.533  0.00  0.00    +0.466 C 
ATOM     10  C   UNL     1       0.419   2.032 -21.414  0.00  0.00    +0.053 A 
ATOM     11  O   UNL     1       1.958   1.548 -24.330  0.00  0.00    -0.453 OA
ATOM     12  C   UNL     1      -0.778   2.431 -21.724  0.00  0.00    -0.040 A 
ATOM     13  C   UNL     1      -1.636   2.706 -20.786  0.00  0.00    +0.039 C 
ATOM     14  C   UNL     1      -2.833   3.105 -21.097  0.00  0.00    -0.006 C 
ATOM     15  C   UNL     1      -3.690   3.381 -20.159  0.00  0.00    +0.008 C 
ENDROOT
BRANCH   3  16
ATOM     16  C   UNL     1      -2.658   3.078 -24.531  0.00  0.00    -0.039 A 
ATOM     17  C   UNL     1      -1.848   3.650 -25.372  0.00  0.00    +0.008 A 
ATOM     18  C   UNL     1      -2.189   3.774 -26.621  0.00  0.00    +0.045 A 
ATOM     19  C   UNL     1      -3.339   3.326 -27.028  0.00  0.00    +0.117 A 
ATOM     20  C   UNL     1      -4.149   2.753 -26.187  0.00  0.00    +0.045 A 
ATOM     21  C   UNL     1      -3.808   2.629 -24.939  0.00  0.00    +0.008 A 
BRANCH  19  22
ATOM     22  O   UNL     1      -3.680   3.450 -28.277  0.00  0.00    -0.507 OA
ATOM     23  H   UNL     1      -4.459   3.917 -28.506  0.00  0.00    +0.292 HD
ENDBRANCH  19  22
ENDBRANCH   3  16
TORSDOF 2
ENDMDL
MODEL 4
REMARK VINA RESULT:    -7.597      1.720      2.810
REMARK INTER + INTRA:          -8.115
REMARK INTER:                  -8.569
REMARK INTRA:                   0.454
REMARK UNBOUND:                 0.148
REMARK  Name = ZINC000036649201
REMARK  4 active torsions:
REMARK  status: ('A' for Active; 'I' for Inactive)
REMARK    1  A    between atoms: C_1  and  C_2
REMARK    2  A    between atoms: C_3  and  C_4
REMARK    3  A    between atoms: C_7  and  O_8
REMARK    4  A    between atoms: C_18  and  C_19
REMARK                            x       y       z     vdW  Elec       q    Type
REMARK                         _______ _______ _______ _____ _____    ______ ____
ROOT
ATOM      1  C   UNL     1      -1.165   4.163 -24.729  0.00  0.00    +0.009 C 
ATOM      2  C   UNL     1      -0.048   3.592 -24.391  0.00  0.00    +0.001 C 
ATOM      3  C   UNL     1       0.059   3.006 -23.236  0.00  0.00    +0.052 C 
ATOM      4  C   UNL     1       1.176   2.434 -22.897  0.00  0.00    -0.033 A 
ATOM      5  C   UNL     1       1.283   1.847 -21.742  0.00  0.00    +0.054 A 
ATOM      6  C   UNL     1       2.400   1.276 -21.404  0.00  0.00    +0.167 A 
ATOM      7  C   UNL     1       3.412   1.291 -22.222  0.00  0.00    +0.167 A 
ATOM      8  O   UNL     1       4.396   0.660 -21.654  0.00  0.00    -0.453 OA
ATOM      9  C   UNL     1       3.994   0.255 -20.486  0.00  0.00    +0.466 C 
ATOM     10  C   UNL     1       3.305   1.877 -23.376  0.00  0.00    +0.053 A 
ATOM     11  O   UNL     1       2.760   0.636 -20.332  0.00  0.00    -0.453 OA
ATOM     12  C   UNL     1       2.187   2.449 -23.715  0.00  0.00    -0.040 A 
ATOM     13  C   UNL     1       2.081   3.035 -24.870  0.00  0.00    +0.039 C 
ATOM     14  C   UNL     1       0.963   3.607 -25.208  0.00  0.00    -0.006 C 
ATOM     15  C   UNL     1       0.857   4.193 -26.364  0.00  0.00    +0.008 C 
ENDROOT
BRANCH   3  16
ATOM     16  C   UNL     1      -0.952   2.991 -22.419  0.00  0.00    -0.039 A 
ATOM     17  C   UNL     1      -1.550   1.870 -22.145  0.00  0.00    +0.008 A 
ATOM     18  C   UNL     1      -2.561   1.855 -21.328  0.00  0.00    +0.045 A 
ATOM     19  C   UNL     1      -2.974   2.961 -20.785  0.00  0.00    +0.117 A 
ATOM     20  C   UNL     1      -2.377   4.083 -21.058  0.00  0.00    +0.045 A 
ATOM     21  C   UNL     1      -1.366   4.098 -21.876  0.00  0.00    +0.008 A 
BRANCH  19  22
ATOM     22  O   UNL     1      -3.985   2.946 -19.968  0.00  0.00    -0.507 OA
ATOM     23  H   UNL     1      -4.840   3.174 -20.276  0.00  0.00    +0.292 HD
ENDBRANCH  19  22
ENDBRANCH   3  16
TORSDOF 2
ENDMDL
MODEL 5
REMARK VINA RESULT:    -7.153      2.115      5.239
REMARK INTER + INTRA:          -7.632
REMARK INTER:                  -8.152
REMARK INTRA:                   0.519
REMARK UNBOUND:                 0.148
REMARK  Name = ZINC000036649201
REMARK  4 active torsions:
REMARK  status: ('A' for Active; 'I' for Inactive)
REMARK    1  A    between atoms: C_1  and  C_2
REMARK    2  A    between atoms: C_3  and  C_4
REMARK    3  A    between atoms: C_7  and  O_8
REMARK    4  A    between atoms: C_18  and  C_19
REMARK                            x       y       z     vdW  Elec       q    Type
REMARK                         _______ _______ _______ _____ _____    ______ ____
ROOT
ATOM      1  C   UNL     1       2.639   3.048 -24.612  0.00  0.00    +0.009 C 
ATOM      2  C   UNL     1       1.371   3.158 -24.350  0.00  0.00    +0.001 C 
ATOM      3  C   UNL     1       0.875   2.593 -23.290  0.00  0.00    +0.052 C 
ATOM      4  C   UNL     1      -0.394   2.703 -23.028  0.00  0.00    -0.033 A 
ATOM      5  C   UNL     1      -0.890   2.137 -21.968  0.00  0.00    +0.054 A 
ATOM      6  C   UNL     1      -2.159   2.247 -21.706  0.00  0.00    +0.167 A 
ATOM      7  C   UNL     1      -2.932   2.923 -22.505  0.00  0.00    +0.167 A 
ATOM      8  O   UNL     1      -4.139   2.881 -22.025  0.00  0.00    -0.453 OA
ATOM      9  C   UNL     1      -4.113   2.180 -20.931  0.00  0.00    +0.466 C 
ATOM     10  C   UNL     1      -2.435   3.488 -23.565  0.00  0.00    +0.053 A 
ATOM     11  O   UNL     1      -2.889   1.789 -20.734  0.00  0.00    -0.453 OA
ATOM     12  C   UNL     1      -1.167   3.378 -23.826  0.00  0.00    -0.040 A 
ATOM     13  C   UNL     1      -0.670   3.944 -24.887  0.00  0.00    +0.039 C 
ATOM     14  C   UNL     1       0.598   3.834 -25.149  0.00  0.00    -0.006 C 
ATOM     15  C   UNL     1       1.094   4.399 -26.209  0.00  0.00    +0.008 C 
ENDROOT
BRANCH   3  16
ATOM     16  C   UNL     1       1.647   1.918 -22.492  0.00  0.00    -0.039 A 
ATOM     17  C   UNL     1       1.854   2.337 -21.279  0.00  0.00    +0.008 A 
ATOM     18  C   UNL     1       2.626   1.662 -20.481  0.00  0.00    +0.045 A 
ATOM     19  C   UNL     1       3.192   0.567 -20.895  0.00  0.00    +0.117 A 
ATOM     20  C   UNL     1       2.985   0.147 -22.108  0.00  0.00    +0.045 A 
ATOM     21  C   UNL     1       2.213   0.822 -22.907  0.00  0.00    +0.008 A 
BRANCH  19  22
ATOM     22  O   UNL     1       3.964  -0.108 -20.096  0.00  0.00    -0.507 OA
ATOM     23  H   UNL     1       3.851  -0.042 -19.168  0.00  0.00    +0.292 HD
ENDBRANCH  19  22
ENDBRANCH   3  16
TORSDOF 2
ENDMDL
MODEL 6
REMARK VINA RESULT:    -6.439      3.335      7.367
REMARK INTER + INTRA:          -6.856
REMARK INTER:                  -7.033
REMARK INTRA:                   0.177
REMARK UNBOUND:                 0.148
REMARK  Name = ZINC000036649201
REMARK  4 active torsions:
REMARK  status: ('A' for Active; 'I' for Inactive)
REMARK    1  A    between atoms: C_1  and  C_2
REMARK    2  A    between atoms: C_3  and  C_4
REMARK    3  A    between atoms: C_7  and  O_8
REMARK    4  A    between atoms: C_18  and  C_19
REMARK                            x       y       z     vdW  Elec       q    Type
REMARK                         _______ _______ _______ _____ _____    ______ ____
ROOT
ATOM      1  C   UNL     1       5.702   1.839 -21.002  0.00  0.00    +0.009 C 
ATOM      2  C   UNL     1       4.524   1.858 -21.550  0.00  0.00    +0.001 C 
ATOM      3  C   UNL     1       4.244   2.744 -22.458  0.00  0.00    +0.052 C 
ATOM      4  C   UNL     1       3.065   2.764 -23.007  0.00  0.00    -0.033 A 
ATOM      5  C   UNL     1       2.785   3.650 -23.915  0.00  0.00    +0.054 A 
ATOM      6  C   UNL     1       1.607   3.669 -24.463  0.00  0.00    +0.167 A 
ATOM      7  C   UNL     1       0.707   2.801 -24.102  0.00  0.00    +0.167 A 
ATOM      8  O   UNL     1      -0.371   3.031 -24.791  0.00  0.00    -0.453 OA
ATOM      9  C   UNL     1      -0.139   4.040 -25.577  0.00  0.00    +0.466 C 
ATOM     10  C   UNL     1       0.988   1.916 -23.194  0.00  0.00    +0.053 A 
ATOM     11  O   UNL     1       1.083   4.434 -25.374  0.00  0.00    -0.453 OA
ATOM     12  C   UNL     1       2.166   1.897 -22.646  0.00  0.00    -0.040 A 
ATOM     13  C   UNL     1       2.446   1.010 -21.737  0.00  0.00    +0.039 C 
ATOM     14  C   UNL     1       3.625   0.991 -21.189  0.00  0.00    -0.006 C 
ATOM     15  C   UNL     1       3.905   0.104 -20.280  0.00  0.00    +0.008 C 
ENDROOT
BRANCH   3  16
ATOM     16  C   UNL     1       5.143   3.611 -22.819  0.00  0.00    -0.039 A 
ATOM     17  C   UNL     1       6.072   3.271 -23.662  0.00  0.00    +0.008 A 
ATOM     18  C   UNL     1       6.971   4.139 -24.023  0.00  0.00    +0.045 A 
ATOM     19  C   UNL     1       6.940   5.346 -23.541  0.00  0.00    +0.117 A 
ATOM     20  C   UNL     1       6.010   5.686 -22.699  0.00  0.00    +0.045 A 
ATOM     21  C   UNL     1       5.111   4.819 -22.338  0.00  0.00    +0.008 A 
BRANCH  19  22
ATOM     22  O   UNL     1       7.839   6.213 -23.902  0.00  0.00    -0.507 OA
ATOM     23  H   UNL     1       7.584   6.986 -24.367  0.00  0.00    +0.292 HD
ENDBRANCH  19  22
ENDBRANCH   3  16
TORSDOF 2
ENDMDL
