MODEL 1
REMARK VINA RESULT:    -9.632      0.000      0.000
REMARK INTER + INTRA:         -10.891
REMARK INTER:                 -11.427
REMARK INTRA:                   0.536
REMARK UNBOUND:                 0.993
REMARK  Name = ZINC000001630835
REMARK  9 active torsions:
REMARK  status: ('A' for Active; 'I' for Inactive)
REMARK    1  A    between atoms: C_1  and  C_2
REMARK    2  A    between atoms: C_2  and  C_3
REMARK    3  A    between atoms: C_4  and  C_5
REMARK    4  A    between atoms: C_5  and  C_6
REMARK    5  A    between atoms: C_6  and  C_7
REMARK    6  A    between atoms: C_8  and  C_9
REMARK    7  A    between atoms: C_18  and  C_19
REMARK    8  A    between atoms: C_19  and  C_20
REMARK    9  A    between atoms: C_19  and  C_21
REMARK                            x       y       z     vdW  Elec       q    Type
REMARK                         _______ _______ _______ _____ _____    ______ ____
ROOT
ATOM      1  C   UNL     1      -0.048   2.728 -23.556  0.00  0.00    -0.033 A 
ATOM      2  C   UNL     1      -0.204   3.501 -24.591  0.00  0.00    -0.047 A 
ATOM      3  C   UNL     1       0.832   4.048 -25.155  0.00  0.00    +0.004 A 
ATOM      4  C   UNL     1       2.023   3.822 -24.685  0.00  0.00    +0.009 A 
ATOM      5  C   UNL     1       2.179   3.049 -23.652  0.00  0.00    -0.013 A 
ATOM      6  C   UNL     1       3.369   2.823 -23.183  0.00  0.00    +0.016 C 
ATOM      7  C   UNL     1       3.525   2.050 -22.149  0.00  0.00    +0.006 C 
ATOM      8  C   UNL     1       2.490   1.503 -21.584  0.00  0.00    +0.229 C 
ATOM      9  O   UNL     1       2.645   0.730 -20.551  0.00  0.00    -0.284 OA
ATOM     10  C   UNL     1       1.298   1.729 -22.054  0.00  0.00    +0.233 C 
ATOM     11  O   UNL     1       0.263   1.183 -21.489  0.00  0.00    -0.283 OA
ATOM     12  C   UNL     1      -1.394   3.727 -25.060  0.00  0.00    +0.044 C 
ATOM     13  C   UNL     1       1.143   2.502 -23.087  0.00  0.00    +0.036 A 
ENDROOT
BRANCH   7  14
ATOM     14  C   UNL     1       4.716   1.824 -21.679  0.00  0.00    +0.017 C 
ATOM     15  C   UNL     1       5.354   0.744 -22.019  0.00  0.00    +0.012 C 
ATOM     16  C   UNL     1       5.269   2.678 -20.870  0.00  0.00    +0.012 C 
ENDBRANCH   7  14
BRANCH   1  17
ATOM     17  C   UNL     1      -1.083   2.181 -22.992  0.00  0.00    +0.040 C 
BRANCH  17  18
ATOM     18  C   UNL     1      -1.891   2.906 -22.275  0.00  0.00    +0.032 C 
BRANCH  18  21
ATOM     19  C   UNL     1      -5.238   2.946 -21.486  0.00  0.00    +0.038 C 
ATOM     20  C   UNL     1      -3.954   3.127 -21.400  0.00  0.00    -0.080 C 
ATOM     21  C   UNL     1      -3.175   2.725 -22.361  0.00  0.00    -0.028 C 
ATOM     22  C   UNL     1      -3.448   3.708 -20.354  0.00  0.00    +0.038 C 
ENDBRANCH  18  21
ENDBRANCH  17  18
ENDBRANCH   1  17
TORSDOF 4
ENDMDL
MODEL 2
REMARK VINA RESULT:    -9.390      2.042      3.582
REMARK INTER + INTRA:         -10.592
REMARK INTER:                 -10.842
REMARK INTRA:                   0.250
REMARK UNBOUND:                 0.993
REMARK  Name = ZINC000001630835
REMARK  9 active torsions:
REMARK  status: ('A' for Active; 'I' for Inactive)
REMARK    1  A    between atoms: C_1  and  C_2
REMARK    2  A    between atoms: C_2  and  C_3
REMARK    3  A    between atoms: C_4  and  C_5
REMARK    4  A    between atoms: C_5  and  C_6
REMARK    5  A    between atoms: C_6  and  C_7
REMARK    6  A    between atoms: C_8  and  C_9
REMARK    7  A    between atoms: C_18  and  C_19
REMARK    8  A    between atoms: C_19  and  C_20
REMARK    9  A    between atoms: C_19  and  C_21
REMARK                            x       y       z     vdW  Elec       q    Type
REMARK                         _______ _______ _______ _____ _____    ______ ____
ROOT
ATOM      1  C   UNL     1      -1.415   3.430 -22.552  0.00  0.00    -0.033 A 
ATOM      2  C   UNL     1      -2.294   2.718 -21.909  0.00  0.00    -0.047 A 
ATOM      3  C   UNL     1      -1.928   1.631 -21.298  0.00  0.00    +0.004 A 
ATOM      4  C   UNL     1      -0.683   1.256 -21.328  0.00  0.00    +0.009 A 
ATOM      5  C   UNL     1       0.195   1.967 -21.970  0.00  0.00    -0.013 A 
ATOM      6  C   UNL     1       1.439   1.592 -22.000  0.00  0.00    +0.016 C 
ATOM      7  C   UNL     1       2.318   2.304 -22.643  0.00  0.00    +0.006 C 
ATOM      8  C   UNL     1       1.951   3.391 -23.254  0.00  0.00    +0.229 C 
ATOM      9  O   UNL     1       2.829   4.103 -23.896  0.00  0.00    -0.284 OA
ATOM     10  C   UNL     1       0.707   3.766 -23.224  0.00  0.00    +0.233 C 
ATOM     11  O   UNL     1       0.341   4.853 -23.836  0.00  0.00    -0.283 OA
ATOM     12  C   UNL     1      -3.538   3.093 -21.879  0.00  0.00    +0.044 C 
ATOM     13  C   UNL     1      -0.171   3.054 -22.582  0.00  0.00    +0.036 A 
ENDROOT
BRANCH   7  14
ATOM     14  C   UNL     1       3.561   1.929 -22.673  0.00  0.00    +0.017 C 
ATOM     15  C   UNL     1       4.382   2.322 -21.746  0.00  0.00    +0.012 C 
ATOM     16  C   UNL     1       3.985   1.159 -23.631  0.00  0.00    +0.012 C 
ENDBRANCH   7  14
BRANCH   1  17
ATOM     17  C   UNL     1      -1.781   4.517 -23.163  0.00  0.00    +0.040 C 
BRANCH  17  18
ATOM     18  C   UNL     1      -2.773   4.487 -24.004  0.00  0.00    +0.032 C 
BRANCH  18  21
ATOM     19  C   UNL     1      -3.368   3.330 -27.188  0.00  0.00    +0.038 C 
ATOM     20  C   UNL     1      -3.569   3.705 -25.960  0.00  0.00    -0.080 C 
ATOM     21  C   UNL     1      -2.572   4.111 -25.233  0.00  0.00    -0.028 C 
ATOM     22  C   UNL     1      -4.768   3.675 -25.460  0.00  0.00    +0.038 C 
ENDBRANCH  18  21
ENDBRANCH  17  18
ENDBRANCH   1  17
TORSDOF 4
ENDMDL
MODEL 3
REMARK VINA RESULT:    -9.203      2.297      6.580
REMARK INTER + INTRA:         -10.362
REMARK INTER:                 -11.966
REMARK INTRA:                   1.604
REMARK UNBOUND:                 0.993
REMARK  Name = ZINC000001630835
REMARK  9 active torsions:
REMARK  status: ('A' for Active; 'I' for Inactive)
REMARK    1  A    between atoms: C_1  and  C_2
REMARK    2  A    between atoms: C_2  and  C_3
REMARK    3  A    between atoms: C_4  and  C_5
REMARK    4  A    between atoms: C_5  and  C_6
REMARK    5  A    between atoms: C_6  and  C_7
REMARK    6  A    between atoms: C_8  and  C_9
REMARK    7  A    between atoms: C_18  and  C_19
REMARK    8  A    between atoms: C_19  and  C_20
REMARK    9  A    between atoms: C_19  and  C_21
REMARK                            x       y       z     vdW  Elec       q    Type
REMARK                         _______ _______ _______ _____ _____    ______ ____
ROOT
ATOM      1  C   UNL     1       0.353   2.399 -23.449  0.00  0.00    -0.033 A 
ATOM      2  C   UNL     1       0.902   1.757 -22.459  0.00  0.00    -0.047 A 
ATOM      3  C   UNL     1       0.189   1.428 -21.423  0.00  0.00    +0.004 A 
ATOM      4  C   UNL     1      -1.072   1.741 -21.376  0.00  0.00    +0.009 A 
ATOM      5  C   UNL     1      -1.620   2.383 -22.364  0.00  0.00    -0.013 A 
ATOM      6  C   UNL     1      -2.881   2.696 -22.317  0.00  0.00    +0.016 C 
ATOM      7  C   UNL     1      -3.429   3.338 -23.306  0.00  0.00    +0.006 C 
ATOM      8  C   UNL     1      -2.717   3.667 -24.342  0.00  0.00    +0.229 C 
ATOM      9  O   UNL     1      -3.265   4.308 -25.331  0.00  0.00    -0.284 OA
ATOM     10  C   UNL     1      -1.455   3.353 -24.389  0.00  0.00    +0.233 C 
ATOM     11  O   UNL     1      -0.743   3.682 -25.426  0.00  0.00    -0.283 OA
ATOM     12  C   UNL     1       2.162   1.444 -22.507  0.00  0.00    +0.044 C 
ATOM     13  C   UNL     1      -0.908   2.712 -23.401  0.00  0.00    +0.036 A 
ENDROOT
BRANCH   7  14
ATOM     14  C   UNL     1      -4.690   3.651 -23.258  0.00  0.00    +0.017 C 
ATOM     15  C   UNL     1      -5.376   3.423 -22.178  0.00  0.00    +0.012 C 
ATOM     16  C   UNL     1      -5.265   4.192 -24.291  0.00  0.00    +0.012 C 
ENDBRANCH   7  14
BRANCH   1  17
ATOM     17  C   UNL     1       1.066   2.727 -24.485  0.00  0.00    +0.040 C 
BRANCH  17  18
ATOM     18  C   UNL     1       2.171   3.395 -24.329  0.00  0.00    +0.032 C 
BRANCH  18  21
ATOM     19  C   UNL     1       3.163   6.262 -22.709  0.00  0.00    +0.038 C 
ATOM     20  C   UNL     1       3.192   5.067 -23.220  0.00  0.00    -0.080 C 
ATOM     21  C   UNL     1       2.141   4.590 -23.817  0.00  0.00    -0.028 C 
ATOM     22  C   UNL     1       4.273   4.351 -23.135  0.00  0.00    +0.038 C 
ENDBRANCH  18  21
ENDBRANCH  17  18
ENDBRANCH   1  17
TORSDOF 4
ENDMDL
MODEL 4
REMARK VINA RESULT:    -9.037      1.256      6.087
REMARK INTER + INTRA:         -10.157
REMARK INTER:                 -10.473
REMARK INTRA:                   0.316
REMARK UNBOUND:                 0.993
REMARK  Name = ZINC000001630835
REMARK  9 active torsions:
REMARK  status: ('A' for Active; 'I' for Inactive)
REMARK    1  A    between atoms: C_1  and  C_2
REMARK    2  A    between atoms: C_2  and  C_3
REMARK    3  A    between atoms: C_4  and  C_5
REMARK    4  A    between atoms: C_5  and  C_6
REMARK    5  A    between atoms: C_6  and  C_7
REMARK    6  A    between atoms: C_8  and  C_9
REMARK    7  A    between atoms: C_18  and  C_19
REMARK    8  A    between atoms: C_19  and  C_20
REMARK    9  A    between atoms: C_19  and  C_21
REMARK                            x       y       z     vdW  Elec       q    Type
REMARK                         _______ _______ _______ _____ _____    ______ ____
ROOT
ATOM      1  C   UNL     1       1.312   2.855 -22.833  0.00  0.00    -0.033 A 
ATOM      2  C   UNL     1       1.987   3.772 -23.463  0.00  0.00    -0.047 A 
ATOM      3  C   UNL     1       1.394   4.858 -23.860  0.00  0.00    +0.004 A 
ATOM      4  C   UNL     1       0.125   5.028 -23.627  0.00  0.00    +0.009 A 
ATOM      5  C   UNL     1      -0.548   4.112 -22.998  0.00  0.00    -0.013 A 
ATOM      6  C   UNL     1      -1.816   4.282 -22.765  0.00  0.00    +0.016 C 
ATOM      7  C   UNL     1      -2.490   3.366 -22.136  0.00  0.00    +0.006 C 
ATOM      8  C   UNL     1      -1.897   2.280 -21.739  0.00  0.00    +0.229 C 
ATOM      9  O   UNL     1      -2.571   1.363 -21.109  0.00  0.00    -0.284 OA
ATOM     10  C   UNL     1      -0.629   2.110 -21.971  0.00  0.00    +0.233 C 
ATOM     11  O   UNL     1      -0.035   1.023 -21.574  0.00  0.00    -0.283 OA
ATOM     12  C   UNL     1       3.254   3.601 -23.695  0.00  0.00    +0.044 C 
ATOM     13  C   UNL     1       0.045   3.026 -22.601  0.00  0.00    +0.036 A 
ENDROOT
BRANCH   7  14
ATOM     14  C   UNL     1      -3.758   3.536 -21.903  0.00  0.00    +0.017 C 
ATOM     15  C   UNL     1      -4.167   3.810 -20.701  0.00  0.00    +0.012 C 
ATOM     16  C   UNL     1      -4.616   3.432 -22.874  0.00  0.00    +0.012 C 
ENDBRANCH   7  14
BRANCH   1  17
ATOM     17  C   UNL     1       1.906   1.769 -22.436  0.00  0.00    +0.040 C 
BRANCH  17  18
ATOM     18  C   UNL     1       2.736   1.810 -21.436  0.00  0.00    +0.032 C 
BRANCH  18  21
ATOM     19  C   UNL     1       5.420  -0.168 -20.593  0.00  0.00    +0.038 C 
ATOM     20  C   UNL     1       4.714   0.881 -20.895  0.00  0.00    -0.080 C 
ATOM     21  C   UNL     1       3.442   0.761 -21.134  0.00  0.00    -0.028 C 
ATOM     22  C   UNL     1       5.280   2.049 -20.958  0.00  0.00    +0.038 C 
ENDBRANCH  18  21
ENDBRANCH  17  18
ENDBRANCH   1  17
TORSDOF 4
ENDMDL
MODEL 5
REMARK VINA RESULT:    -8.619      2.241      6.512
REMARK INTER + INTRA:          -9.641
REMARK INTER:                 -10.072
REMARK INTRA:                   0.431
REMARK UNBOUND:                 0.993
REMARK  Name = ZINC000001630835
REMARK  9 active torsions:
REMARK  status: ('A' for Active; 'I' for Inactive)
REMARK    1  A    between atoms: C_1  and  C_2
REMARK    2  A    between atoms: C_2  and  C_3
REMARK    3  A    between atoms: C_4  and  C_5
REMARK    4  A    between atoms: C_5  and  C_6
REMARK    5  A    between atoms: C_6  and  C_7
REMARK    6  A    between atoms: C_8  and  C_9
REMARK    7  A    between atoms: C_18  and  C_19
REMARK    8  A    between atoms: C_19  and  C_20
REMARK    9  A    between atoms: C_19  and  C_21
REMARK                            x       y       z     vdW  Elec       q    Type
REMARK                         _______ _______ _______ _____ _____    ______ ____
ROOT
ATOM      1  C   UNL     1       2.356   2.856 -23.131  0.00  0.00    -0.033 A 
ATOM      2  C   UNL     1       2.939   1.753 -22.765  0.00  0.00    -0.047 A 
ATOM      3  C   UNL     1       2.274   0.857 -22.098  0.00  0.00    +0.004 A 
ATOM      4  C   UNL     1       1.026   1.065 -21.796  0.00  0.00    +0.009 A 
ATOM      5  C   UNL     1       0.444   2.168 -22.162  0.00  0.00    -0.013 A 
ATOM      6  C   UNL     1      -0.803   2.375 -21.860  0.00  0.00    +0.016 C 
ATOM      7  C   UNL     1      -1.386   3.478 -22.226  0.00  0.00    +0.006 C 
ATOM      8  C   UNL     1      -0.721   4.374 -22.893  0.00  0.00    +0.229 C 
ATOM      9  O   UNL     1      -1.304   5.477 -23.259  0.00  0.00    -0.284 OA
ATOM     10  C   UNL     1       0.526   4.167 -23.195  0.00  0.00    +0.233 C 
ATOM     11  O   UNL     1       1.191   5.063 -23.862  0.00  0.00    -0.283 OA
ATOM     12  C   UNL     1       4.186   1.546 -23.067  0.00  0.00    +0.044 C 
ATOM     13  C   UNL     1       1.109   3.064 -22.829  0.00  0.00    +0.036 A 
ENDROOT
BRANCH   7  14
ATOM     14  C   UNL     1      -2.633   3.686 -21.924  0.00  0.00    +0.017 C 
ATOM     15  C   UNL     1      -3.565   3.420 -22.791  0.00  0.00    +0.012 C 
ATOM     16  C   UNL     1      -2.949   4.159 -20.756  0.00  0.00    +0.012 C 
ENDBRANCH   7  14
BRANCH   1  17
ATOM     17  C   UNL     1       3.021   3.752 -23.798  0.00  0.00    +0.040 C 
BRANCH  17  18
ATOM     18  C   UNL     1       4.227   4.072 -23.433  0.00  0.00    +0.032 C 
BRANCH  18  21
ATOM     19  C   UNL     1       5.888   6.703 -21.967  0.00  0.00    +0.038 C 
ATOM     20  C   UNL     1       5.659   5.546 -22.514  0.00  0.00    -0.080 C 
ATOM     21  C   UNL     1       4.455   5.229 -22.886  0.00  0.00    -0.028 C 
ATOM     22  C   UNL     1       6.636   4.707 -22.688  0.00  0.00    +0.038 C 
ENDBRANCH  18  21
ENDBRANCH  17  18
ENDBRANCH   1  17
TORSDOF 4
ENDMDL
MODEL 6
REMARK VINA RESULT:    -8.550      2.217      6.713
REMARK INTER + INTRA:          -9.556
REMARK INTER:                  -9.968
REMARK INTRA:                   0.412
REMARK UNBOUND:                 0.993
REMARK  Name = ZINC000001630835
REMARK  9 active torsions:
REMARK  status: ('A' for Active; 'I' for Inactive)
REMARK    1  A    between atoms: C_1  and  C_2
REMARK    2  A    between atoms: C_2  and  C_3
REMARK    3  A    between atoms: C_4  and  C_5
REMARK    4  A    between atoms: C_5  and  C_6
REMARK    5  A    between atoms: C_6  and  C_7
REMARK    6  A    between atoms: C_8  and  C_9
REMARK    7  A    between atoms: C_18  and  C_19
REMARK    8  A    between atoms: C_19  and  C_20
REMARK    9  A    between atoms: C_19  and  C_21
REMARK                            x       y       z     vdW  Elec       q    Type
REMARK                         _______ _______ _______ _____ _____    ______ ____
ROOT
ATOM      1  C   UNL     1       1.515   2.050 -22.647  0.00  0.00    -0.033 A 
ATOM      2  C   UNL     1       1.492   1.567 -21.440  0.00  0.00    -0.047 A 
ATOM      3  C   UNL     1       0.365   1.474 -20.798  0.00  0.00    +0.004 A 
ATOM      4  C   UNL     1      -0.739   1.865 -21.363  0.00  0.00    +0.009 A 
ATOM      5  C   UNL     1      -0.716   2.348 -22.570  0.00  0.00    -0.013 A 
ATOM      6  C   UNL     1      -1.819   2.739 -23.134  0.00  0.00    +0.016 C 
ATOM      7  C   UNL     1      -1.796   3.223 -24.341  0.00  0.00    +0.006 C 
ATOM      8  C   UNL     1      -0.670   3.315 -24.983  0.00  0.00    +0.229 C 
ATOM      9  O   UNL     1      -0.647   3.798 -26.190  0.00  0.00    -0.284 OA
ATOM     10  C   UNL     1       0.434   2.924 -24.418  0.00  0.00    +0.233 C 
ATOM     11  O   UNL     1       1.561   3.016 -25.060  0.00  0.00    -0.283 OA
ATOM     12  C   UNL     1       2.595   1.176 -20.875  0.00  0.00    +0.044 C 
ATOM     13  C   UNL     1       0.411   2.441 -23.211  0.00  0.00    +0.036 A 
ENDROOT
BRANCH   7  14
ATOM     14  C   UNL     1      -2.900   3.613 -24.906  0.00  0.00    +0.017 C 
ATOM     15  C   UNL     1      -3.355   4.810 -24.685  0.00  0.00    +0.012 C 
ATOM     16  C   UNL     1      -3.549   2.807 -25.692  0.00  0.00    +0.012 C 
ENDBRANCH   7  14
BRANCH   1  17
ATOM     17  C   UNL     1       2.641   2.143 -23.289  0.00  0.00    +0.040 C 
BRANCH  17  18
ATOM     18  C   UNL     1       3.618   2.841 -22.790  0.00  0.00    +0.032 C 
BRANCH  18  21
ATOM     19  C   UNL     1       6.755   3.722 -23.890  0.00  0.00    +0.038 C 
ATOM     20  C   UNL     1       5.565   3.809 -23.375  0.00  0.00    -0.080 C 
ATOM     21  C   UNL     1       4.808   2.755 -23.305  0.00  0.00    -0.028 C 
ATOM     22  C   UNL     1       5.132   4.950 -22.928  0.00  0.00    +0.038 C 
ENDBRANCH  18  21
ENDBRANCH  17  18
ENDBRANCH   1  17
TORSDOF 4
ENDMDL
MODEL 7
REMARK VINA RESULT:    -8.533      1.790      5.975
REMARK INTER + INTRA:          -9.535
REMARK INTER:                  -9.719
REMARK INTRA:                   0.183
REMARK UNBOUND:                 0.993
REMARK  Name = ZINC000001630835
REMARK  9 active torsions:
REMARK  status: ('A' for Active; 'I' for Inactive)
REMARK    1  A    between atoms: C_1  and  C_2
REMARK    2  A    between atoms: C_2  and  C_3
REMARK    3  A    between atoms: C_4  and  C_5
REMARK    4  A    between atoms: C_5  and  C_6
REMARK    5  A    between atoms: C_6  and  C_7
REMARK    6  A    between atoms: C_8  and  C_9
REMARK    7  A    between atoms: C_18  and  C_19
REMARK    8  A    between atoms: C_19  and  C_20
REMARK    9  A    between atoms: C_19  and  C_21
REMARK                            x       y       z     vdW  Elec       q    Type
REMARK                         _______ _______ _______ _____ _____    ______ ____
ROOT
ATOM      1  C   UNL     1       3.233   3.531 -23.607  0.00  0.00    -0.033 A 
ATOM      2  C   UNL     1       4.029   4.528 -23.354  0.00  0.00    -0.047 A 
ATOM      3  C   UNL     1       3.538   5.672 -22.982  0.00  0.00    +0.004 A 
ATOM      4  C   UNL     1       2.252   5.820 -22.862  0.00  0.00    +0.009 A 
ATOM      5  C   UNL     1       1.457   4.823 -23.115  0.00  0.00    -0.013 A 
ATOM      6  C   UNL     1       0.171   4.971 -22.996  0.00  0.00    +0.016 C 
ATOM      7  C   UNL     1      -0.625   3.973 -23.249  0.00  0.00    +0.006 C 
ATOM      8  C   UNL     1      -0.134   2.829 -23.622  0.00  0.00    +0.229 C 
ATOM      9  O   UNL     1      -0.928   1.832 -23.875  0.00  0.00    -0.284 OA
ATOM     10  C   UNL     1       1.153   2.681 -23.741  0.00  0.00    +0.233 C 
ATOM     11  O   UNL     1       1.644   1.537 -24.114  0.00  0.00    -0.283 OA
ATOM     12  C   UNL     1       5.315   4.380 -23.474  0.00  0.00    +0.044 C 
ATOM     13  C   UNL     1       1.948   3.678 -23.488  0.00  0.00    +0.036 A 
ENDROOT
BRANCH   7  14
ATOM     14  C   UNL     1      -1.910   4.121 -23.130  0.00  0.00    +0.017 C 
ATOM     15  C   UNL     1      -2.626   4.448 -24.164  0.00  0.00    +0.012 C 
ATOM     16  C   UNL     1      -2.481   3.942 -21.975  0.00  0.00    +0.012 C 
ENDBRANCH   7  14
BRANCH   1  17
ATOM     17  C   UNL     1       3.724   2.386 -23.980  0.00  0.00    +0.040 C 
BRANCH  17  18
ATOM     18  C   UNL     1       4.679   1.833 -23.291  0.00  0.00    +0.032 C 
BRANCH  18  21
ATOM     19  C   UNL     1       4.453   0.053 -20.357  0.00  0.00    +0.038 C 
ATOM     20  C   UNL     1       4.727   1.006 -21.198  0.00  0.00    -0.080 C 
ATOM     21  C   UNL     1       4.405   0.880 -22.450  0.00  0.00    -0.028 C 
ATOM     22  C   UNL     1       5.322   2.084 -20.785  0.00  0.00    +0.038 C 
ENDBRANCH  18  21
ENDBRANCH  17  18
ENDBRANCH   1  17
TORSDOF 4
ENDMDL
MODEL 8
REMARK VINA RESULT:    -8.306      1.746      2.181
REMARK INTER + INTRA:          -9.255
REMARK INTER:                 -10.248
REMARK INTRA:                   0.993
REMARK UNBOUND:                 0.993
REMARK  Name = ZINC000001630835
REMARK  9 active torsions:
REMARK  status: ('A' for Active; 'I' for Inactive)
REMARK    1  A    between atoms: C_1  and  C_2
REMARK    2  A    between atoms: C_2  and  C_3
REMARK    3  A    between atoms: C_4  and  C_5
REMARK    4  A    between atoms: C_5  and  C_6
REMARK    5  A    between atoms: C_6  and  C_7
REMARK    6  A    between atoms: C_8  and  C_9
REMARK    7  A    between atoms: C_18  and  C_19
REMARK    8  A    between atoms: C_19  and  C_20
REMARK    9  A    between atoms: C_19  and  C_21
REMARK                            x       y       z     vdW  Elec       q    Type
REMARK                         _______ _______ _______ _____ _____    ______ ____
ROOT
ATOM      1  C   UNL     1       0.289   3.460 -23.024  0.00  0.00    -0.033 A 
ATOM      2  C   UNL     1       0.279   4.726 -23.325  0.00  0.00    -0.047 A 
ATOM      3  C   UNL     1       1.394   5.393 -23.363  0.00  0.00    +0.004 A 
ATOM      4  C   UNL     1       2.519   4.796 -23.100  0.00  0.00    +0.009 A 
ATOM      5  C   UNL     1       2.528   3.531 -22.799  0.00  0.00    -0.013 A 
ATOM      6  C   UNL     1       3.652   2.934 -22.536  0.00  0.00    +0.016 C 
ATOM      7  C   UNL     1       3.662   1.669 -22.235  0.00  0.00    +0.006 C 
ATOM      8  C   UNL     1       2.547   1.001 -22.197  0.00  0.00    +0.229 C 
ATOM      9  O   UNL     1       2.556  -0.263 -21.896  0.00  0.00    -0.284 OA
ATOM     10  C   UNL     1       1.422   1.599 -22.460  0.00  0.00    +0.233 C 
ATOM     11  O   UNL     1       0.308   0.931 -22.422  0.00  0.00    -0.283 OA
ATOM     12  C   UNL     1      -0.845   5.322 -23.588  0.00  0.00    +0.044 C 
ATOM     13  C   UNL     1       1.413   2.863 -22.761  0.00  0.00    +0.036 A 
ENDROOT
BRANCH   7  14
ATOM     14  C   UNL     1       4.786   1.072 -21.972  0.00  0.00    +0.017 C 
ATOM     15  C   UNL     1       4.888   0.309 -20.926  0.00  0.00    +0.012 C 
ATOM     16  C   UNL     1       5.809   1.239 -22.756  0.00  0.00    +0.012 C 
ENDBRANCH   7  14
BRANCH   1  17
ATOM     17  C   UNL     1      -0.826   2.793 -22.986  0.00  0.00    +0.040 C 
BRANCH  17  18
ATOM     18  C   UNL     1      -1.497   2.586 -24.081  0.00  0.00    +0.032 C 
BRANCH  18  21
ATOM     19  C   UNL     1      -4.647   3.393 -25.199  0.00  0.00    +0.038 C 
ATOM     20  C   UNL     1      -3.361   3.205 -25.181  0.00  0.00    -0.080 C 
ATOM     21  C   UNL     1      -2.783   2.774 -24.099  0.00  0.00    -0.028 C 
ATOM     22  C   UNL     1      -2.654   3.448 -26.243  0.00  0.00    +0.038 C 
ENDBRANCH  18  21
ENDBRANCH  17  18
ENDBRANCH   1  17
TORSDOF 4
ENDMDL
MODEL 9
REMARK VINA RESULT:    -8.053      2.396      7.051
REMARK INTER + INTRA:          -8.943
REMARK INTER:                  -9.360
REMARK INTRA:                   0.417
REMARK UNBOUND:                 0.993
REMARK  Name = ZINC000001630835
REMARK  9 active torsions:
REMARK  status: ('A' for Active; 'I' for Inactive)
REMARK    1  A    between atoms: C_1  and  C_2
REMARK    2  A    between atoms: C_2  and  C_3
REMARK    3  A    between atoms: C_4  and  C_5
REMARK    4  A    between atoms: C_5  and  C_6
REMARK    5  A    between atoms: C_6  and  C_7
REMARK    6  A    between atoms: C_8  and  C_9
REMARK    7  A    between atoms: C_18  and  C_19
REMARK    8  A    between atoms: C_19  and  C_20
REMARK    9  A    between atoms: C_19  and  C_21
REMARK                            x       y       z     vdW  Elec       q    Type
REMARK                         _______ _______ _______ _____ _____    ______ ____
ROOT
ATOM      1  C   UNL     1       4.083   2.376 -22.622  0.00  0.00    -0.033 A 
ATOM      2  C   UNL     1       4.259   1.176 -22.153  0.00  0.00    -0.047 A 
ATOM      3  C   UNL     1       3.232   0.429 -21.877  0.00  0.00    +0.004 A 
ATOM      4  C   UNL     1       2.028   0.882 -22.069  0.00  0.00    +0.009 A 
ATOM      5  C   UNL     1       1.853   2.082 -22.538  0.00  0.00    -0.013 A 
ATOM      6  C   UNL     1       0.650   2.535 -22.731  0.00  0.00    +0.016 C 
ATOM      7  C   UNL     1       0.474   3.735 -23.200  0.00  0.00    +0.006 C 
ATOM      8  C   UNL     1       1.501   4.482 -23.476  0.00  0.00    +0.229 C 
ATOM      9  O   UNL     1       1.326   5.681 -23.945  0.00  0.00    -0.284 OA
ATOM     10  C   UNL     1       2.705   4.029 -23.283  0.00  0.00    +0.233 C 
ATOM     11  O   UNL     1       3.732   4.776 -23.559  0.00  0.00    -0.283 OA
ATOM     12  C   UNL     1       5.462   0.724 -21.960  0.00  0.00    +0.044 C 
ATOM     13  C   UNL     1       2.880   2.829 -22.814  0.00  0.00    +0.036 A 
ENDROOT
BRANCH   7  14
ATOM     14  C   UNL     1      -0.729   4.187 -23.392  0.00  0.00    +0.017 C 
ATOM     15  C   UNL     1      -1.332   3.970 -24.522  0.00  0.00    +0.012 C 
ATOM     16  C   UNL     1      -1.330   4.858 -22.454  0.00  0.00    +0.012 C 
ENDBRANCH   7  14
BRANCH   1  17
ATOM     17  C   UNL     1       5.111   3.123 -22.898  0.00  0.00    +0.040 C 
BRANCH  17  18
ATOM     18  C   UNL     1       5.982   3.399 -21.972  0.00  0.00    +0.032 C 
BRANCH  18  21
ATOM     19  C   UNL     1       8.885   5.236 -21.813  0.00  0.00    +0.038 C 
ATOM     20  C   UNL     1       7.731   4.732 -21.490  0.00  0.00    -0.080 C 
ATOM     21  C   UNL     1       7.136   3.903 -22.295  0.00  0.00    -0.028 C 
ATOM     22  C   UNL     1       7.173   5.056 -20.362  0.00  0.00    +0.038 C 
ENDBRANCH  18  21
ENDBRANCH  17  18
ENDBRANCH   1  17
TORSDOF 4
ENDMDL
