MODEL 1
REMARK VINA RESULT:   -11.270      0.000      0.000
REMARK INTER + INTRA:         -12.032
REMARK INTER:                 -11.926
REMARK INTRA:                  -0.106
REMARK UNBOUND:                -0.104
REMARK  Name = COc1ccc2c3c1OC1=C[C@@H](C)C=C4[C@H](C2)N(C)CC[C@]143                 ZINC000100393882
REMARK  4 active torsions:
REMARK  status: ('A' for Active; 'I' for Inactive)
REMARK    1  A    between atoms: C_1  and  O_2
REMARK    2  A    between atoms: O_2  and  C_3
REMARK    3  A    between atoms: C_12  and  C_13
REMARK    4  A    between atoms: N_18  and  C_19
REMARK                            x       y       z     vdW  Elec       q    Type
REMARK                         _______ _______ _______ _____ _____    ______ ____
ROOT
ATOM      1  C   UNL     1      -4.781   3.631 -22.924  0.00  0.00    +0.162 A 
ATOM      2  C   UNL     1      -4.901   4.064 -24.105  0.00  0.00    +0.050 A 
ATOM      3  C   UNL     1      -3.925   4.060 -24.884  0.00  0.00    +0.008 A 
ATOM      4  C   UNL     1      -2.819   3.623 -24.492  0.00  0.00    -0.034 A 
ATOM      5  C   UNL     1      -2.676   3.188 -23.321  0.00  0.00    +0.020 A 
ATOM      6  C   UNL     1      -1.571   2.754 -22.936  0.00  0.00    +0.088 C 
ATOM      7  C   UNL     1      -0.365   2.236 -22.383  0.00  0.00    +0.075 C 
ATOM      8  C   UNL     1       0.755   2.218 -23.238  0.00  0.00    +0.133 C 
ATOM      9  N   UNL     1       0.583   2.709 -24.549  0.00  0.00    +0.239 N 
ATOM     10  H   UNL     1       1.362   2.717 -25.207  0.00  0.00    +0.204 HD
ATOM     11  C   UNL     1       1.524   2.728 -25.369  0.00  0.00    +0.191 C 
ATOM     12  C   UNL     1      -0.715   3.181 -24.893  0.00  0.00    +0.096 C 
ATOM     13  C   UNL     1      -0.591   2.748 -23.713  0.00  0.00    -0.007 C 
ATOM     14  C   UNL     1       0.524   2.308 -23.319  0.00  0.00    -0.014 C 
ATOM     15  C   UNL     1       0.652   1.878 -22.151  0.00  0.00    +0.035 C 
ATOM     16  C   UNL     1       1.758   1.444 -21.766  0.00  0.00    +0.016 C 
ATOM     17  C   UNL     1      -0.333   1.881 -21.360  0.00  0.00    +0.023 C 
ATOM     18  C   UNL     1      -1.438   2.315 -21.747  0.00  0.00    +0.117 C 
ATOM     19  O   UNL     1      -2.877   2.594 -21.403  0.00  0.00    -0.455 OA
ATOM     20  C   UNL     1      -1.820   3.617 -25.283  0.00  0.00    +0.094 C 
ATOM     21  C   UNL     1      -3.661   3.191 -22.532  0.00  0.00    +0.174 A 
ENDROOT
BRANCH   1  23
ATOM     22  C   UNL     1      -6.266   2.560 -21.770  0.00  0.00    +0.277 C 
ATOM     23  O   UNL     1      -5.760   3.638 -22.149  0.00  0.00    -0.491 OA
ENDBRANCH   1  23
TORSDOF 1
ENDMDL
MODEL 2
REMARK VINA RESULT:   -11.205      2.152      5.527
REMARK INTER + INTRA:         -11.964
REMARK INTER:                 -11.852
REMARK INTRA:                  -0.112
REMARK UNBOUND:                -0.104
REMARK  Name = COc1ccc2c3c1OC1=C[C@@H](C)C=C4[C@H](C2)N(C)CC[C@]143                 ZINC000100393882
REMARK  4 active torsions:
REMARK  status: ('A' for Active; 'I' for Inactive)
REMARK    1  A    between atoms: C_1  and  O_2
REMARK    2  A    between atoms: O_2  and  C_3
REMARK    3  A    between atoms: C_12  and  C_13
REMARK    4  A    between atoms: N_18  and  C_19
REMARK                            x       y       z     vdW  Elec       q    Type
REMARK                         _______ _______ _______ _____ _____    ______ ____
ROOT
ATOM      1  C   UNL     1       1.580   2.179 -23.554  0.00  0.00    +0.162 A 
ATOM      2  C   UNL     1       1.652   1.622 -22.422  0.00  0.00    +0.050 A 
ATOM      3  C   UNL     1       0.641   1.533 -21.695  0.00  0.00    +0.008 A 
ATOM      4  C   UNL     1      -0.452   1.997 -22.090  0.00  0.00    -0.034 A 
ATOM      5  C   UNL     1      -0.547   2.556 -23.213  0.00  0.00    +0.020 A 
ATOM      6  C   UNL     1      -1.640   3.017 -23.601  0.00  0.00    +0.088 C 
ATOM      7  C   UNL     1      -2.826   3.580 -24.153  0.00  0.00    +0.075 C 
ATOM      8  C   UNL     1      -3.985   3.494 -23.355  0.00  0.00    +0.133 C 
ATOM      9  N   UNL     1      -3.866   2.866 -22.098  0.00  0.00    +0.239 N 
ATOM     10  H   UNL     1      -4.675   2.779 -21.483  0.00  0.00    +0.204 HD
ATOM     11  C   UNL     1      -4.844   2.749 -21.330  0.00  0.00    +0.191 C 
ATOM     12  C   UNL     1      -2.579   2.372 -21.745  0.00  0.00    +0.096 C 
ATOM     13  C   UNL     1      -2.654   2.930 -22.876  0.00  0.00    -0.007 C 
ATOM     14  C   UNL     1      -3.757   3.398 -23.274  0.00  0.00    -0.014 C 
ATOM     15  C   UNL     1      -3.837   3.951 -24.393  0.00  0.00    +0.035 C 
ATOM     16  C   UNL     1      -4.930   4.412 -24.781  0.00  0.00    +0.016 C 
ATOM     17  C   UNL     1      -2.816   4.043 -25.132  0.00  0.00    +0.023 C 
ATOM     18  C   UNL     1      -1.724   3.580 -24.741  0.00  0.00    +0.117 C 
ATOM     19  O   UNL     1      -0.266   3.355 -25.044  0.00  0.00    -0.455 OA
ATOM     20  C   UNL     1      -1.487   1.909 -21.351  0.00  0.00    +0.094 C 
ATOM     21  C   UNL     1       0.473   2.647 -23.950  0.00  0.00    +0.174 A 
ENDROOT
BRANCH   1  23
ATOM     22  C   UNL     1       3.404   1.316 -24.339  0.00  0.00    +0.277 C 
ATOM     23  O   UNL     1       2.594   2.266 -24.278  0.00  0.00    -0.491 OA
ENDBRANCH   1  23
TORSDOF 1
ENDMDL
MODEL 3
REMARK VINA RESULT:   -11.118      1.743      4.800
REMARK INTER + INTRA:         -11.872
REMARK INTER:                 -11.732
REMARK INTRA:                  -0.140
REMARK UNBOUND:                -0.104
REMARK  Name = COc1ccc2c3c1OC1=C[C@@H](C)C=C4[C@H](C2)N(C)CC[C@]143                 ZINC000100393882
REMARK  4 active torsions:
REMARK  status: ('A' for Active; 'I' for Inactive)
REMARK    1  A    between atoms: C_1  and  O_2
REMARK    2  A    between atoms: O_2  and  C_3
REMARK    3  A    between atoms: C_12  and  C_13
REMARK    4  A    between atoms: N_18  and  C_19
REMARK                            x       y       z     vdW  Elec       q    Type
REMARK                         _______ _______ _______ _____ _____    ______ ____
ROOT
ATOM      1  C   UNL     1       1.350   2.429 -22.875  0.00  0.00    +0.162 A 
ATOM      2  C   UNL     1       1.620   2.844 -24.037  0.00  0.00    +0.050 A 
ATOM      3  C   UNL     1       0.715   3.279 -24.780  0.00  0.00    +0.008 A 
ATOM      4  C   UNL     1      -0.467   3.304 -24.370  0.00  0.00    -0.034 A 
ATOM      5  C   UNL     1      -0.759   2.895 -23.217  0.00  0.00    +0.020 A 
ATOM      6  C   UNL     1      -1.940   2.922 -22.814  0.00  0.00    +0.088 C 
ATOM      7  C   UNL     1      -3.245   2.903 -22.244  0.00  0.00    +0.075 C 
ATOM      8  C   UNL     1      -4.287   3.388 -23.059  0.00  0.00    +0.133 C 
ATOM      9  N   UNL     1      -3.948   3.843 -24.350  0.00  0.00    +0.239 N 
ATOM     10  H   UNL     1      -4.666   4.203 -24.978  0.00  0.00    +0.204 HD
ATOM     11  C   UNL     1      -4.813   4.288 -25.134  0.00  0.00    +0.191 C 
ATOM     12  C   UNL     1      -2.575   3.772 -24.717  0.00  0.00    +0.096 C 
ATOM     13  C   UNL     1      -2.848   3.357 -23.555  0.00  0.00    -0.007 C 
ATOM     14  C   UNL     1      -4.041   3.382 -23.143  0.00  0.00    -0.014 C 
ATOM     15  C   UNL     1      -4.317   2.973 -21.993  0.00  0.00    +0.035 C 
ATOM     16  C   UNL     1      -5.499   3.000 -21.591  0.00  0.00    +0.016 C 
ATOM     17  C   UNL     1      -3.404   2.532 -21.239  0.00  0.00    +0.023 C 
ATOM     18  C   UNL     1      -2.223   2.506 -21.644  0.00  0.00    +0.117 C 
ATOM     19  O   UNL     1      -0.790   2.160 -21.339  0.00  0.00    -0.455 OA
ATOM     20  C   UNL     1      -1.394   3.747 -25.125  0.00  0.00    +0.094 C 
ATOM     21  C   UNL     1       0.154   2.455 -22.464  0.00  0.00    +0.174 A 
ENDROOT
BRANCH   1  23
ATOM     22  C   UNL     1       2.623   0.802 -22.224  0.00  0.00    +0.277 C 
ATOM     23  O   UNL     1       2.259   1.995 -22.135  0.00  0.00    -0.491 OA
ENDBRANCH   1  23
TORSDOF 1
ENDMDL
MODEL 4
REMARK VINA RESULT:   -10.190      2.245      3.325
REMARK INTER + INTRA:         -10.890
REMARK INTER:                 -10.765
REMARK INTRA:                  -0.125
REMARK UNBOUND:                -0.104
REMARK  Name = COc1ccc2c3c1OC1=C[C@@H](C)C=C4[C@H](C2)N(C)CC[C@]143                 ZINC000100393882
REMARK  4 active torsions:
REMARK  status: ('A' for Active; 'I' for Inactive)
REMARK    1  A    between atoms: C_1  and  O_2
REMARK    2  A    between atoms: O_2  and  C_3
REMARK    3  A    between atoms: C_12  and  C_13
REMARK    4  A    between atoms: N_18  and  C_19
REMARK                            x       y       z     vdW  Elec       q    Type
REMARK                         _______ _______ _______ _____ _____    ______ ____
ROOT
ATOM      1  C   UNL     1      -1.810   3.207 -23.139  0.00  0.00    +0.162 A 
ATOM      2  C   UNL     1      -1.789   4.423 -23.480  0.00  0.00    +0.050 A 
ATOM      3  C   UNL     1      -0.705   5.037 -23.571  0.00  0.00    +0.008 A 
ATOM      4  C   UNL     1       0.368   4.444 -23.321  0.00  0.00    -0.034 A 
ATOM      5  C   UNL     1       0.371   3.233 -22.980  0.00  0.00    +0.020 A 
ATOM      6  C   UNL     1       1.445   2.647 -22.732  0.00  0.00    +0.088 C 
ATOM      7  C   UNL     1       2.600   1.873 -22.425  0.00  0.00    +0.075 C 
ATOM      8  C   UNL     1       3.838   2.538 -22.519  0.00  0.00    +0.133 C 
ATOM      9  N   UNL     1       3.823   3.895 -22.903  0.00  0.00    +0.239 N 
ATOM     10  H   UNL     1       4.692   4.422 -22.985  0.00  0.00    +0.204 HD
ATOM     11  C   UNL     1       4.876   4.557 -23.009  0.00  0.00    +0.191 C 
ATOM     12  C   UNL     1       2.549   4.474 -23.164  0.00  0.00    +0.096 C 
ATOM     13  C   UNL     1       2.531   3.258 -22.822  0.00  0.00    -0.007 C 
ATOM     14  C   UNL     1       3.615   2.661 -22.570  0.00  0.00    -0.014 C 
ATOM     15  C   UNL     1       3.603   1.456 -22.231  0.00  0.00    +0.035 C 
ATOM     16  C   UNL     1       4.678   0.870 -21.984  0.00  0.00    +0.016 C 
ATOM     17  C   UNL     1       2.509   0.832 -22.139  0.00  0.00    +0.023 C 
ATOM     18  C   UNL     1       1.436   1.421 -22.387  0.00  0.00    +0.117 C 
ATOM     19  O   UNL     1      -0.065   1.329 -22.476  0.00  0.00    -0.455 OA
ATOM     20  C   UNL     1       1.477   5.066 -23.412  0.00  0.00    +0.094 C 
ATOM     21  C   UNL     1      -0.723   2.610 -22.887  0.00  0.00    +0.174 A 
ENDROOT
BRANCH   1  23
ATOM     22  C   UNL     1      -3.749   2.956 -22.209  0.00  0.00    +0.277 C 
ATOM     23  O   UNL     1      -2.896   2.597 -23.049  0.00  0.00    -0.491 OA
ENDBRANCH   1  23
TORSDOF 1
ENDMDL
MODEL 5
REMARK VINA RESULT:   -10.074      1.340      2.751
REMARK INTER + INTRA:         -10.767
REMARK INTER:                 -10.743
REMARK INTRA:                  -0.024
REMARK UNBOUND:                -0.104
REMARK  Name = COc1ccc2c3c1OC1=C[C@@H](C)C=C4[C@H](C2)N(C)CC[C@]143                 ZINC000100393882
REMARK  4 active torsions:
REMARK  status: ('A' for Active; 'I' for Inactive)
REMARK    1  A    between atoms: C_1  and  O_2
REMARK    2  A    between atoms: O_2  and  C_3
REMARK    3  A    between atoms: C_12  and  C_13
REMARK    4  A    between atoms: N_18  and  C_19
REMARK                            x       y       z     vdW  Elec       q    Type
REMARK                         _______ _______ _______ _____ _____    ______ ____
ROOT
ATOM      1  C   UNL     1      -4.421   3.656 -23.285  0.00  0.00    +0.162 A 
ATOM      2  C   UNL     1      -4.655   3.176 -22.140  0.00  0.00    +0.050 A 
ATOM      3  C   UNL     1      -3.732   2.676 -21.463  0.00  0.00    +0.008 A 
ATOM      4  C   UNL     1      -2.568   2.650 -21.921  0.00  0.00    -0.034 A 
ATOM      5  C   UNL     1      -2.312   3.122 -23.058  0.00  0.00    +0.020 A 
ATOM      6  C   UNL     1      -1.149   3.093 -23.510  0.00  0.00    +0.088 C 
ATOM      7  C   UNL     1       0.132   3.118 -24.131  0.00  0.00    +0.075 C 
ATOM      8  C   UNL     1       1.194   2.561 -23.391  0.00  0.00    +0.133 C 
ATOM      9  N   UNL     1       0.895   2.035 -22.117  0.00  0.00    +0.239 N 
ATOM     10  H   UNL     1       1.628   1.620 -21.542  0.00  0.00    +0.204 HD
ATOM     11  C   UNL     1       1.778   1.523 -21.397  0.00  0.00    +0.191 C 
ATOM     12  C   UNL     1      -0.461   2.114 -21.690  0.00  0.00    +0.096 C 
ATOM     13  C   UNL     1      -0.223   2.594 -22.835  0.00  0.00    -0.007 C 
ATOM     14  C   UNL     1       0.951   2.567 -23.296  0.00  0.00    -0.014 C 
ATOM     15  C   UNL     1       1.192   3.040 -24.430  0.00  0.00    +0.035 C 
ATOM     16  C   UNL     1       2.356   3.011 -24.881  0.00  0.00    +0.016 C 
ATOM     17  C   UNL     1       0.262   3.546 -25.118  0.00  0.00    +0.023 C 
ATOM     18  C   UNL     1      -0.902   3.574 -24.664  0.00  0.00    +0.117 C 
ATOM     19  O   UNL     1      -2.337   3.971 -24.889  0.00  0.00    -0.455 OA
ATOM     20  C   UNL     1      -1.623   2.141 -21.233  0.00  0.00    +0.094 C 
ATOM     21  C   UNL     1      -3.242   3.628 -23.745  0.00  0.00    +0.174 A 
ENDROOT
BRANCH   1  23
ATOM     22  C   UNL     1      -5.564   3.751 -25.122  0.00  0.00    +0.277 C 
ATOM     23  O   UNL     1      -5.347   4.156 -23.959  0.00  0.00    -0.491 OA
ENDBRANCH   1  23
TORSDOF 1
ENDMDL
MODEL 6
REMARK VINA RESULT:    -9.867      2.107      3.645
REMARK INTER + INTRA:         -10.547
REMARK INTER:                 -10.404
REMARK INTRA:                  -0.144
REMARK UNBOUND:                -0.104
REMARK  Name = COc1ccc2c3c1OC1=C[C@@H](C)C=C4[C@H](C2)N(C)CC[C@]143                 ZINC000100393882
REMARK  4 active torsions:
REMARK  status: ('A' for Active; 'I' for Inactive)
REMARK    1  A    between atoms: C_1  and  O_2
REMARK    2  A    between atoms: O_2  and  C_3
REMARK    3  A    between atoms: C_12  and  C_13
REMARK    4  A    between atoms: N_18  and  C_19
REMARK                            x       y       z     vdW  Elec       q    Type
REMARK                         _______ _______ _______ _____ _____    ______ ____
ROOT
ATOM      1  C   UNL     1      -2.294   3.754 -23.333  0.00  0.00    +0.162 A 
ATOM      2  C   UNL     1      -2.792   2.923 -22.522  0.00  0.00    +0.050 A 
ATOM      3  C   UNL     1      -2.054   2.168 -21.854  0.00  0.00    +0.008 A 
ATOM      4  C   UNL     1      -0.812   2.234 -21.990  0.00  0.00    -0.034 A 
ATOM      5  C   UNL     1      -0.294   3.053 -22.792  0.00  0.00    +0.020 A 
ATOM      6  C   UNL     1       0.946   3.114 -22.923  0.00  0.00    +0.088 C 
ATOM      7  C   UNL     1       2.341   3.277 -23.159  0.00  0.00    +0.075 C 
ATOM      8  C   UNL     1       3.199   2.439 -22.420  0.00  0.00    +0.133 C 
ATOM      9  N   UNL     1       2.607   1.525 -21.525  0.00  0.00    +0.239 N 
ATOM     10  H   UNL     1       3.185   0.896 -20.967  0.00  0.00    +0.204 HD
ATOM     11  C   UNL     1       3.297   0.747 -20.833  0.00  0.00    +0.191 C 
ATOM     12  C   UNL     1       1.186   1.531 -21.446  0.00  0.00    +0.096 C 
ATOM     13  C   UNL     1       1.688   2.360 -22.257  0.00  0.00    -0.007 C 
ATOM     14  C   UNL     1       2.941   2.426 -22.393  0.00  0.00    -0.014 C 
ATOM     15  C   UNL     1       3.443   3.245 -23.194  0.00  0.00    +0.035 C 
ATOM     16  C   UNL     1       4.684   3.306 -23.325  0.00  0.00    +0.016 C 
ATOM     17  C   UNL     1       2.700   4.011 -23.871  0.00  0.00    +0.023 C 
ATOM     18  C   UNL     1       1.460   3.948 -23.738  0.00  0.00    +0.117 C 
ATOM     19  O   UNL     1       0.115   4.479 -24.159  0.00  0.00    -0.455 OA
ATOM     20  C   UNL     1      -0.055   1.466 -21.311  0.00  0.00    +0.094 C 
ATOM     21  C   UNL     1      -1.037   3.817 -23.467  0.00  0.00    +0.174 A 
ENDROOT
BRANCH   1  23
ATOM     22  C   UNL     1      -3.356   4.199 -25.166  0.00  0.00    +0.277 C 
ATOM     23  O   UNL     1      -3.036   4.507 -23.998  0.00  0.00    -0.491 OA
ENDBRANCH   1  23
TORSDOF 1
ENDMDL
MODEL 7
REMARK VINA RESULT:    -9.109      2.956      4.652
REMARK INTER + INTRA:          -9.746
REMARK INTER:                  -9.630
REMARK INTRA:                  -0.116
REMARK UNBOUND:                -0.104
REMARK  Name = COc1ccc2c3c1OC1=C[C@@H](C)C=C4[C@H](C2)N(C)CC[C@]143                 ZINC000100393882
REMARK  4 active torsions:
REMARK  status: ('A' for Active; 'I' for Inactive)
REMARK    1  A    between atoms: C_1  and  O_2
REMARK    2  A    between atoms: O_2  and  C_3
REMARK    3  A    between atoms: C_12  and  C_13
REMARK    4  A    between atoms: N_18  and  C_19
REMARK                            x       y       z     vdW  Elec       q    Type
REMARK                         _______ _______ _______ _____ _____    ______ ____
ROOT
ATOM      1  C   UNL     1      -0.863   3.826 -23.208  0.00  0.00    +0.162 A 
ATOM      2  C   UNL     1      -1.259   2.687 -22.830  0.00  0.00    +0.050 A 
ATOM      3  C   UNL     1      -0.436   1.818 -22.473  0.00  0.00    +0.008 A 
ATOM      4  C   UNL     1       0.788   2.076 -22.489  0.00  0.00    -0.034 A 
ATOM      5  C   UNL     1       1.204   3.203 -22.862  0.00  0.00    +0.020 A 
ATOM      6  C   UNL     1       2.427   3.455 -22.877  0.00  0.00    +0.088 C 
ATOM      7  C   UNL     1       3.791   3.859 -22.936  0.00  0.00    +0.075 C 
ATOM      8  C   UNL     1       4.743   2.899 -22.539  0.00  0.00    +0.133 C 
ATOM      9  N   UNL     1       4.265   1.639 -22.123  0.00  0.00    +0.239 N 
ATOM     10  H   UNL     1       4.912   0.910 -21.826  0.00  0.00    +0.204 HD
ATOM     11  C   UNL     1       5.042   0.733 -21.756  0.00  0.00    +0.191 C 
ATOM     12  C   UNL     1       2.854   1.449 -22.142  0.00  0.00    +0.096 C 
ATOM     13  C   UNL     1       3.253   2.587 -22.520  0.00  0.00    -0.007 C 
ATOM     14  C   UNL     1       4.488   2.846 -22.536  0.00  0.00    -0.014 C 
ATOM     15  C   UNL     1       4.888   3.972 -22.909  0.00  0.00    +0.035 C 
ATOM     16  C   UNL     1       6.111   4.223 -22.923  0.00  0.00    +0.016 C 
ATOM     17  C   UNL     1       4.060   4.853 -23.271  0.00  0.00    +0.023 C 
ATOM     18  C   UNL     1       2.836   4.600 -23.256  0.00  0.00    +0.117 C 
ATOM     19  O   UNL     1       1.439   5.097 -23.517  0.00  0.00    -0.455 OA
ATOM     20  C   UNL     1       1.631   1.192 -22.126  0.00  0.00    +0.094 C 
ATOM     21  C   UNL     1       0.376   4.083 -23.224  0.00  0.00    +0.174 A 
ENDROOT
BRANCH   1  23
ATOM     22  C   UNL     1      -2.592   4.400 -24.378  0.00  0.00    +0.277 C 
ATOM     23  O   UNL     1      -1.689   4.693 -23.565  0.00  0.00    -0.491 OA
ENDBRANCH   1  23
TORSDOF 1
ENDMDL
