MODEL 1
REMARK VINA RESULT:    -8.740      0.000      0.000
REMARK INTER + INTRA:         -10.448
REMARK INTER:                 -10.602
REMARK INTRA:                   0.154
REMARK UNBOUND:                 0.592
REMARK  Name = ZINC000000338310
REMARK  9 active torsions:
REMARK  status: ('A' for Active; 'I' for Inactive)
REMARK    1  A    between atoms: C_1  and  O_2
REMARK    2  A    between atoms: O_2  and  C_3
REMARK    3  A    between atoms: C_13  and  C_14
REMARK    4  A    between atoms: C_14  and  C_15
REMARK    5  A    between atoms: C_15  and  O_16
REMARK    6  A    between atoms: C_15  and  C_17
REMARK    7  A    between atoms: C_17  and  C_18
REMARK    8  A    between atoms: C_17  and  C_19
REMARK    9  A    between atoms: C_17  and  O_20
REMARK                            x       y       z     vdW  Elec       q    Type
REMARK                         _______ _______ _______ _____ _____    ______ ____
ROOT
ATOM      1  C   UNL     1      -1.055   2.825 -22.132  0.00  0.00    +0.127 A 
ATOM      2  C   UNL     1      -1.798   2.198 -21.268  0.00  0.00    +0.047 A 
ATOM      3  C   UNL     1      -3.093   2.286 -21.340  0.00  0.00    +0.015 A 
ATOM      4  C   UNL     1      -3.645   3.001 -22.274  0.00  0.00    +0.018 A 
ATOM      5  C   UNL     1      -4.940   3.090 -22.347  0.00  0.00    +0.018 A 
ATOM      6  C   UNL     1      -5.492   3.804 -23.281  0.00  0.00    +0.092 A 
ATOM      7  C   UNL     1      -4.749   4.431 -24.144  0.00  0.00    +0.337 A 
ATOM      8  O   UNL     1      -3.453   4.343 -24.073  0.00  0.00    -0.422 OA
ATOM      9  O   UNL     1      -5.301   5.146 -25.079  0.00  0.00    -0.245 OA
ATOM     10  C   UNL     1      -2.902   3.628 -23.138  0.00  0.00    +0.146 A 
ATOM     11  C   UNL     1      -1.607   3.540 -23.066  0.00  0.00    +0.040 A 
ENDROOT
BRANCH   1  13
ATOM     12  C   UNL     1       0.793   1.652 -21.604  0.00  0.00    +0.277 C 
ATOM     13  O   UNL     1       0.240   2.737 -22.060  0.00  0.00    -0.495 OA
ENDBRANCH   1  13
BRANCH  11  14
ATOM     14  C   UNL     1      -0.864   4.167 -23.929  0.00  0.00    +0.076 C 
BRANCH  14  15
ATOM     15  C   UNL     1      -0.463   3.559 -25.006  0.00  0.00    +0.150 C 
BRANCH  15  16
ATOM     16  C   UNL     1       0.809   3.421 -25.239  0.00  0.00    +0.087 C 
ATOM     17  C   UNL     1       1.526   4.456 -25.561  0.00  0.00    +0.043 C 
ATOM     18  C   UNL     1       1.862   2.665 -25.323  0.00  0.00    +0.043 C 
BRANCH  16  19
ATOM     19  O   UNL     1       0.715   2.146 -25.002  0.00  0.00    -0.387 OA
ATOM     20  H   UNL     1      -0.010   1.986 -24.377  0.00  0.00    +0.210 HD
ENDBRANCH  16  19
ENDBRANCH  15  16
BRANCH  15  21
ATOM     21  O   UNL     1      -1.334   3.087 -25.849  0.00  0.00    -0.389 OA
ATOM     22  H   UNL     1      -1.091   3.355 -26.748  0.00  0.00    +0.210 HD
ENDBRANCH  15  21
ENDBRANCH  14  15
ENDBRANCH  11  14
TORSDOF 6
ENDMDL
MODEL 2
REMARK VINA RESULT:    -8.466      1.774      3.336
REMARK INTER + INTRA:         -10.102
REMARK INTER:                 -10.354
REMARK INTRA:                   0.252
REMARK UNBOUND:                 0.592
REMARK  Name = ZINC000000338310
REMARK  9 active torsions:
REMARK  status: ('A' for Active; 'I' for Inactive)
REMARK    1  A    between atoms: C_1  and  O_2
REMARK    2  A    between atoms: O_2  and  C_3
REMARK    3  A    between atoms: C_13  and  C_14
REMARK    4  A    between atoms: C_14  and  C_15
REMARK    5  A    between atoms: C_15  and  O_16
REMARK    6  A    between atoms: C_15  and  C_17
REMARK    7  A    between atoms: C_17  and  C_18
REMARK    8  A    between atoms: C_17  and  C_19
REMARK    9  A    between atoms: C_17  and  O_20
REMARK                            x       y       z     vdW  Elec       q    Type
REMARK                         _______ _______ _______ _____ _____    ______ ____
ROOT
ATOM      1  C   UNL     1      -3.283   3.828 -25.341  0.00  0.00    +0.127 A 
ATOM      2  C   UNL     1      -4.573   3.673 -25.396  0.00  0.00    +0.047 A 
ATOM      3  C   UNL     1      -5.259   3.544 -24.299  0.00  0.00    +0.015 A 
ATOM      4  C   UNL     1      -4.656   3.570 -23.148  0.00  0.00    +0.018 A 
ATOM      5  C   UNL     1      -5.341   3.441 -22.051  0.00  0.00    +0.018 A 
ATOM      6  C   UNL     1      -4.739   3.468 -20.900  0.00  0.00    +0.092 A 
ATOM      7  C   UNL     1      -3.449   3.623 -20.845  0.00  0.00    +0.337 A 
ATOM      8  O   UNL     1      -2.762   3.752 -21.943  0.00  0.00    -0.422 OA
ATOM      9  O   UNL     1      -2.845   3.650 -19.695  0.00  0.00    -0.245 OA
ATOM     10  C   UNL     1      -3.366   3.726 -23.094  0.00  0.00    +0.146 A 
ATOM     11  C   UNL     1      -2.680   3.855 -24.190  0.00  0.00    +0.040 A 
ENDROOT
BRANCH   1  13
ATOM     12  C   UNL     1      -3.075   3.506 -27.560  0.00  0.00    +0.277 C 
ATOM     13  O   UNL     1      -2.597   3.957 -26.438  0.00  0.00    -0.495 OA
ENDBRANCH   1  13
BRANCH  11  14
ATOM     14  C   UNL     1      -1.390   4.010 -24.135  0.00  0.00    +0.076 C 
BRANCH  14  15
ATOM     15  C   UNL     1      -0.609   2.971 -24.154  0.00  0.00    +0.150 C 
BRANCH  15  16
ATOM     16  C   UNL     1       0.621   3.090 -24.559  0.00  0.00    +0.087 C 
ATOM     17  C   UNL     1       1.563   3.364 -23.707  0.00  0.00    +0.043 C 
ATOM     18  C   UNL     1       1.496   3.069 -25.520  0.00  0.00    +0.043 C 
BRANCH  16  19
ATOM     19  O   UNL     1       0.243   2.843 -25.779  0.00  0.00    -0.387 OA
ATOM     20  H   UNL     1       0.329   1.893 -25.958  0.00  0.00    +0.210 HD
ENDBRANCH  16  19
ENDBRANCH  15  16
BRANCH  15  21
ATOM     21  O   UNL     1      -1.058   1.813 -23.768  0.00  0.00    -0.389 OA
ATOM     22  H   UNL     1      -0.699   1.604 -22.892  0.00  0.00    +0.210 HD
ENDBRANCH  15  21
ENDBRANCH  14  15
ENDBRANCH  11  14
TORSDOF 6
ENDMDL
MODEL 3
REMARK VINA RESULT:    -8.184      1.778      3.407
REMARK INTER + INTRA:          -9.745
REMARK INTER:                 -10.057
REMARK INTRA:                   0.312
REMARK UNBOUND:                 0.592
REMARK  Name = ZINC000000338310
REMARK  9 active torsions:
REMARK  status: ('A' for Active; 'I' for Inactive)
REMARK    1  A    between atoms: C_1  and  O_2
REMARK    2  A    between atoms: O_2  and  C_3
REMARK    3  A    between atoms: C_13  and  C_14
REMARK    4  A    between atoms: C_14  and  C_15
REMARK    5  A    between atoms: C_15  and  O_16
REMARK    6  A    between atoms: C_15  and  C_17
REMARK    7  A    between atoms: C_17  and  C_18
REMARK    8  A    between atoms: C_17  and  C_19
REMARK    9  A    between atoms: C_17  and  O_20
REMARK                            x       y       z     vdW  Elec       q    Type
REMARK                         _______ _______ _______ _____ _____    ______ ____
ROOT
ATOM      1  C   UNL     1      -0.674   3.217 -24.598  0.00  0.00    +0.127 A 
ATOM      2  C   UNL     1      -1.698   3.421 -25.372  0.00  0.00    +0.047 A 
ATOM      3  C   UNL     1      -2.884   3.560 -24.857  0.00  0.00    +0.015 A 
ATOM      4  C   UNL     1      -3.046   3.494 -23.569  0.00  0.00    +0.018 A 
ATOM      5  C   UNL     1      -4.231   3.632 -23.053  0.00  0.00    +0.018 A 
ATOM      6  C   UNL     1      -4.392   3.566 -21.765  0.00  0.00    +0.092 A 
ATOM      7  C   UNL     1      -3.367   3.362 -20.992  0.00  0.00    +0.337 A 
ATOM      8  O   UNL     1      -2.181   3.224 -21.507  0.00  0.00    -0.422 OA
ATOM      9  O   UNL     1      -3.528   3.296 -19.704  0.00  0.00    -0.245 OA
ATOM     10  C   UNL     1      -2.020   3.289 -22.795  0.00  0.00    +0.146 A 
ATOM     11  C   UNL     1      -0.835   3.151 -23.310  0.00  0.00    +0.040 A 
ENDROOT
BRANCH   1  13
ATOM     12  C   UNL     1       1.129   4.109 -25.609  0.00  0.00    +0.277 C 
ATOM     13  O   UNL     1       0.512   3.079 -25.113  0.00  0.00    -0.495 OA
ENDBRANCH   1  13
BRANCH  11  14
ATOM     14  C   UNL     1       0.190   2.947 -22.536  0.00  0.00    +0.076 C 
BRANCH  14  15
ATOM     15  C   UNL     1       0.572   1.733 -22.269  0.00  0.00    +0.150 C 
BRANCH  15  16
ATOM     16  C   UNL     1       1.838   1.446 -22.220  0.00  0.00    +0.087 C 
ATOM     17  C   UNL     1       2.497   1.601 -21.110  0.00  0.00    +0.043 C 
ATOM     18  C   UNL     1       2.921   1.025 -22.804  0.00  0.00    +0.043 C 
BRANCH  16  19
ATOM     19  O   UNL     1       1.809   1.101 -23.473  0.00  0.00    -0.387 OA
ATOM     20  H   UNL     1       2.710   1.115 -23.834  0.00  0.00    +0.210 HD
ENDBRANCH  16  19
ENDBRANCH  15  16
BRANCH  15  21
ATOM     21  O   UNL     1      -0.315   0.807 -22.052  0.00  0.00    -0.389 OA
ATOM     22  H   UNL     1      -0.110   0.030 -22.594  0.00  0.00    +0.210 HD
ENDBRANCH  15  21
ENDBRANCH  14  15
ENDBRANCH  11  14
TORSDOF 6
ENDMDL
MODEL 4
REMARK VINA RESULT:    -8.157      1.650      2.079
REMARK INTER + INTRA:          -9.712
REMARK INTER:                 -10.246
REMARK INTRA:                   0.534
REMARK UNBOUND:                 0.592
REMARK  Name = ZINC000000338310
REMARK  9 active torsions:
REMARK  status: ('A' for Active; 'I' for Inactive)
REMARK    1  A    between atoms: C_1  and  O_2
REMARK    2  A    between atoms: O_2  and  C_3
REMARK    3  A    between atoms: C_13  and  C_14
REMARK    4  A    between atoms: C_14  and  C_15
REMARK    5  A    between atoms: C_15  and  O_16
REMARK    6  A    between atoms: C_15  and  C_17
REMARK    7  A    between atoms: C_17  and  C_18
REMARK    8  A    between atoms: C_17  and  C_19
REMARK    9  A    between atoms: C_17  and  O_20
REMARK                            x       y       z     vdW  Elec       q    Type
REMARK                         _______ _______ _______ _____ _____    ______ ____
ROOT
ATOM      1  C   UNL     1      -1.118   2.871 -22.327  0.00  0.00    +0.127 A 
ATOM      2  C   UNL     1      -2.225   3.103 -21.685  0.00  0.00    +0.047 A 
ATOM      3  C   UNL     1      -3.313   3.374 -22.344  0.00  0.00    +0.015 A 
ATOM      4  C   UNL     1      -3.294   3.413 -23.643  0.00  0.00    +0.018 A 
ATOM      5  C   UNL     1      -4.381   3.684 -24.302  0.00  0.00    +0.018 A 
ATOM      6  C   UNL     1      -4.362   3.723 -25.601  0.00  0.00    +0.092 A 
ATOM      7  C   UNL     1      -3.255   3.491 -26.242  0.00  0.00    +0.337 A 
ATOM      8  O   UNL     1      -2.167   3.219 -25.583  0.00  0.00    -0.422 OA
ATOM      9  O   UNL     1      -3.236   3.530 -27.541  0.00  0.00    -0.245 OA
ATOM     10  C   UNL     1      -2.186   3.180 -24.284  0.00  0.00    +0.146 A 
ATOM     11  C   UNL     1      -1.099   2.909 -23.626  0.00  0.00    +0.040 A 
ENDROOT
BRANCH   1  13
ATOM     12  C   UNL     1       0.062   1.492 -20.994  0.00  0.00    +0.277 C 
ATOM     13  O   UNL     1      -0.031   2.599 -21.668  0.00  0.00    -0.495 OA
ENDBRANCH   1  13
BRANCH  11  14
ATOM     14  C   UNL     1       0.008   2.677 -24.267  0.00  0.00    +0.076 C 
BRANCH  14  15
ATOM     15  C   UNL     1       0.714   3.667 -24.726  0.00  0.00    +0.150 C 
BRANCH  15  16
ATOM     16  C   UNL     1       1.614   4.228 -23.975  0.00  0.00    +0.087 C 
ATOM     17  C   UNL     1       2.670   3.560 -23.617  0.00  0.00    +0.043 C 
ATOM     18  C   UNL     1       2.043   5.261 -23.313  0.00  0.00    +0.043 C 
BRANCH  16  19
ATOM     19  O   UNL     1       0.913   5.323 -23.953  0.00  0.00    -0.387 OA
ATOM     20  H   UNL     1       0.783   5.606 -23.034  0.00  0.00    +0.210 HD
ENDBRANCH  16  19
ENDBRANCH  15  16
BRANCH  15  21
ATOM     21  O   UNL     1       0.518   4.096 -25.939  0.00  0.00    -0.389 OA
ATOM     22  H   UNL     1      -0.064   3.481 -26.410  0.00  0.00    +0.210 HD
ENDBRANCH  15  21
ENDBRANCH  14  15
ENDBRANCH  11  14
TORSDOF 6
ENDMDL
MODEL 5
REMARK VINA RESULT:    -8.157      1.667      4.633
REMARK INTER + INTRA:          -9.711
REMARK INTER:                 -10.065
REMARK INTRA:                   0.354
REMARK UNBOUND:                 0.592
REMARK  Name = ZINC000000338310
REMARK  9 active torsions:
REMARK  status: ('A' for Active; 'I' for Inactive)
REMARK    1  A    between atoms: C_1  and  O_2
REMARK    2  A    between atoms: O_2  and  C_3
REMARK    3  A    between atoms: C_13  and  C_14
REMARK    4  A    between atoms: C_14  and  C_15
REMARK    5  A    between atoms: C_15  and  O_16
REMARK    6  A    between atoms: C_15  and  C_17
REMARK    7  A    between atoms: C_17  and  C_18
REMARK    8  A    between atoms: C_17  and  C_19
REMARK    9  A    between atoms: C_17  and  O_20
REMARK                            x       y       z     vdW  Elec       q    Type
REMARK                         _______ _______ _______ _____ _____    ______ ____
ROOT
ATOM      1  C   UNL     1      -1.883   3.078 -21.996  0.00  0.00    +0.127 A 
ATOM      2  C   UNL     1      -1.610   2.218 -21.060  0.00  0.00    +0.047 A 
ATOM      3  C   UNL     1      -0.477   1.580 -21.076  0.00  0.00    +0.015 A 
ATOM      4  C   UNL     1       0.382   1.801 -22.026  0.00  0.00    +0.018 A 
ATOM      5  C   UNL     1       1.514   1.163 -22.042  0.00  0.00    +0.018 A 
ATOM      6  C   UNL     1       2.372   1.384 -22.992  0.00  0.00    +0.092 A 
ATOM      7  C   UNL     1       2.098   2.244 -23.928  0.00  0.00    +0.337 A 
ATOM      8  O   UNL     1       0.965   2.884 -23.913  0.00  0.00    -0.422 OA
ATOM      9  O   UNL     1       2.956   2.466 -24.879  0.00  0.00    -0.245 OA
ATOM     10  C   UNL     1       0.107   2.662 -22.962  0.00  0.00    +0.146 A 
ATOM     11  C   UNL     1      -1.025   3.300 -22.947  0.00  0.00    +0.040 A 
ENDROOT
BRANCH   1  13
ATOM     12  C   UNL     1      -4.124   3.069 -21.777  0.00  0.00    +0.277 C 
ATOM     13  O   UNL     1      -3.016   3.717 -21.980  0.00  0.00    -0.495 OA
ENDBRANCH   1  13
BRANCH  11  14
ATOM     14  C   UNL     1      -1.299   4.160 -23.882  0.00  0.00    +0.076 C 
BRANCH  14  15
ATOM     15  C   UNL     1      -1.719   3.748 -25.041  0.00  0.00    +0.150 C 
BRANCH  15  16
ATOM     16  C   UNL     1      -2.993   3.706 -25.293  0.00  0.00    +0.087 C 
ATOM     17  C   UNL     1      -3.714   4.782 -25.183  0.00  0.00    +0.043 C 
ATOM     18  C   UNL     1      -4.049   3.035 -25.648  0.00  0.00    +0.043 C 
BRANCH  16  19
ATOM     19  O   UNL     1      -2.897   2.438 -25.566  0.00  0.00    -0.387 OA
ATOM     20  H   UNL     1      -3.712   1.986 -25.295  0.00  0.00    +0.210 HD
ENDBRANCH  16  19
ENDBRANCH  15  16
BRANCH  15  21
ATOM     21  O   UNL     1      -0.863   3.379 -25.949  0.00  0.00    -0.389 OA
ATOM     22  H   UNL     1      -0.817   2.411 -25.974  0.00  0.00    +0.210 HD
ENDBRANCH  15  21
ENDBRANCH  14  15
ENDBRANCH  11  14
TORSDOF 6
ENDMDL
MODEL 6
REMARK VINA RESULT:    -8.122      1.753      2.494
REMARK INTER + INTRA:          -9.667
REMARK INTER:                 -10.177
REMARK INTRA:                   0.511
REMARK UNBOUND:                 0.592
REMARK  Name = ZINC000000338310
REMARK  9 active torsions:
REMARK  status: ('A' for Active; 'I' for Inactive)
REMARK    1  A    between atoms: C_1  and  O_2
REMARK    2  A    between atoms: O_2  and  C_3
REMARK    3  A    between atoms: C_13  and  C_14
REMARK    4  A    between atoms: C_14  and  C_15
REMARK    5  A    between atoms: C_15  and  O_16
REMARK    6  A    between atoms: C_15  and  C_17
REMARK    7  A    between atoms: C_17  and  C_18
REMARK    8  A    between atoms: C_17  and  C_19
REMARK    9  A    between atoms: C_17  and  O_20
REMARK                            x       y       z     vdW  Elec       q    Type
REMARK                         _______ _______ _______ _____ _____    ______ ____
ROOT
ATOM      1  C   UNL     1       0.847   1.699 -22.240  0.00  0.00    +0.127 A 
ATOM      2  C   UNL     1       0.014   1.525 -21.257  0.00  0.00    +0.047 A 
ATOM      3  C   UNL     1      -1.227   1.890 -21.386  0.00  0.00    +0.015 A 
ATOM      4  C   UNL     1      -1.635   2.428 -22.497  0.00  0.00    +0.018 A 
ATOM      5  C   UNL     1      -2.876   2.792 -22.627  0.00  0.00    +0.018 A 
ATOM      6  C   UNL     1      -3.284   3.330 -23.737  0.00  0.00    +0.092 A 
ATOM      7  C   UNL     1      -2.450   3.503 -24.719  0.00  0.00    +0.337 A 
ATOM      8  O   UNL     1      -1.208   3.139 -24.591  0.00  0.00    -0.422 OA
ATOM      9  O   UNL     1      -2.858   4.041 -25.830  0.00  0.00    -0.245 OA
ATOM     10  C   UNL     1      -0.801   2.601 -23.480  0.00  0.00    +0.146 A 
ATOM     11  C   UNL     1       0.440   2.237 -23.351  0.00  0.00    +0.040 A 
ENDROOT
BRANCH   1  13
ATOM     12  C   UNL     1       2.684   1.450 -20.961  0.00  0.00    +0.277 C 
ATOM     13  O   UNL     1       2.089   1.334 -22.111  0.00  0.00    -0.495 OA
ENDBRANCH   1  13
BRANCH  11  14
ATOM     14  C   UNL     1       1.274   2.410 -24.334  0.00  0.00    +0.076 C 
BRANCH  14  15
ATOM     15  C   UNL     1       1.589   3.612 -24.714  0.00  0.00    +0.150 C 
BRANCH  15  16
ATOM     16  C   UNL     1       2.252   4.394 -23.915  0.00  0.00    +0.087 C 
ATOM     17  C   UNL     1       3.450   4.066 -23.531  0.00  0.00    +0.043 C 
ATOM     18  C   UNL     1       2.327   5.486 -23.214  0.00  0.00    +0.043 C 
BRANCH  16  19
ATOM     19  O   UNL     1       1.252   5.224 -23.897  0.00  0.00    -0.387 OA
ATOM     20  H   UNL     1       0.675   5.019 -23.145  0.00  0.00    +0.210 HD
ENDBRANCH  16  19
ENDBRANCH  15  16
BRANCH  15  21
ATOM     21  O   UNL     1       1.241   4.032 -25.895  0.00  0.00    -0.389 OA
ATOM     22  H   UNL     1       0.550   3.454 -26.253  0.00  0.00    +0.210 HD
ENDBRANCH  15  21
ENDBRANCH  14  15
ENDBRANCH  11  14
TORSDOF 6
ENDMDL
MODEL 7
REMARK VINA RESULT:    -8.105      1.545      5.770
REMARK INTER + INTRA:          -9.645
REMARK INTER:                  -9.898
REMARK INTRA:                   0.253
REMARK UNBOUND:                 0.592
REMARK  Name = ZINC000000338310
REMARK  9 active torsions:
REMARK  status: ('A' for Active; 'I' for Inactive)
REMARK    1  A    between atoms: C_1  and  O_2
REMARK    2  A    between atoms: O_2  and  C_3
REMARK    3  A    between atoms: C_13  and  C_14
REMARK    4  A    between atoms: C_14  and  C_15
REMARK    5  A    between atoms: C_15  and  O_16
REMARK    6  A    between atoms: C_15  and  C_17
REMARK    7  A    between atoms: C_17  and  C_18
REMARK    8  A    between atoms: C_17  and  C_19
REMARK    9  A    between atoms: C_17  and  O_20
REMARK                            x       y       z     vdW  Elec       q    Type
REMARK                         _______ _______ _______ _____ _____    ______ ____
ROOT
ATOM      1  C   UNL     1      -1.482   3.355 -24.794  0.00  0.00    +0.127 A 
ATOM      2  C   UNL     1      -0.488   3.760 -25.527  0.00  0.00    +0.047 A 
ATOM      3  C   UNL     1       0.734   3.576 -25.123  0.00  0.00    +0.015 A 
ATOM      4  C   UNL     1       0.962   2.987 -23.987  0.00  0.00    +0.018 A 
ATOM      5  C   UNL     1       2.183   2.802 -23.582  0.00  0.00    +0.018 A 
ATOM      6  C   UNL     1       2.411   2.213 -22.447  0.00  0.00    +0.092 A 
ATOM      7  C   UNL     1       1.416   1.808 -21.714  0.00  0.00    +0.337 A 
ATOM      8  O   UNL     1       0.193   1.992 -22.118  0.00  0.00    -0.422 OA
ATOM      9  O   UNL     1       1.643   1.219 -20.578  0.00  0.00    -0.245 OA
ATOM     10  C   UNL     1      -0.034   2.582 -23.254  0.00  0.00    +0.146 A 
ATOM     11  C   UNL     1      -1.255   2.766 -23.658  0.00  0.00    +0.040 A 
ENDROOT
BRANCH   1  13
ATOM     12  C   UNL     1      -3.007   3.370 -26.451  0.00  0.00    +0.277 C 
ATOM     13  O   UNL     1      -2.704   3.540 -25.198  0.00  0.00    -0.495 OA
ENDBRANCH   1  13
BRANCH  11  14
ATOM     14  C   UNL     1      -2.250   2.361 -22.925  0.00  0.00    +0.076 C 
BRANCH  14  15
ATOM     15  C   UNL     1      -2.851   3.193 -22.127  0.00  0.00    +0.150 C 
BRANCH  15  16
ATOM     16  C   UNL     1      -4.109   3.029 -21.844  0.00  0.00    +0.087 C 
ATOM     17  C   UNL     1      -4.456   2.313 -20.816  0.00  0.00    +0.043 C 
ATOM     18  C   UNL     1      -5.361   3.253 -22.110  0.00  0.00    +0.043 C 
BRANCH  16  19
ATOM     19  O   UNL     1      -4.435   3.762 -22.867  0.00  0.00    -0.387 OA
ATOM     20  H   UNL     1      -5.323   4.129 -22.732  0.00  0.00    +0.210 HD
ENDBRANCH  16  19
ENDBRANCH  15  16
BRANCH  15  21
ATOM     21  O   UNL     1      -2.192   4.190 -21.613  0.00  0.00    -0.389 OA
ATOM     22  H   UNL     1      -2.761   4.663 -20.986  0.00  0.00    +0.210 HD
ENDBRANCH  15  21
ENDBRANCH  14  15
ENDBRANCH  11  14
TORSDOF 6
ENDMDL
MODEL 8
REMARK VINA RESULT:    -8.018      1.759      3.015
REMARK INTER + INTRA:          -9.535
REMARK INTER:                 -10.127
REMARK INTRA:                   0.592
REMARK UNBOUND:                 0.592
REMARK  Name = ZINC000000338310
REMARK  9 active torsions:
REMARK  status: ('A' for Active; 'I' for Inactive)
REMARK    1  A    between atoms: C_1  and  O_2
REMARK    2  A    between atoms: O_2  and  C_3
REMARK    3  A    between atoms: C_13  and  C_14
REMARK    4  A    between atoms: C_14  and  C_15
REMARK    5  A    between atoms: C_15  and  O_16
REMARK    6  A    between atoms: C_15  and  C_17
REMARK    7  A    between atoms: C_17  and  C_18
REMARK    8  A    between atoms: C_17  and  C_19
REMARK    9  A    between atoms: C_17  and  O_20
REMARK                            x       y       z     vdW  Elec       q    Type
REMARK                         _______ _______ _______ _____ _____    ______ ____
ROOT
ATOM      1  C   UNL     1      -3.226   3.690 -21.817  0.00  0.00    +0.127 A 
ATOM      2  C   UNL     1      -4.524   3.646 -21.775  0.00  0.00    +0.047 A 
ATOM      3  C   UNL     1      -5.208   3.585 -22.880  0.00  0.00    +0.015 A 
ATOM      4  C   UNL     1      -4.593   3.568 -24.025  0.00  0.00    +0.018 A 
ATOM      5  C   UNL     1      -5.276   3.507 -25.130  0.00  0.00    +0.018 A 
ATOM      6  C   UNL     1      -4.661   3.491 -26.275  0.00  0.00    +0.092 A 
ATOM      7  C   UNL     1      -3.362   3.535 -26.315  0.00  0.00    +0.337 A 
ATOM      8  O   UNL     1      -2.678   3.596 -25.211  0.00  0.00    -0.422 OA
ATOM      9  O   UNL     1      -2.747   3.518 -27.460  0.00  0.00    -0.245 OA
ATOM     10  C   UNL     1      -3.294   3.612 -24.066  0.00  0.00    +0.146 A 
ATOM     11  C   UNL     1      -2.610   3.673 -22.962  0.00  0.00    +0.040 A 
ENDROOT
BRANCH   1  13
ATOM     12  C   UNL     1      -3.151   3.668 -19.567  0.00  0.00    +0.277 C 
ATOM     13  O   UNL     1      -2.543   3.750 -20.712  0.00  0.00    -0.495 OA
ENDBRANCH   1  13
BRANCH  11  14
ATOM     14  C   UNL     1      -1.312   3.717 -23.003  0.00  0.00    +0.076 C 
BRANCH  14  15
ATOM     15  C   UNL     1      -0.632   2.633 -23.232  0.00  0.00    +0.150 C 
BRANCH  15  16
ATOM     16  C   UNL     1      -0.037   2.019 -22.253  0.00  0.00    +0.087 C 
ATOM     17  C   UNL     1      -0.692   1.159 -21.532  0.00  0.00    +0.043 C 
ATOM     18  C   UNL     1       1.028   1.807 -21.538  0.00  0.00    +0.043 C 
BRANCH  16  19
ATOM     19  O   UNL     1       1.063   2.658 -22.520  0.00  0.00    -0.387 OA
ATOM     20  H   UNL     1       1.160   3.405 -21.908  0.00  0.00    +0.210 HD
ENDBRANCH  16  19
ENDBRANCH  15  16
BRANCH  15  21
ATOM     21  O   UNL     1      -0.546   2.164 -24.443  0.00  0.00    -0.389 OA
ATOM     22  H   UNL     1      -0.547   1.195 -24.414  0.00  0.00    +0.210 HD
ENDBRANCH  15  21
ENDBRANCH  14  15
ENDBRANCH  11  14
TORSDOF 6
ENDMDL
MODEL 9
REMARK VINA RESULT:    -7.936      3.082      5.390
REMARK INTER + INTRA:          -9.432
REMARK INTER:                  -9.852
REMARK INTRA:                   0.420
REMARK UNBOUND:                 0.592
REMARK  Name = ZINC000000338310
REMARK  9 active torsions:
REMARK  status: ('A' for Active; 'I' for Inactive)
REMARK    1  A    between atoms: C_1  and  O_2
REMARK    2  A    between atoms: O_2  and  C_3
REMARK    3  A    between atoms: C_13  and  C_14
REMARK    4  A    between atoms: C_14  and  C_15
REMARK    5  A    between atoms: C_15  and  O_16
REMARK    6  A    between atoms: C_15  and  C_17
REMARK    7  A    between atoms: C_17  and  C_18
REMARK    8  A    between atoms: C_17  and  C_19
REMARK    9  A    between atoms: C_17  and  O_20
REMARK                            x       y       z     vdW  Elec       q    Type
REMARK                         _______ _______ _______ _____ _____    ______ ____
ROOT
ATOM      1  C   UNL     1       3.960   3.734 -23.494  0.00  0.00    +0.127 A 
ATOM      2  C   UNL     1       3.651   4.967 -23.222  0.00  0.00    +0.047 A 
ATOM      3  C   UNL     1       2.402   5.318 -23.131  0.00  0.00    +0.015 A 
ATOM      4  C   UNL     1       1.464   4.437 -23.313  0.00  0.00    +0.018 A 
ATOM      5  C   UNL     1       0.215   4.787 -23.223  0.00  0.00    +0.018 A 
ATOM      6  C   UNL     1      -0.723   3.907 -23.405  0.00  0.00    +0.092 A 
ATOM      7  C   UNL     1      -0.412   2.674 -23.677  0.00  0.00    +0.337 A 
ATOM      8  O   UNL     1       0.837   2.322 -23.768  0.00  0.00    -0.422 OA
ATOM      9  O   UNL     1      -1.350   1.792 -23.859  0.00  0.00    -0.245 OA
ATOM     10  C   UNL     1       1.775   3.204 -23.586  0.00  0.00    +0.146 A 
ATOM     11  C   UNL     1       3.023   2.853 -23.676  0.00  0.00    +0.040 A 
ENDROOT
BRANCH   1  13
ATOM     12  C   UNL     1       6.147   4.251 -23.344  0.00  0.00    +0.277 C 
ATOM     13  O   UNL     1       5.209   3.383 -23.585  0.00  0.00    -0.495 OA
ENDBRANCH   1  13
BRANCH  11  14
ATOM     14  C   UNL     1       3.333   1.620 -23.949  0.00  0.00    +0.076 C 
BRANCH  14  15
ATOM     15  C   UNL     1       3.229   0.705 -23.031  0.00  0.00    +0.150 C 
BRANCH  15  16
ATOM     16  C   UNL     1       3.925   0.800 -21.937  0.00  0.00    +0.087 C 
ATOM     17  C   UNL     1       3.342   1.124 -20.822  0.00  0.00    +0.043 C 
ATOM     18  C   UNL     1       5.065   0.722 -21.318  0.00  0.00    +0.043 C 
BRANCH  16  19
ATOM     19  O   UNL     1       5.001   0.480 -22.593  0.00  0.00    -0.387 OA
ATOM     20  H   UNL     1       4.942  -0.445 -22.879  0.00  0.00    +0.210 HD
ENDBRANCH  16  19
ENDBRANCH  15  16
BRANCH  15  21
ATOM     21  O   UNL     1       2.429  -0.305 -23.208  0.00  0.00    -0.389 OA
ATOM     22  H   UNL     1       2.943  -1.081 -23.476  0.00  0.00    +0.210 HD
ENDBRANCH  15  21
ENDBRANCH  14  15
ENDBRANCH  11  14
TORSDOF 6
ENDMDL
