MODEL 1
REMARK VINA RESULT:   -12.747      0.000      0.000
REMARK INTER + INTRA:         -13.120
REMARK INTER:                 -13.120
REMARK INTRA:                   0.000
REMARK UNBOUND:                 0.000
REMARK  Name = ZINC000004104647
REMARK  4 active torsions:
REMARK  status: ('A' for Active; 'I' for Inactive)
REMARK    1  A    between atoms: C_1  and  C_2
REMARK    2  A    between atoms: C_2  and  O_3
REMARK    3  A    between atoms: C_17  and  C_18
REMARK    4  A    between atoms: C_22  and  C_23
REMARK                            x       y       z     vdW  Elec       q    Type
REMARK                         _______ _______ _______ _____ _____    ______ ____
ROOT
ATOM      1  C   UNL     1      -5.175   4.081 -24.096  0.00  0.00    +0.042 C 
ATOM      2  C   UNL     1      -4.943   3.530 -22.945  0.00  0.00    +0.069 C 
ATOM      3  C   UNL     1      -5.034   3.033 -21.745  0.00  0.00    +0.035 C 
ATOM      4  C   UNL     1      -3.854   2.610 -21.391  0.00  0.00    +0.007 C 
ATOM      5  C   UNL     1      -3.032   2.846 -22.374  0.00  0.00    +0.002 C 
ATOM      6  C   UNL     1      -1.762   2.617 -22.519  0.00  0.00    +0.004 C 
ATOM      7  C   UNL     1      -1.088   2.048 -21.559  0.00  0.00    +0.083 C 
ATOM      8  C   UNL     1       0.184   1.821 -21.708  0.00  0.00    +0.160 C 
ATOM      9  C   UNL     1       0.785   2.161 -22.812  0.00  0.00    +0.004 C 
ATOM     10  C   UNL     1       2.056   1.933 -22.959  0.00  0.00    +0.053 C 
ATOM     11  C   UNL     1       2.658   2.272 -24.064  0.00  0.00    +0.157 C 
ATOM     12  C   UNL     1       1.981   2.841 -25.021  0.00  0.00    +0.080 C 
ATOM     13  C   UNL     1       0.709   3.069 -24.874  0.00  0.00    +0.019 C 
ATOM     14  O   UNL     1       3.929   2.045 -24.211  0.00  0.00    -0.293 OA
ATOM     15  C   UNL     1       0.109   2.729 -23.769  0.00  0.00    -0.000 C 
ATOM     16  C   UNL     1      -0.565   3.297 -24.726  0.00  0.00    +0.016 C 
ATOM     17  O   UNL     1       0.860   1.253 -20.750  0.00  0.00    -0.292 OA
ATOM     18  C   UNL     1      -1.164   2.957 -23.621  0.00  0.00    +0.003 C 
ATOM     19  C   UNL     1      -1.838   3.524 -24.578  0.00  0.00    +0.005 C 
ATOM     20  C   UNL     1      -3.106   3.754 -24.437  0.00  0.00    +0.010 C 
ATOM     21  C   UNL     1      -3.701   3.414 -23.335  0.00  0.00    -0.000 C 
ATOM     22  C   UNL     1      -4.416   3.964 -24.229  0.00  0.00    +0.014 C 
ENDROOT
BRANCH   2  23
ATOM     23  O   UNL     1      -6.214   3.746 -22.771  0.00  0.00    -0.388 OA
ATOM     24  H   UNL     1      -6.476   3.446 -21.887  0.00  0.00    +0.210 HD
ENDBRANCH   2  23
TORSDOF 1
ENDMDL
MODEL 2
REMARK VINA RESULT:   -12.598      1.088      2.631
REMARK INTER + INTRA:         -12.966
REMARK INTER:                 -12.966
REMARK INTRA:                   0.000
REMARK UNBOUND:                 0.000
REMARK  Name = ZINC000004104647
REMARK  4 active torsions:
REMARK  status: ('A' for Active; 'I' for Inactive)
REMARK    1  A    between atoms: C_1  and  C_2
REMARK    2  A    between atoms: C_2  and  O_3
REMARK    3  A    between atoms: C_17  and  C_18
REMARK    4  A    between atoms: C_22  and  C_23
REMARK                            x       y       z     vdW  Elec       q    Type
REMARK                         _______ _______ _______ _____ _____    ______ ____
ROOT
ATOM      1  C   UNL     1      -4.925   2.889 -21.420  0.00  0.00    +0.042 C 
ATOM      2  C   UNL     1      -4.683   3.397 -22.589  0.00  0.00    +0.069 C 
ATOM      3  C   UNL     1      -4.762   3.984 -23.748  0.00  0.00    +0.035 C 
ATOM      4  C   UNL     1      -3.584   3.947 -24.303  0.00  0.00    +0.007 C 
ATOM      5  C   UNL     1      -2.775   3.335 -23.486  0.00  0.00    +0.002 C 
ATOM      6  C   UNL     1      -1.513   3.045 -23.568  0.00  0.00    +0.004 C 
ATOM      7  C   UNL     1      -0.832   3.384 -24.627  0.00  0.00    +0.083 C 
ATOM      8  C   UNL     1       0.432   3.091 -24.706  0.00  0.00    +0.160 C 
ATOM      9  C   UNL     1       1.020   2.460 -23.730  0.00  0.00    +0.004 C 
ATOM     10  C   UNL     1       2.284   2.168 -23.811  0.00  0.00    +0.053 C 
ATOM     11  C   UNL     1       2.873   1.536 -22.834  0.00  0.00    +0.157 C 
ATOM     12  C   UNL     1       2.190   1.199 -21.777  0.00  0.00    +0.080 C 
ATOM     13  C   UNL     1       0.925   1.491 -21.697  0.00  0.00    +0.019 C 
ATOM     14  O   UNL     1       4.137   1.245 -22.915  0.00  0.00    -0.293 OA
ATOM     15  C   UNL     1       0.338   2.122 -22.674  0.00  0.00    -0.000 C 
ATOM     16  C   UNL     1      -0.342   1.784 -21.617  0.00  0.00    +0.016 C 
ATOM     17  O   UNL     1       1.114   3.429 -25.763  0.00  0.00    -0.292 OA
ATOM     18  C   UNL     1      -0.927   2.415 -22.594  0.00  0.00    +0.003 C 
ATOM     19  C   UNL     1      -1.607   2.077 -21.537  0.00  0.00    +0.005 C 
ATOM     20  C   UNL     1      -2.868   2.365 -21.452  0.00  0.00    +0.010 C 
ATOM     21  C   UNL     1      -3.450   2.994 -22.426  0.00  0.00    -0.000 C 
ATOM     22  C   UNL     1      -4.170   2.693 -21.424  0.00  0.00    +0.014 C 
ENDROOT
BRANCH   2  23
ATOM     23  O   UNL     1      -5.946   3.701 -22.535  0.00  0.00    -0.388 OA
ATOM     24  H   UNL     1      -6.286   3.517 -21.644  0.00  0.00    +0.210 HD
ENDBRANCH   2  23
TORSDOF 1
ENDMDL
MODEL 3
REMARK VINA RESULT:   -11.908      1.131      6.282
REMARK INTER + INTRA:         -12.256
REMARK INTER:                 -12.256
REMARK INTRA:                   0.000
REMARK UNBOUND:                 0.000
REMARK  Name = ZINC000004104647
REMARK  4 active torsions:
REMARK  status: ('A' for Active; 'I' for Inactive)
REMARK    1  A    between atoms: C_1  and  C_2
REMARK    2  A    between atoms: C_2  and  O_3
REMARK    3  A    between atoms: C_17  and  C_18
REMARK    4  A    between atoms: C_22  and  C_23
REMARK                            x       y       z     vdW  Elec       q    Type
REMARK                         _______ _______ _______ _____ _____    ______ ____
ROOT
ATOM      1  C   UNL     1       2.787   1.314 -21.822  0.00  0.00    +0.042 C 
ATOM      2  C   UNL     1       2.597   1.840 -22.993  0.00  0.00    +0.069 C 
ATOM      3  C   UNL     1       2.731   2.308 -24.200  0.00  0.00    +0.035 C 
ATOM      4  C   UNL     1       1.567   2.733 -24.601  0.00  0.00    +0.007 C 
ATOM      5  C   UNL     1       0.712   2.527 -23.641  0.00  0.00    +0.002 C 
ATOM      6  C   UNL     1      -0.560   2.769 -23.542  0.00  0.00    +0.004 C 
ATOM      7  C   UNL     1      -1.198   3.322 -24.536  0.00  0.00    +0.083 C 
ATOM      8  C   UNL     1      -2.472   3.563 -24.433  0.00  0.00    +0.160 C 
ATOM      9  C   UNL     1      -3.111   3.254 -23.342  0.00  0.00    +0.004 C 
ATOM     10  C   UNL     1      -4.384   3.496 -23.241  0.00  0.00    +0.053 C 
ATOM     11  C   UNL     1      -5.024   3.187 -22.148  0.00  0.00    +0.157 C 
ATOM     12  C   UNL     1      -4.383   2.635 -21.157  0.00  0.00    +0.080 C 
ATOM     13  C   UNL     1      -3.109   2.393 -21.258  0.00  0.00    +0.019 C 
ATOM     14  O   UNL     1      -6.297   3.429 -22.048  0.00  0.00    -0.293 OA
ATOM     15  C   UNL     1      -2.471   2.702 -22.351  0.00  0.00    -0.000 C 
ATOM     16  C   UNL     1      -1.833   2.151 -21.360  0.00  0.00    +0.016 C 
ATOM     17  O   UNL     1      -3.112   4.115 -25.425  0.00  0.00    -0.292 OA
ATOM     18  C   UNL     1      -1.196   2.461 -22.452  0.00  0.00    +0.003 C 
ATOM     19  C   UNL     1      -0.559   1.910 -21.461  0.00  0.00    +0.005 C 
ATOM     20  C   UNL     1       0.711   1.666 -21.556  0.00  0.00    +0.010 C 
ATOM     21  C   UNL     1       1.344   1.975 -22.645  0.00  0.00    -0.000 C 
ATOM     22  C   UNL     1       2.025   1.440 -21.717  0.00  0.00    +0.014 C 
ENDROOT
BRANCH   2  23
ATOM     23  O   UNL     1       3.871   1.609 -23.120  0.00  0.00    -0.388 OA
ATOM     24  H   UNL     1       4.313   1.754 -22.269  0.00  0.00    +0.210 HD
ENDBRANCH   2  23
TORSDOF 1
ENDMDL
MODEL 4
REMARK VINA RESULT:   -10.978      1.257      5.742
REMARK INTER + INTRA:         -11.299
REMARK INTER:                 -11.299
REMARK INTRA:                   0.000
REMARK UNBOUND:                 0.000
REMARK  Name = ZINC000004104647
REMARK  4 active torsions:
REMARK  status: ('A' for Active; 'I' for Inactive)
REMARK    1  A    between atoms: C_1  and  C_2
REMARK    2  A    between atoms: C_2  and  O_3
REMARK    3  A    between atoms: C_17  and  C_18
REMARK    4  A    between atoms: C_22  and  C_23
REMARK                            x       y       z     vdW  Elec       q    Type
REMARK                         _______ _______ _______ _____ _____    ______ ____
ROOT
ATOM      1  C   UNL     1       3.524   2.154 -24.062  0.00  0.00    +0.042 C 
ATOM      2  C   UNL     1       3.029   1.765 -22.928  0.00  0.00    +0.069 C 
ATOM      3  C   UNL     1       2.845   1.282 -21.734  0.00  0.00    +0.035 C 
ATOM      4  C   UNL     1       1.586   1.424 -21.428  0.00  0.00    +0.007 C 
ATOM      5  C   UNL     1       0.991   1.995 -22.435  0.00  0.00    +0.002 C 
ATOM      6  C   UNL     1      -0.243   2.350 -22.628  0.00  0.00    +0.004 C 
ATOM      7  C   UNL     1      -1.135   2.139 -21.702  0.00  0.00    +0.083 C 
ATOM      8  C   UNL     1      -2.370   2.496 -21.899  0.00  0.00    +0.160 C 
ATOM      9  C   UNL     1      -2.717   3.063 -23.019  0.00  0.00    +0.004 C 
ATOM     10  C   UNL     1      -3.951   3.419 -23.214  0.00  0.00    +0.053 C 
ATOM     11  C   UNL     1      -4.300   3.987 -24.335  0.00  0.00    +0.157 C 
ATOM     12  C   UNL     1      -3.405   4.196 -25.259  0.00  0.00    +0.080 C 
ATOM     13  C   UNL     1      -2.169   3.839 -25.063  0.00  0.00    +0.019 C 
ATOM     14  O   UNL     1      -5.534   4.342 -24.530  0.00  0.00    -0.293 OA
ATOM     15  C   UNL     1      -1.823   3.273 -23.943  0.00  0.00    -0.000 C 
ATOM     16  C   UNL     1      -0.932   3.482 -24.867  0.00  0.00    +0.016 C 
ATOM     17  O   UNL     1      -3.264   2.287 -20.975  0.00  0.00    -0.292 OA
ATOM     18  C   UNL     1      -0.587   2.916 -23.746  0.00  0.00    +0.003 C 
ATOM     19  C   UNL     1       0.304   3.126 -24.670  0.00  0.00    +0.005 C 
ATOM     20  C   UNL     1       1.537   2.773 -24.481  0.00  0.00    +0.010 C 
ATOM     21  C   UNL     1       1.878   2.208 -23.364  0.00  0.00    -0.000 C 
ATOM     22  C   UNL     1       2.796   2.384 -24.224  0.00  0.00    +0.014 C 
ENDROOT
BRANCH   2  23
ATOM     23  O   UNL     1       4.257   1.399 -22.706  0.00  0.00    -0.388 OA
ATOM     24  H   UNL     1       4.773   1.487 -23.523  0.00  0.00    +0.210 HD
ENDBRANCH   2  23
TORSDOF 1
ENDMDL
MODEL 5
REMARK VINA RESULT:   -10.700      1.621      6.473
REMARK INTER + INTRA:         -11.012
REMARK INTER:                 -11.012
REMARK INTRA:                   0.000
REMARK UNBOUND:                 0.000
REMARK  Name = ZINC000004104647
REMARK  4 active torsions:
REMARK  status: ('A' for Active; 'I' for Inactive)
REMARK    1  A    between atoms: C_1  and  C_2
REMARK    2  A    between atoms: C_2  and  O_3
REMARK    3  A    between atoms: C_17  and  C_18
REMARK    4  A    between atoms: C_22  and  C_23
REMARK                            x       y       z     vdW  Elec       q    Type
REMARK                         _______ _______ _______ _____ _____    ______ ____
ROOT
ATOM      1  C   UNL     1       3.859   0.982 -21.954  0.00  0.00    +0.042 C 
ATOM      2  C   UNL     1       3.753   1.951 -22.809  0.00  0.00    +0.069 C 
ATOM      3  C   UNL     1       3.971   2.872 -23.703  0.00  0.00    +0.035 C 
ATOM      4  C   UNL     1       2.840   3.466 -23.959  0.00  0.00    +0.007 C 
ATOM      5  C   UNL     1       1.920   2.911 -23.221  0.00  0.00    +0.002 C 
ATOM      6  C   UNL     1       0.647   3.136 -23.105  0.00  0.00    +0.004 C 
ATOM      7  C   UNL     1       0.081   4.072 -23.815  0.00  0.00    +0.083 C 
ATOM      8  C   UNL     1      -1.194   4.294 -23.695  0.00  0.00    +0.160 C 
ATOM      9  C   UNL     1      -1.907   3.584 -22.868  0.00  0.00    +0.004 C 
ATOM     10  C   UNL     1      -3.182   3.808 -22.750  0.00  0.00    +0.053 C 
ATOM     11  C   UNL     1      -3.897   3.098 -21.923  0.00  0.00    +0.157 C 
ATOM     12  C   UNL     1      -3.329   2.163 -21.215  0.00  0.00    +0.080 C 
ATOM     13  C   UNL     1      -2.053   1.940 -21.334  0.00  0.00    +0.019 C 
ATOM     14  O   UNL     1      -5.172   3.321 -21.805  0.00  0.00    -0.293 OA
ATOM     15  C   UNL     1      -1.340   2.650 -22.161  0.00  0.00    -0.000 C 
ATOM     16  C   UNL     1      -0.775   1.716 -21.453  0.00  0.00    +0.016 C 
ATOM     17  O   UNL     1      -1.761   5.229 -24.403  0.00  0.00    -0.292 OA
ATOM     18  C   UNL     1      -0.064   2.427 -22.280  0.00  0.00    +0.003 C 
ATOM     19  C   UNL     1       0.502   1.493 -21.572  0.00  0.00    +0.005 C 
ATOM     20  C   UNL     1       1.772   1.266 -21.686  0.00  0.00    +0.010 C 
ATOM     21  C   UNL     1       2.480   1.975 -22.510  0.00  0.00    -0.000 C 
ATOM     22  C   UNL     1       3.093   1.080 -21.849  0.00  0.00    +0.014 C 
ENDROOT
BRANCH   2  23
ATOM     23  O   UNL     1       5.030   1.749 -22.948  0.00  0.00    -0.388 OA
ATOM     24  H   UNL     1       5.260   1.768 -23.890  0.00  0.00    +0.210 HD
ENDBRANCH   2  23
TORSDOF 1
ENDMDL
MODEL 6
REMARK VINA RESULT:   -10.686      2.206      3.347
REMARK INTER + INTRA:         -10.998
REMARK INTER:                 -10.998
REMARK INTRA:                   0.000
REMARK UNBOUND:                 0.000
REMARK  Name = ZINC000004104647
REMARK  4 active torsions:
REMARK  status: ('A' for Active; 'I' for Inactive)
REMARK    1  A    between atoms: C_1  and  C_2
REMARK    2  A    between atoms: C_2  and  O_3
REMARK    3  A    between atoms: C_17  and  C_18
REMARK    4  A    between atoms: C_22  and  C_23
REMARK                            x       y       z     vdW  Elec       q    Type
REMARK                         _______ _______ _______ _____ _____    ______ ____
ROOT
ATOM      1  C   UNL     1      -1.913   4.756 -23.656  0.00  0.00    +0.042 C 
ATOM      2  C   UNL     1      -1.859   3.600 -23.071  0.00  0.00    +0.069 C 
ATOM      3  C   UNL     1      -2.134   2.461 -22.505  0.00  0.00    +0.035 C 
ATOM      4  C   UNL     1      -1.011   1.885 -22.182  0.00  0.00    +0.007 C 
ATOM      5  C   UNL     1      -0.039   2.670 -22.549  0.00  0.00    +0.002 C 
ATOM      6  C   UNL     1       1.251   2.559 -22.455  0.00  0.00    +0.004 C 
ATOM      7  C   UNL     1       1.777   1.500 -21.906  0.00  0.00    +0.083 C 
ATOM      8  C   UNL     1       3.069   1.392 -21.814  0.00  0.00    +0.160 C 
ATOM      9  C   UNL     1       3.839   2.338 -22.268  0.00  0.00    +0.004 C 
ATOM     10  C   UNL     1       5.131   2.228 -22.175  0.00  0.00    +0.053 C 
ATOM     11  C   UNL     1       5.903   3.175 -22.630  0.00  0.00    +0.157 C 
ATOM     12  C   UNL     1       5.374   4.232 -23.179  0.00  0.00    +0.080 C 
ATOM     13  C   UNL     1       4.082   4.342 -23.272  0.00  0.00    +0.019 C 
ATOM     14  O   UNL     1       7.195   3.065 -22.537  0.00  0.00    -0.293 OA
ATOM     15  C   UNL     1       3.312   3.395 -22.817  0.00  0.00    -0.000 C 
ATOM     16  C   UNL     1       2.787   4.451 -23.365  0.00  0.00    +0.016 C 
ATOM     17  O   UNL     1       3.596   0.334 -21.265  0.00  0.00    -0.292 OA
ATOM     18  C   UNL     1       2.019   3.504 -22.909  0.00  0.00    +0.003 C 
ATOM     19  C   UNL     1       1.493   4.561 -23.458  0.00  0.00    +0.005 C 
ATOM     20  C   UNL     1       0.206   4.675 -23.553  0.00  0.00    +0.010 C 
ATOM     21  C   UNL     1      -0.558   3.730 -23.099  0.00  0.00    -0.000 C 
ATOM     22  C   UNL     1      -1.134   4.734 -23.622  0.00  0.00    +0.014 C 
ENDROOT
BRANCH   2  23
ATOM     23  O   UNL     1      -3.154   3.684 -23.151  0.00  0.00    -0.388 OA
ATOM     24  H   UNL     1      -3.402   4.569 -23.460  0.00  0.00    +0.210 HD
ENDBRANCH   2  23
TORSDOF 1
ENDMDL
MODEL 7
REMARK VINA RESULT:   -10.342      2.037      6.454
REMARK INTER + INTRA:         -10.644
REMARK INTER:                 -10.644
REMARK INTRA:                   0.000
REMARK UNBOUND:                 0.000
REMARK  Name = ZINC000004104647
REMARK  4 active torsions:
REMARK  status: ('A' for Active; 'I' for Inactive)
REMARK    1  A    between atoms: C_1  and  C_2
REMARK    2  A    between atoms: C_2  and  O_3
REMARK    3  A    between atoms: C_17  and  C_18
REMARK    4  A    between atoms: C_22  and  C_23
REMARK                            x       y       z     vdW  Elec       q    Type
REMARK                         _______ _______ _______ _____ _____    ______ ____
ROOT
ATOM      1  C   UNL     1       5.536   3.792 -23.077  0.00  0.00    +0.042 C 
ATOM      2  C   UNL     1       5.156   2.776 -22.366  0.00  0.00    +0.069 C 
ATOM      3  C   UNL     1       5.100   1.719 -21.609  0.00  0.00    +0.035 C 
ATOM      4  C   UNL     1       3.847   1.401 -21.448  0.00  0.00    +0.007 C 
ATOM      5  C   UNL     1       3.127   2.263 -22.107  0.00  0.00    +0.002 C 
ATOM      6  C   UNL     1       1.843   2.384 -22.263  0.00  0.00    +0.004 C 
ATOM      7  C   UNL     1       1.033   1.535 -21.696  0.00  0.00    +0.083 C 
ATOM      8  C   UNL     1      -0.251   1.660 -21.855  0.00  0.00    +0.160 C 
ATOM      9  C   UNL     1      -0.730   2.631 -22.579  0.00  0.00    +0.004 C 
ATOM     10  C   UNL     1      -2.014   2.754 -22.737  0.00  0.00    +0.053 C 
ATOM     11  C   UNL     1      -2.494   3.726 -23.462  0.00  0.00    +0.157 C 
ATOM     12  C   UNL     1      -1.681   4.573 -24.027  0.00  0.00    +0.080 C 
ATOM     13  C   UNL     1      -0.396   4.449 -23.869  0.00  0.00    +0.019 C 
ATOM     14  O   UNL     1      -3.778   3.849 -23.619  0.00  0.00    -0.293 OA
ATOM     15  C   UNL     1       0.082   3.478 -23.145  0.00  0.00    -0.000 C 
ATOM     16  C   UNL     1       0.891   4.325 -23.710  0.00  0.00    +0.016 C 
ATOM     17  O   UNL     1      -1.063   0.812 -21.289  0.00  0.00    -0.292 OA
ATOM     18  C   UNL     1       1.367   3.354 -22.986  0.00  0.00    +0.003 C 
ATOM     19  C   UNL     1       2.176   4.201 -23.552  0.00  0.00    +0.005 C 
ATOM     20  C   UNL     1       3.458   4.082 -23.397  0.00  0.00    +0.010 C 
ATOM     21  C   UNL     1       3.931   3.114 -22.676  0.00  0.00    -0.000 C 
ATOM     22  C   UNL     1       4.774   3.906 -23.200  0.00  0.00    +0.014 C 
ENDROOT
BRANCH   2  23
ATOM     23  O   UNL     1       6.436   2.629 -22.192  0.00  0.00    -0.388 OA
ATOM     24  H   UNL     1       6.609   2.355 -21.277  0.00  0.00    +0.210 HD
ENDBRANCH   2  23
TORSDOF 1
ENDMDL
