MODEL 1
REMARK VINA RESULT:   -10.983      0.000      0.000
REMARK INTER + INTRA:         -12.069
REMARK INTER:                 -11.953
REMARK INTRA:                  -0.115
REMARK UNBOUND:                -0.122
REMARK  Name = COc1ccc2c3c1O[C@@H]1[C@@H](O)C=C[C@H]4[C@H](C2)N(C=O)CC[C@]314       ZINC000100393482
REMARK  3 active torsions:
REMARK  status: ('A' for Active; 'I' for Inactive)
REMARK    1  A    between atoms: C_1  and  O_2
REMARK    2  A    between atoms: O_2  and  C_3
REMARK    3  A    between atoms: C_11  and  O_12
REMARK                            x       y       z     vdW  Elec       q    Type
REMARK                         _______ _______ _______ _____ _____    ______ ____
ROOT
ATOM      1  C   UNL     1       0.859   2.653 -23.983  0.00  0.00    +0.162 A 
ATOM      2  C   UNL     1       0.998   2.185 -22.815  0.00  0.00    +0.050 A 
ATOM      3  C   UNL     1       0.013   2.084 -22.052  0.00  0.00    +0.008 A 
ATOM      4  C   UNL     1      -1.118   2.449 -22.445  0.00  0.00    -0.038 A 
ATOM      5  C   UNL     1      -1.280   2.918 -23.602  0.00  0.00    +0.012 A 
ATOM      6  C   UNL     1      -2.410   3.281 -23.989  0.00  0.00    +0.049 C 
ATOM      7  C   UNL     1      -3.648   3.726 -24.541  0.00  0.00    +0.035 C 
ATOM      8  C   UNL     1      -4.777   3.625 -23.703  0.00  0.00    +0.109 C 
ATOM      9  N   UNL     1      -4.584   3.099 -22.408  0.00  0.00    -0.300 N 
ATOM     10  C   UNL     1      -5.536   2.971 -21.588  0.00  0.00    +0.328 C 
ATOM     11  O   UNL     1      -6.700   3.312 -21.903  0.00  0.00    -0.279 OA
ATOM     12  C   UNL     1      -3.257   2.714 -22.062  0.00  0.00    +0.088 C 
ATOM     13  C   UNL     1      -3.398   3.182 -23.228  0.00  0.00    +0.046 C 
ATOM     14  C   UNL     1      -4.543   3.549 -23.621  0.00  0.00    -0.022 C 
ATOM     15  C   UNL     1      -4.686   4.013 -24.774  0.00  0.00    +0.004 C 
ATOM     16  C   UNL     1      -3.696   4.118 -25.552  0.00  0.00    +0.178 C 
ATOM     17  C   UNL     1      -2.565   3.752 -25.159  0.00  0.00    +0.217 C 
ATOM     18  O   UNL     1      -1.099   3.600 -25.497  0.00  0.00    -0.481 OA
ATOM     19  C   UNL     1      -2.126   2.349 -21.670  0.00  0.00    +0.058 C 
ATOM     20  C   UNL     1      -0.287   3.021 -24.376  0.00  0.00    +0.167 A 
ENDROOT
BRANCH   1  22
ATOM     21  C   UNL     1       2.736   1.870 -24.735  0.00  0.00    +0.277 C 
ATOM     22  O   UNL     1       1.847   2.751 -24.743  0.00  0.00    -0.491 OA
ENDBRANCH   1  22
BRANCH  16  23
ATOM     23  O   UNL     1      -3.844   4.581 -26.703  0.00  0.00    -0.384 OA
ATOM     24  H   UNL     1      -3.104   5.173 -26.911  0.00  0.00    +0.210 HD
ENDBRANCH  16  23
TORSDOF 2
ENDMDL
MODEL 2
REMARK VINA RESULT:   -10.626      1.941      5.313
REMARK INTER + INTRA:         -11.680
REMARK INTER:                 -11.574
REMARK INTRA:                  -0.106
REMARK UNBOUND:                -0.122
REMARK  Name = COc1ccc2c3c1O[C@@H]1[C@@H](O)C=C[C@H]4[C@H](C2)N(C=O)CC[C@]314       ZINC000100393482
REMARK  3 active torsions:
REMARK  status: ('A' for Active; 'I' for Inactive)
REMARK    1  A    between atoms: C_1  and  O_2
REMARK    2  A    between atoms: O_2  and  C_3
REMARK    3  A    between atoms: C_11  and  O_12
REMARK                            x       y       z     vdW  Elec       q    Type
REMARK                         _______ _______ _______ _____ _____    ______ ____
ROOT
ATOM      1  C   UNL     1      -3.533   3.496 -22.987  0.00  0.00    +0.162 A 
ATOM      2  C   UNL     1      -3.713   2.864 -21.905  0.00  0.00    +0.050 A 
ATOM      3  C   UNL     1      -2.774   2.227 -21.380  0.00  0.00    +0.008 A 
ATOM      4  C   UNL     1      -1.649   2.213 -21.929  0.00  0.00    -0.038 A 
ATOM      5  C   UNL     1      -1.447   2.833 -23.005  0.00  0.00    +0.012 A 
ATOM      6  C   UNL     1      -0.323   2.815 -23.548  0.00  0.00    +0.049 C 
ATOM      7  C   UNL     1       0.913   2.869 -24.259  0.00  0.00    +0.035 C 
ATOM      8  C   UNL     1       1.991   2.159 -23.691  0.00  0.00    +0.109 C 
ATOM      9  N   UNL     1       1.753   1.467 -22.484  0.00  0.00    -0.300 N 
ATOM     10  C   UNL     1       2.657   0.805 -21.903  0.00  0.00    +0.328 C 
ATOM     11  O   UNL     1       3.812   0.740 -22.386  0.00  0.00    -0.279 OA
ATOM     12  C   UNL     1       0.437   1.549 -21.945  0.00  0.00    +0.088 C 
ATOM     13  C   UNL     1       0.619   2.179 -23.026  0.00  0.00    +0.046 C 
ATOM     14  C   UNL     1       1.758   2.162 -23.577  0.00  0.00    -0.022 C 
ATOM     15  C   UNL     1       1.941   2.783 -24.646  0.00  0.00    +0.004 C 
ATOM     16  C   UNL     1       0.997   3.430 -25.184  0.00  0.00    +0.178 C 
ATOM     17  C   UNL     1      -0.128   3.444 -24.635  0.00  0.00    +0.217 C 
ATOM     18  O   UNL     1      -1.554   3.942 -24.692  0.00  0.00    -0.481 OA
ATOM     19  C   UNL     1      -0.688   1.564 -21.397  0.00  0.00    +0.058 C 
ATOM     20  C   UNL     1      -2.393   3.478 -23.539  0.00  0.00    +0.167 A 
ENDROOT
BRANCH   1  22
ATOM     21  C   UNL     1      -4.944   3.769 -24.610  0.00  0.00    +0.277 C 
ATOM     22  O   UNL     1      -4.475   4.132 -23.508  0.00  0.00    -0.491 OA
ENDBRANCH   1  22
BRANCH  16  23
ATOM     23  O   UNL     1       1.186   4.050 -26.252  0.00  0.00    -0.384 OA
ATOM     24  H   UNL     1       2.125   4.284 -26.329  0.00  0.00    +0.210 HD
ENDBRANCH  16  23
TORSDOF 2
ENDMDL
MODEL 3
REMARK VINA RESULT:   -10.588      1.024      1.311
REMARK INTER + INTRA:         -11.638
REMARK INTER:                 -11.494
REMARK INTRA:                  -0.145
REMARK UNBOUND:                -0.122
REMARK  Name = COc1ccc2c3c1O[C@@H]1[C@@H](O)C=C[C@H]4[C@H](C2)N(C=O)CC[C@]314       ZINC000100393482
REMARK  3 active torsions:
REMARK  status: ('A' for Active; 'I' for Inactive)
REMARK    1  A    between atoms: C_1  and  O_2
REMARK    2  A    between atoms: O_2  and  C_3
REMARK    3  A    between atoms: C_11  and  O_12
REMARK                            x       y       z     vdW  Elec       q    Type
REMARK                         _______ _______ _______ _____ _____    ______ ____
ROOT
ATOM      1  C   UNL     1       1.737   1.871 -22.910  0.00  0.00    +0.162 A 
ATOM      2  C   UNL     1       1.621   1.586 -21.682  0.00  0.00    +0.050 A 
ATOM      3  C   UNL     1       0.517   1.698 -21.107  0.00  0.00    +0.008 A 
ATOM      4  C   UNL     1      -0.481   2.094 -21.751  0.00  0.00    -0.038 A 
ATOM      5  C   UNL     1      -0.390   2.384 -22.972  0.00  0.00    +0.012 A 
ATOM      6  C   UNL     1      -1.389   2.779 -23.609  0.00  0.00    +0.049 C 
ATOM      7  C   UNL     1      -2.455   3.239 -24.437  0.00  0.00    +0.035 C 
ATOM      8  C   UNL     1      -3.713   3.375 -23.816  0.00  0.00    +0.109 C 
ATOM      9  N   UNL     1      -3.804   3.048 -22.447  0.00  0.00    -0.300 N 
ATOM     10  C   UNL     1      -4.889   3.139 -21.808  0.00  0.00    +0.328 C 
ATOM     11  O   UNL     1      -5.936   3.529 -22.377  0.00  0.00    -0.279 OA
ATOM     12  C   UNL     1      -2.609   2.607 -21.811  0.00  0.00    +0.088 C 
ATOM     13  C   UNL     1      -2.496   2.892 -23.037  0.00  0.00    +0.046 C 
ATOM     14  C   UNL     1      -3.507   3.293 -23.683  0.00  0.00    -0.022 C 
ATOM     15  C   UNL     1      -3.398   3.576 -24.896  0.00  0.00    +0.004 C 
ATOM     16  C   UNL     1      -2.285   3.466 -25.485  0.00  0.00    +0.178 C 
ATOM     17  C   UNL     1      -1.287   3.069 -24.842  0.00  0.00    +0.217 C 
ATOM     18  O   UNL     1       0.186   2.734 -24.878  0.00  0.00    -0.481 OA
ATOM     19  C   UNL     1      -1.611   2.210 -21.168  0.00  0.00    +0.058 C 
ATOM     20  C   UNL     1       0.724   2.272 -23.557  0.00  0.00    +0.167 A 
ENDROOT
BRANCH   1  22
ATOM     21  C   UNL     1       3.677   2.688 -23.424  0.00  0.00    +0.277 C 
ATOM     22  O   UNL     1       2.844   1.757 -23.481  0.00  0.00    -0.491 OA
ENDBRANCH   1  22
BRANCH  16  23
ATOM     23  O   UNL     1      -2.183   3.750 -26.697  0.00  0.00    -0.384 OA
ATOM     24  H   UNL     1      -1.289   3.530 -27.007  0.00  0.00    +0.210 HD
ENDBRANCH  16  23
TORSDOF 2
ENDMDL
MODEL 4
REMARK VINA RESULT:   -10.483      1.810      3.208
REMARK INTER + INTRA:         -11.524
REMARK INTER:                 -11.416
REMARK INTRA:                  -0.109
REMARK UNBOUND:                -0.122
REMARK  Name = COc1ccc2c3c1O[C@@H]1[C@@H](O)C=C[C@H]4[C@H](C2)N(C=O)CC[C@]314       ZINC000100393482
REMARK  3 active torsions:
REMARK  status: ('A' for Active; 'I' for Inactive)
REMARK    1  A    between atoms: C_1  and  O_2
REMARK    2  A    between atoms: O_2  and  C_3
REMARK    3  A    between atoms: C_11  and  O_12
REMARK                            x       y       z     vdW  Elec       q    Type
REMARK                         _______ _______ _______ _____ _____    ______ ____
ROOT
ATOM      1  C   UNL     1       1.327   1.673 -22.171  0.00  0.00    +0.162 A 
ATOM      2  C   UNL     1       1.862   2.076 -23.244  0.00  0.00    +0.050 A 
ATOM      3  C   UNL     1       1.183   2.680 -24.103  0.00  0.00    +0.008 A 
ATOM      4  C   UNL     1      -0.035   2.887 -23.899  0.00  0.00    -0.038 A 
ATOM      5  C   UNL     1      -0.589   2.495 -22.839  0.00  0.00    +0.012 A 
ATOM      6  C   UNL     1      -1.804   2.704 -22.642  0.00  0.00    +0.049 C 
ATOM      7  C   UNL     1      -3.178   2.884 -22.305  0.00  0.00    +0.035 C 
ATOM      8  C   UNL     1      -3.970   3.562 -23.255  0.00  0.00    +0.109 C 
ATOM      9  N   UNL     1      -3.338   3.997 -24.439  0.00  0.00    -0.300 N 
ATOM     10  C   UNL     1      -3.966   4.611 -25.346  0.00  0.00    +0.328 C 
ATOM     11  O   UNL     1      -5.189   4.859 -25.221  0.00  0.00    -0.279 OA
ATOM     12  C   UNL     1      -1.950   3.710 -24.570  0.00  0.00    +0.088 C 
ATOM     13  C   UNL     1      -2.486   3.308 -23.499  0.00  0.00    +0.046 C 
ATOM     14  C   UNL     1      -3.718   3.519 -23.297  0.00  0.00    -0.022 C 
ATOM     15  C   UNL     1      -4.252   3.123 -22.238  0.00  0.00    +0.004 C 
ATOM     16  C   UNL     1      -3.573   2.512 -21.365  0.00  0.00    +0.178 C 
ATOM     17  C   UNL     1      -2.355   2.305 -21.569  0.00  0.00    +0.217 C 
ATOM     18  O   UNL     1      -1.069   1.712 -21.038  0.00  0.00    -0.481 OA
ATOM     19  C   UNL     1      -0.732   3.503 -24.773  0.00  0.00    +0.058 C 
ATOM     20  C   UNL     1       0.094   1.885 -21.969  0.00  0.00    +0.167 A 
ENDROOT
BRANCH   1  22
ATOM     21  C   UNL     1       3.194   0.754 -21.566  0.00  0.00    +0.277 C 
ATOM     22  O   UNL     1       2.010   1.070 -21.315  0.00  0.00    -0.491 OA
ENDBRANCH   1  22
BRANCH  16  23
ATOM     23  O   UNL     1      -4.112   2.118 -20.309  0.00  0.00    -0.384 OA
ATOM     24  H   UNL     1      -3.634   1.344 -19.971  0.00  0.00    +0.210 HD
ENDBRANCH  16  23
TORSDOF 2
ENDMDL
MODEL 5
REMARK VINA RESULT:   -10.324      2.014      5.858
REMARK INTER + INTRA:         -11.352
REMARK INTER:                 -11.228
REMARK INTRA:                  -0.124
REMARK UNBOUND:                -0.122
REMARK  Name = COc1ccc2c3c1O[C@@H]1[C@@H](O)C=C[C@H]4[C@H](C2)N(C=O)CC[C@]314       ZINC000100393482
REMARK  3 active torsions:
REMARK  status: ('A' for Active; 'I' for Inactive)
REMARK    1  A    between atoms: C_1  and  O_2
REMARK    2  A    between atoms: O_2  and  C_3
REMARK    3  A    between atoms: C_11  and  O_12
REMARK                            x       y       z     vdW  Elec       q    Type
REMARK                         _______ _______ _______ _____ _____    ______ ____
ROOT
ATOM      1  C   UNL     1      -4.584   3.351 -22.374  0.00  0.00    +0.162 A 
ATOM      2  C   UNL     1      -4.843   3.834 -23.515  0.00  0.00    +0.050 A 
ATOM      3  C   UNL     1      -3.949   3.921 -24.384  0.00  0.00    +0.008 A 
ATOM      4  C   UNL     1      -2.789   3.527 -24.123  0.00  0.00    -0.038 A 
ATOM      5  C   UNL     1      -2.508   3.044 -22.996  0.00  0.00    +0.012 A 
ATOM      6  C   UNL     1      -1.350   2.653 -22.742  0.00  0.00    +0.049 C 
ATOM      7  C   UNL     1      -0.068   2.176 -22.337  0.00  0.00    +0.035 C 
ATOM      8  C   UNL     1       0.961   2.261 -23.296  0.00  0.00    +0.109 C 
ATOM      9  N   UNL     1       0.636   2.805 -24.557  0.00  0.00    -0.300 N 
ATOM     10  C   UNL     1       1.491   2.921 -25.478  0.00  0.00    +0.328 C 
ATOM     11  O   UNL     1       2.676   2.551 -25.299  0.00  0.00    -0.279 OA
ATOM     12  C   UNL     1      -0.713   3.221 -24.748  0.00  0.00    +0.088 C 
ATOM     13  C   UNL     1      -0.452   2.739 -23.609  0.00  0.00    +0.046 C 
ATOM     14  C   UNL     1       0.722   2.342 -23.351  0.00  0.00    -0.022 C 
ATOM     15  C   UNL     1       0.983   1.864 -22.225  0.00  0.00    +0.004 C 
ATOM     16  C   UNL     1       0.085   1.773 -21.341  0.00  0.00    +0.178 C 
ATOM     17  C   UNL     1      -1.075   2.166 -21.601  0.00  0.00    +0.217 C 
ATOM     18  O   UNL     1      -2.489   2.346 -21.098  0.00  0.00    -0.481 OA
ATOM     19  C   UNL     1      -1.873   3.614 -25.007  0.00  0.00    +0.058 C 
ATOM     20  C   UNL     1      -3.409   2.954 -22.115  0.00  0.00    +0.167 A 
ENDROOT
BRANCH   1  22
ATOM     21  C   UNL     1      -6.544   2.655 -21.763  0.00  0.00    +0.277 C 
ATOM     22  O   UNL     1      -5.482   3.266 -21.508  0.00  0.00    -0.491 OA
ENDBRANCH   1  22
BRANCH  16  23
ATOM     23  O   UNL     1       0.352   1.294 -20.218  0.00  0.00    -0.384 OA
ATOM     24  H   UNL     1       0.357   0.325 -20.272  0.00  0.00    +0.210 HD
ENDBRANCH  16  23
TORSDOF 2
ENDMDL
MODEL 6
REMARK VINA RESULT:   -10.075      2.980      6.736
REMARK INTER + INTRA:         -11.080
REMARK INTER:                 -10.961
REMARK INTRA:                  -0.120
REMARK UNBOUND:                -0.122
REMARK  Name = COc1ccc2c3c1O[C@@H]1[C@@H](O)C=C[C@H]4[C@H](C2)N(C=O)CC[C@]314       ZINC000100393482
REMARK  3 active torsions:
REMARK  status: ('A' for Active; 'I' for Inactive)
REMARK    1  A    between atoms: C_1  and  O_2
REMARK    2  A    between atoms: O_2  and  C_3
REMARK    3  A    between atoms: C_11  and  O_12
REMARK                            x       y       z     vdW  Elec       q    Type
REMARK                         _______ _______ _______ _____ _____    ______ ____
ROOT
ATOM      1  C   UNL     1      -1.739   3.312 -23.155  0.00  0.00    +0.162 A 
ATOM      2  C   UNL     1      -1.777   4.573 -23.252  0.00  0.00    +0.050 A 
ATOM      3  C   UNL     1      -0.719   5.239 -23.281  0.00  0.00    +0.008 A 
ATOM      4  C   UNL     1       0.385   4.653 -23.213  0.00  0.00    -0.038 A 
ATOM      5  C   UNL     1       0.447   3.399 -23.116  0.00  0.00    +0.012 A 
ATOM      6  C   UNL     1       1.552   2.821 -23.049  0.00  0.00    +0.049 C 
ATOM      7  C   UNL     1       2.749   2.050 -22.966  0.00  0.00    +0.035 C 
ATOM      8  C   UNL     1       3.960   2.773 -22.996  0.00  0.00    +0.109 C 
ATOM      9  N   UNL     1       3.878   4.178 -23.104  0.00  0.00    -0.300 N 
ATOM     10  C   UNL     1       4.908   4.907 -23.139  0.00  0.00    +0.328 C 
ATOM     11  O   UNL     1       6.053   4.400 -23.076  0.00  0.00    -0.279 OA
ATOM     12  C   UNL     1       2.573   4.743 -23.175  0.00  0.00    +0.088 C 
ATOM     13  C   UNL     1       2.613   3.483 -23.078  0.00  0.00    +0.046 C 
ATOM     14  C   UNL     1       3.731   2.895 -23.010  0.00  0.00    -0.022 C 
ATOM     15  C   UNL     1       3.775   1.649 -22.914  0.00  0.00    +0.004 C 
ATOM     16  C   UNL     1       2.709   0.969 -22.884  0.00  0.00    +0.178 C 
ATOM     17  C   UNL     1       1.605   1.555 -22.951  0.00  0.00    +0.217 C 
ATOM     18  O   UNL     1       0.100   1.413 -22.972  0.00  0.00    -0.481 OA
ATOM     19  C   UNL     1       1.468   5.327 -23.242  0.00  0.00    +0.058 C 
ATOM     20  C   UNL     1      -0.620   2.724 -23.087  0.00  0.00    +0.167 A 
ENDROOT
BRANCH   1  22
ATOM     21  C   UNL     1      -3.737   2.999 -22.373  0.00  0.00    +0.277 C 
ATOM     22  O   UNL     1      -2.800   2.651 -23.127  0.00  0.00    -0.491 OA
ENDBRANCH   1  22
BRANCH  16  23
ATOM     23  O   UNL     1       2.759  -0.276 -22.788  0.00  0.00    -0.384 OA
ATOM     24  H   UNL     1       3.686  -0.561 -22.754  0.00  0.00    +0.210 HD
ENDBRANCH  16  23
TORSDOF 2
ENDMDL
MODEL 7
REMARK VINA RESULT:    -9.750      1.641      4.985
REMARK INTER + INTRA:         -10.727
REMARK INTER:                 -10.604
REMARK INTRA:                  -0.123
REMARK UNBOUND:                -0.122
REMARK  Name = COc1ccc2c3c1O[C@@H]1[C@@H](O)C=C[C@H]4[C@H](C2)N(C=O)CC[C@]314       ZINC000100393482
REMARK  3 active torsions:
REMARK  status: ('A' for Active; 'I' for Inactive)
REMARK    1  A    between atoms: C_1  and  O_2
REMARK    2  A    between atoms: O_2  and  C_3
REMARK    3  A    between atoms: C_11  and  O_12
REMARK                            x       y       z     vdW  Elec       q    Type
REMARK                         _______ _______ _______ _____ _____    ______ ____
ROOT
ATOM      1  C   UNL     1      -4.803   3.223 -21.876  0.00  0.00    +0.162 A 
ATOM      2  C   UNL     1      -4.399   2.967 -20.705  0.00  0.00    +0.050 A 
ATOM      3  C   UNL     1      -3.185   2.768 -20.483  0.00  0.00    +0.008 A 
ATOM      4  C   UNL     1      -2.364   2.822 -21.426  0.00  0.00    -0.038 A 
ATOM      5  C   UNL     1      -2.743   3.075 -22.599  0.00  0.00    +0.012 A 
ATOM      6  C   UNL     1      -1.919   3.128 -23.536  0.00  0.00    +0.049 C 
ATOM      7  C   UNL     1      -1.075   3.215 -24.683  0.00  0.00    +0.035 C 
ATOM      8  C   UNL     1       0.300   2.995 -24.464  0.00  0.00    +0.109 C 
ATOM      9  N   UNL     1       0.714   2.712 -23.145  0.00  0.00    -0.300 N 
ATOM     10  C   UNL     1       1.924   2.501 -22.853  0.00  0.00    +0.328 C 
ATOM     11  O   UNL     1       2.811   2.537 -23.739  0.00  0.00    -0.279 OA
ATOM     12  C   UNL     1      -0.301   2.674 -22.147  0.00  0.00    +0.088 C 
ATOM     13  C   UNL     1      -0.703   2.929 -23.318  0.00  0.00    +0.046 C 
ATOM     14  C   UNL     1       0.131   2.983 -24.269  0.00  0.00    -0.022 C 
ATOM     15  C   UNL     1      -0.263   3.236 -25.428  0.00  0.00    +0.004 C 
ATOM     16  C   UNL     1      -1.489   3.439 -25.661  0.00  0.00    +0.178 C 
ATOM     17  C   UNL     1      -2.310   3.384 -24.718  0.00  0.00    +0.217 C 
ATOM     18  O   UNL     1      -3.757   3.503 -24.295  0.00  0.00    -0.481 OA
ATOM     19  C   UNL     1      -1.123   2.620 -21.205  0.00  0.00    +0.058 C 
ATOM     20  C   UNL     1      -3.968   3.277 -22.828  0.00  0.00    +0.167 A 
ENDROOT
BRANCH   1  22
ATOM     21  C   UNL     1      -6.867   2.579 -21.727  0.00  0.00    +0.277 C 
ATOM     22  O   UNL     1      -6.018   3.421 -22.094  0.00  0.00    -0.491 OA
ENDBRANCH   1  22
BRANCH  16  23
ATOM     23  O   UNL     1      -1.876   3.691 -26.822  0.00  0.00    -0.384 OA
ATOM     24  H   UNL     1      -2.828   3.880 -26.811  0.00  0.00    +0.210 HD
ENDBRANCH  16  23
TORSDOF 2
ENDMDL
MODEL 8
REMARK VINA RESULT:    -9.728      2.092      3.534
REMARK INTER + INTRA:         -10.703
REMARK INTER:                 -10.555
REMARK INTRA:                  -0.148
REMARK UNBOUND:                -0.122
REMARK  Name = COc1ccc2c3c1O[C@@H]1[C@@H](O)C=C[C@H]4[C@H](C2)N(C=O)CC[C@]314       ZINC000100393482
REMARK  3 active torsions:
REMARK  status: ('A' for Active; 'I' for Inactive)
REMARK    1  A    between atoms: C_1  and  O_2
REMARK    2  A    between atoms: O_2  and  C_3
REMARK    3  A    between atoms: C_11  and  O_12
REMARK                            x       y       z     vdW  Elec       q    Type
REMARK                         _______ _______ _______ _____ _____    ______ ____
ROOT
ATOM      1  C   UNL     1       3.695   1.735 -21.874  0.00  0.00    +0.162 A 
ATOM      2  C   UNL     1       3.219   1.231 -20.816  0.00  0.00    +0.050 A 
ATOM      3  C   UNL     1       1.984   1.221 -20.618  0.00  0.00    +0.008 A 
ATOM      4  C   UNL     1       1.214   1.714 -21.474  0.00  0.00    -0.038 A 
ATOM      5  C   UNL     1       1.665   2.220 -22.534  0.00  0.00    +0.012 A 
ATOM      6  C   UNL     1       0.892   2.710 -23.384  0.00  0.00    +0.049 C 
ATOM      7  C   UNL     1       0.112   3.296 -24.424  0.00  0.00    +0.035 C 
ATOM      8  C   UNL     1      -1.285   3.300 -24.229  0.00  0.00    +0.109 C 
ATOM      9  N   UNL     1      -1.779   2.729 -23.037  0.00  0.00    -0.300 N 
ATOM     10  C   UNL     1      -3.014   2.688 -22.777  0.00  0.00    +0.328 C 
ATOM     11  O   UNL     1      -3.853   3.158 -23.581  0.00  0.00    -0.279 OA
ATOM     12  C   UNL     1      -0.817   2.198 -22.132  0.00  0.00    +0.088 C 
ATOM     13  C   UNL     1      -0.344   2.702 -23.190  0.00  0.00    +0.046 C 
ATOM     14  C   UNL     1      -1.126   3.198 -24.052  0.00  0.00    -0.022 C 
ATOM     15  C   UNL     1      -0.661   3.697 -25.100  0.00  0.00    +0.004 C 
ATOM     16  C   UNL     1       0.586   3.712 -25.307  0.00  0.00    +0.178 C 
ATOM     17  C   UNL     1       1.356   3.219 -24.452  0.00  0.00    +0.217 C 
ATOM     18  O   UNL     1       2.786   2.918 -24.065  0.00  0.00    -0.481 OA
ATOM     19  C   UNL     1      -0.047   1.706 -21.277  0.00  0.00    +0.058 C 
ATOM     20  C   UNL     1       2.912   2.232 -22.737  0.00  0.00    +0.167 A 
ENDROOT
BRANCH   1  22
ATOM     21  C   UNL     1       5.604   2.758 -21.781  0.00  0.00    +0.277 C 
ATOM     22  O   UNL     1       4.930   1.743 -22.067  0.00  0.00    -0.491 OA
ENDBRANCH   1  22
BRANCH  16  23
ATOM     23  O   UNL     1       1.045   4.212 -26.356  0.00  0.00    -0.384 OA
ATOM     24  H   UNL     1       0.313   4.503 -26.923  0.00  0.00    +0.210 HD
ENDBRANCH  16  23
TORSDOF 2
ENDMDL
MODEL 9
REMARK VINA RESULT:    -9.142      2.873      6.253
REMARK INTER + INTRA:         -10.066
REMARK INTER:                  -9.944
REMARK INTRA:                  -0.122
REMARK UNBOUND:                -0.122
REMARK  Name = COc1ccc2c3c1O[C@@H]1[C@@H](O)C=C[C@H]4[C@H](C2)N(C=O)CC[C@]314       ZINC000100393482
REMARK  3 active torsions:
REMARK  status: ('A' for Active; 'I' for Inactive)
REMARK    1  A    between atoms: C_1  and  O_2
REMARK    2  A    between atoms: O_2  and  C_3
REMARK    3  A    between atoms: C_11  and  O_12
REMARK                            x       y       z     vdW  Elec       q    Type
REMARK                         _______ _______ _______ _____ _____    ______ ____
ROOT
ATOM      1  C   UNL     1      -2.072   3.132 -22.259  0.00  0.00    +0.162 A 
ATOM      2  C   UNL     1      -2.106   1.920 -21.895  0.00  0.00    +0.050 A 
ATOM      3  C   UNL     1      -1.052   1.255 -21.804  0.00  0.00    +0.008 A 
ATOM      4  C   UNL     1       0.046   1.791 -22.076  0.00  0.00    -0.038 A 
ATOM      5  C   UNL     1       0.105   2.994 -22.440  0.00  0.00    +0.012 A 
ATOM      6  C   UNL     1       1.204   3.524 -22.710  0.00  0.00    +0.049 C 
ATOM      7  C   UNL     1       2.394   4.235 -23.044  0.00  0.00    +0.035 C 
ATOM      8  C   UNL     1       3.600   3.510 -22.952  0.00  0.00    +0.109 C 
ATOM      9  N   UNL     1       3.522   2.162 -22.542  0.00  0.00    -0.300 N 
ATOM     10  C   UNL     1       4.549   1.435 -22.431  0.00  0.00    +0.328 C 
ATOM     11  O   UNL     1       5.687   1.895 -22.684  0.00  0.00    -0.279 OA
ATOM     12  C   UNL     1       2.224   1.651 -22.258  0.00  0.00    +0.088 C 
ATOM     13  C   UNL     1       2.261   2.861 -22.621  0.00  0.00    +0.046 C 
ATOM     14  C   UNL     1       3.373   3.399 -22.895  0.00  0.00    -0.022 C 
ATOM     15  C   UNL     1       3.414   4.596 -23.256  0.00  0.00    +0.004 C 
ATOM     16  C   UNL     1       2.353   5.276 -23.349  0.00  0.00    +0.178 C 
ATOM     17  C   UNL     1       1.254   4.739 -23.077  0.00  0.00    +0.217 C 
ATOM     18  O   UNL     1      -0.244   4.913 -22.975  0.00  0.00    -0.481 OA
ATOM     19  C   UNL     1       1.125   1.116 -21.986  0.00  0.00    +0.058 C 
ATOM     20  C   UNL     1      -0.958   3.670 -22.533  0.00  0.00    +0.167 A 
ENDROOT
BRANCH   1  22
ATOM     21  C   UNL     1      -4.089   3.355 -23.019  0.00  0.00    +0.277 C 
ATOM     22  O   UNL     1      -3.129   3.793 -22.347  0.00  0.00    -0.491 OA
ENDBRANCH   1  22
BRANCH  16  23
ATOM     23  O   UNL     1       2.399   6.471 -23.710  0.00  0.00    -0.384 OA
ATOM     24  H   UNL     1       3.268   6.657 -24.101  0.00  0.00    +0.210 HD
ENDBRANCH  16  23
TORSDOF 2
ENDMDL
