MODEL 1
REMARK VINA RESULT:   -10.549      0.000      0.000
REMARK INTER + INTRA:         -12.409
REMARK INTER:                 -13.084
REMARK INTRA:                   0.675
REMARK UNBOUND:                 0.916
REMARK  Name = COCO[C@@H]1C=C2[C@H]3Cc4ccc(OC)c5c4[C@@]2(CCN3C)[C@@](C)(O5)[C@@H]1O ZINC000253505471
REMARK  9 active torsions:
REMARK  status: ('A' for Active; 'I' for Inactive)
REMARK    1  A    between atoms: C_1  and  O_2
REMARK    2  A    between atoms: O_2  and  C_3
REMARK    3  A    between atoms: C_3  and  O_4
REMARK    4  A    between atoms: O_4  and  C_5
REMARK    5  A    between atoms: C_13  and  O_14
REMARK    6  A    between atoms: O_14  and  C_15
REMARK    7  A    between atoms: N_21  and  C_22
REMARK    8  A    between atoms: C_23  and  C_24
REMARK    9  A    between atoms: C_26  and  O_27
REMARK                            x       y       z     vdW  Elec       q    Type
REMARK                         _______ _______ _______ _____ _____    ______ ____
ROOT
ATOM      1  C   UNL     1       0.963   2.203 -22.656  0.00  0.00    +0.176 C 
ATOM      2  C   UNL     1       0.594   2.729 -23.738  0.00  0.00    +0.013 C 
ATOM      3  C   UNL     1      -0.626   3.033 -23.915  0.00  0.00    -0.009 C 
ATOM      4  C   UNL     1      -0.992   3.565 -25.011  0.00  0.00    +0.096 C 
ATOM      5  C   UNL     1      -2.200   3.866 -25.187  0.00  0.00    +0.094 C 
ATOM      6  C   UNL     1      -3.057   3.638 -24.266  0.00  0.00    -0.034 A 
ATOM      7  C   UNL     1      -4.268   3.940 -24.442  0.00  0.00    +0.008 A 
ATOM      8  C   UNL     1      -5.108   3.715 -23.534  0.00  0.00    +0.050 A 
ATOM      9  C   UNL     1      -4.746   3.184 -22.438  0.00  0.00    +0.162 A 
ATOM     10  C   UNL     1      -3.521   2.879 -22.263  0.00  0.00    +0.167 A 
ATOM     11  O   UNL     1      -2.493   2.292 -21.330  0.00  0.00    -0.478 OA
ATOM     12  C   UNL     1      -1.091   2.273 -21.909  0.00  0.00    +0.150 C 
ATOM     13  C   UNL     1      -1.009   1.771 -20.758  0.00  0.00    +0.060 C 
ATOM     14  C   UNL     1      -2.676   3.108 -23.181  0.00  0.00    +0.016 A 
ATOM     15  N   UNL     1       0.403   3.261 -24.913  0.00  0.00    +0.239 N 
ATOM     16  H   UNL     1       1.058   3.457 -25.669  0.00  0.00    +0.204 HD
ATOM     17  C   UNL     1       1.198   3.509 -25.853  0.00  0.00    +0.191 C 
ATOM     18  C   UNL     1       0.846   2.667 -23.704  0.00  0.00    +0.133 C 
ATOM     19  C   UNL     1      -0.125   2.425 -22.698  0.00  0.00    +0.071 C 
ATOM     20  C   UNL     1      -1.469   2.808 -23.008  0.00  0.00    +0.072 C 
ATOM     21  C   UNL     1       0.118   1.973 -21.737  0.00  0.00    +0.192 C 
ENDROOT
BRANCH   9  22
ATOM     22  O   UNL     1      -5.589   2.960 -21.533  0.00  0.00    -0.491 OA
ATOM     23  C   UNL     1      -6.741   2.553 -21.831  0.00  0.00    +0.277 C 
ENDBRANCH   9  22
BRANCH  21  24
ATOM     24  O   UNL     1       0.489   1.446 -20.655  0.00  0.00    -0.385 OA
ATOM     25  H   UNL     1      -0.062   0.671 -20.468  0.00  0.00    +0.210 HD
ENDBRANCH  21  24
BRANCH   1  26
ATOM     26  O   UNL     1       2.173   1.903 -22.486  0.00  0.00    -0.344 OA
BRANCH  26  27
ATOM     27  C   UNL     1       2.594   0.762 -22.811  0.00  0.00    +0.323 C 
BRANCH  27  29
ATOM     28  C   UNL     1       3.819   0.365 -21.052  0.00  0.00    +0.196 C 
ATOM     29  O   UNL     1       3.007  -0.033 -21.926  0.00  0.00    -0.357 OA
ENDBRANCH  27  29
ENDBRANCH  26  27
ENDBRANCH   1  26
TORSDOF 5
ENDMDL
MODEL 2
REMARK VINA RESULT:   -10.196      1.932      3.215
REMARK INTER + INTRA:         -11.963
REMARK INTER:                 -12.785
REMARK INTRA:                   0.822
REMARK UNBOUND:                 0.916
REMARK  Name = COCO[C@@H]1C=C2[C@H]3Cc4ccc(OC)c5c4[C@@]2(CCN3C)[C@@](C)(O5)[C@@H]1O ZINC000253505471
REMARK  9 active torsions:
REMARK  status: ('A' for Active; 'I' for Inactive)
REMARK    1  A    between atoms: C_1  and  O_2
REMARK    2  A    between atoms: O_2  and  C_3
REMARK    3  A    between atoms: C_3  and  O_4
REMARK    4  A    between atoms: O_4  and  C_5
REMARK    5  A    between atoms: C_13  and  O_14
REMARK    6  A    between atoms: O_14  and  C_15
REMARK    7  A    between atoms: N_21  and  C_22
REMARK    8  A    between atoms: C_23  and  C_24
REMARK    9  A    between atoms: C_26  and  O_27
REMARK                            x       y       z     vdW  Elec       q    Type
REMARK                         _______ _______ _______ _____ _____    ______ ____
ROOT
ATOM      1  C   UNL     1       1.748   2.682 -24.070  0.00  0.00    +0.176 C 
ATOM      2  C   UNL     1       1.414   2.259 -22.933  0.00  0.00    +0.013 C 
ATOM      3  C   UNL     1       0.204   2.336 -22.555  0.00  0.00    -0.009 C 
ATOM      4  C   UNL     1      -0.128   1.906 -21.405  0.00  0.00    +0.096 C 
ATOM      5  C   UNL     1      -1.325   1.982 -21.030  0.00  0.00    +0.094 C 
ATOM      6  C   UNL     1      -2.207   2.490 -21.805  0.00  0.00    -0.034 A 
ATOM      7  C   UNL     1      -3.408   2.566 -21.430  0.00  0.00    +0.008 A 
ATOM      8  C   UNL     1      -4.272   3.066 -22.194  0.00  0.00    +0.050 A 
ATOM      9  C   UNL     1      -3.944   3.496 -23.344  0.00  0.00    +0.162 A 
ATOM     10  C   UNL     1      -2.730   3.418 -23.720  0.00  0.00    +0.167 A 
ATOM     11  O   UNL     1      -1.734   3.693 -24.818  0.00  0.00    -0.478 OA
ATOM     12  C   UNL     1      -0.320   3.265 -24.473  0.00  0.00    +0.150 C 
ATOM     13  C   UNL     1      -0.273   3.754 -25.632  0.00  0.00    +0.060 C 
ATOM     14  C   UNL     1      -1.860   2.913 -22.947  0.00  0.00    +0.016 A 
ATOM     15  N   UNL     1       1.260   1.773 -21.733  0.00  0.00    +0.239 N 
ATOM     16  H   UNL     1       1.935   1.362 -21.089  0.00  0.00    +0.204 HD
ATOM     17  C   UNL     1       2.080   1.264 -20.929  0.00  0.00    +0.191 C 
ATOM     18  C   UNL     1       1.664   2.242 -23.009  0.00  0.00    +0.133 C 
ATOM     19  C   UNL     1       0.666   2.801 -23.848  0.00  0.00    +0.071 C 
ATOM     20  C   UNL     1      -0.663   2.836 -23.318  0.00  0.00    +0.072 C 
ATOM     21  C   UNL     1       0.879   3.188 -24.845  0.00  0.00    +0.192 C 
ENDROOT
BRANCH   9  22
ATOM     22  O   UNL     1      -4.812   3.995 -24.104  0.00  0.00    -0.491 OA
ATOM     23  C   UNL     1      -4.860   3.656 -25.315  0.00  0.00    +0.277 C 
ENDBRANCH   9  22
BRANCH  21  24
ATOM     24  O   UNL     1       1.216   3.610 -25.982  0.00  0.00    -0.385 OA
ATOM     25  H   UNL     1       1.771   4.399 -25.881  0.00  0.00    +0.210 HD
ENDBRANCH  21  24
BRANCH   1  26
ATOM     26  O   UNL     1       2.949   2.603 -24.439  0.00  0.00    -0.344 OA
BRANCH  26  27
ATOM     27  C   UNL     1       3.844   3.234 -23.817  0.00  0.00    +0.323 C 
BRANCH  27  29
ATOM     28  C   UNL     1       5.360   2.434 -22.469  0.00  0.00    +0.196 C 
ATOM     29  O   UNL     1       4.973   2.708 -23.635  0.00  0.00    -0.357 OA
ENDBRANCH  27  29
ENDBRANCH  26  27
ENDBRANCH   1  26
TORSDOF 5
ENDMDL
MODEL 3
REMARK VINA RESULT:   -10.103      2.023      6.415
REMARK INTER + INTRA:         -11.846
REMARK INTER:                 -12.497
REMARK INTRA:                   0.651
REMARK UNBOUND:                 0.916
REMARK  Name = COCO[C@@H]1C=C2[C@H]3Cc4ccc(OC)c5c4[C@@]2(CCN3C)[C@@](C)(O5)[C@@H]1O ZINC000253505471
REMARK  9 active torsions:
REMARK  status: ('A' for Active; 'I' for Inactive)
REMARK    1  A    between atoms: C_1  and  O_2
REMARK    2  A    between atoms: O_2  and  C_3
REMARK    3  A    between atoms: C_3  and  O_4
REMARK    4  A    between atoms: O_4  and  C_5
REMARK    5  A    between atoms: C_13  and  O_14
REMARK    6  A    between atoms: O_14  and  C_15
REMARK    7  A    between atoms: N_21  and  C_22
REMARK    8  A    between atoms: C_23  and  C_24
REMARK    9  A    between atoms: C_26  and  O_27
REMARK                            x       y       z     vdW  Elec       q    Type
REMARK                         _______ _______ _______ _____ _____    ______ ____
ROOT
ATOM      1  C   UNL     1      -1.385   3.352 -24.478  0.00  0.00    +0.176 C 
ATOM      2  C   UNL     1      -1.554   2.867 -23.330  0.00  0.00    +0.013 C 
ATOM      3  C   UNL     1      -0.557   2.454 -22.659  0.00  0.00    -0.009 C 
ATOM      4  C   UNL     1      -0.735   1.964 -21.499  0.00  0.00    +0.096 C 
ATOM      5  C   UNL     1       0.250   1.555 -20.835  0.00  0.00    +0.094 C 
ATOM      6  C   UNL     1       1.428   1.631 -21.326  0.00  0.00    -0.034 A 
ATOM      7  C   UNL     1       2.417   1.221 -20.660  0.00  0.00    +0.008 A 
ATOM      8  C   UNL     1       3.574   1.297 -21.147  0.00  0.00    +0.050 A 
ATOM      9  C   UNL     1       3.756   1.786 -22.305  0.00  0.00    +0.162 A 
ATOM     10  C   UNL     1       2.755   2.199 -22.976  0.00  0.00    +0.167 A 
ATOM     11  O   UNL     1       2.273   2.822 -24.262  0.00  0.00    -0.478 OA
ATOM     12  C   UNL     1       0.771   3.023 -24.312  0.00  0.00    +0.150 C 
ATOM     13  C   UNL     1       1.225   3.450 -25.405  0.00  0.00    +0.060 C 
ATOM     14  C   UNL     1       1.588   2.121 -22.483  0.00  0.00    +0.016 A 
ATOM     15  N   UNL     1      -1.923   2.401 -22.170  0.00  0.00    +0.239 N 
ATOM     16  H   UNL     1      -2.847   2.324 -21.746  0.00  0.00    +0.204 HD
ATOM     17  C   UNL     1      -3.055   2.300 -21.635  0.00  0.00    +0.191 C 
ATOM     18  C   UNL     1      -1.761   2.951 -23.466  0.00  0.00    +0.133 C 
ATOM     19  C   UNL     1      -0.443   3.024 -23.987  0.00  0.00    +0.071 C 
ATOM     20  C   UNL     1       0.602   2.529 -23.143  0.00  0.00    +0.072 C 
ATOM     21  C   UNL     1      -0.217   3.431 -24.973  0.00  0.00    +0.192 C 
ENDROOT
BRANCH   9  22
ATOM     22  O   UNL     1       4.914   1.860 -22.787  0.00  0.00    -0.491 OA
ATOM     23  C   UNL     1       5.742   2.683 -22.318  0.00  0.00    +0.277 C 
ENDBRANCH   9  22
BRANCH  21  24
ATOM     24  O   UNL     1      -0.051   3.917 -26.122  0.00  0.00    -0.385 OA
ATOM     25  H   UNL     1       0.719   3.501 -26.540  0.00  0.00    +0.210 HD
ENDBRANCH  21  24
BRANCH   1  26
ATOM     26  O   UNL     1      -2.375   3.760 -25.138  0.00  0.00    -0.344 OA
BRANCH  26  27
ATOM     27  C   UNL     1      -3.084   4.703 -24.697  0.00  0.00    +0.323 C 
BRANCH  27  29
ATOM     28  C   UNL     1      -5.173   4.157 -24.390  0.00  0.00    +0.196 C 
ATOM     29  O   UNL     1      -4.295   4.790 -25.032  0.00  0.00    -0.357 OA
ENDBRANCH  27  29
ENDBRANCH  26  27
ENDBRANCH   1  26
TORSDOF 5
ENDMDL
MODEL 4
REMARK VINA RESULT:    -9.633      1.291      5.607
REMARK INTER + INTRA:         -11.252
REMARK INTER:                 -11.929
REMARK INTRA:                   0.677
REMARK UNBOUND:                 0.916
REMARK  Name = COCO[C@@H]1C=C2[C@H]3Cc4ccc(OC)c5c4[C@@]2(CCN3C)[C@@](C)(O5)[C@@H]1O ZINC000253505471
REMARK  9 active torsions:
REMARK  status: ('A' for Active; 'I' for Inactive)
REMARK    1  A    between atoms: C_1  and  O_2
REMARK    2  A    between atoms: O_2  and  C_3
REMARK    3  A    between atoms: C_3  and  O_4
REMARK    4  A    between atoms: O_4  and  C_5
REMARK    5  A    between atoms: C_13  and  O_14
REMARK    6  A    between atoms: O_14  and  C_15
REMARK    7  A    between atoms: N_21  and  C_22
REMARK    8  A    between atoms: C_23  and  C_24
REMARK    9  A    between atoms: C_26  and  O_27
REMARK                            x       y       z     vdW  Elec       q    Type
REMARK                         _______ _______ _______ _____ _____    ______ ____
ROOT
ATOM      1  C   UNL     1      -2.541   2.611 -23.222  0.00  0.00    +0.176 C 
ATOM      2  C   UNL     1      -1.951   2.967 -24.275  0.00  0.00    +0.013 C 
ATOM      3  C   UNL     1      -0.682   3.016 -24.310  0.00  0.00    -0.009 C 
ATOM      4  C   UNL     1      -0.093   3.376 -25.377  0.00  0.00    +0.096 C 
ATOM      5  C   UNL     1       1.163   3.425 -25.413  0.00  0.00    +0.094 C 
ATOM      6  C   UNL     1       1.844   3.112 -24.377  0.00  0.00    -0.034 A 
ATOM      7  C   UNL     1       3.103   3.161 -24.412  0.00  0.00    +0.008 A 
ATOM      8  C   UNL     1       3.770   2.853 -23.391  0.00  0.00    +0.050 A 
ATOM      9  C   UNL     1       3.185   2.492 -22.323  0.00  0.00    +0.162 A 
ATOM     10  C   UNL     1       1.912   2.443 -22.290  0.00  0.00    +0.167 A 
ATOM     11  O   UNL     1       0.685   2.142 -21.466  0.00  0.00    -0.478 OA
ATOM     12  C   UNL     1      -0.615   2.346 -22.221  0.00  0.00    +0.150 C 
ATOM     13  C   UNL     1      -0.928   1.965 -21.063  0.00  0.00    +0.060 C 
ATOM     14  C   UNL     1       1.242   2.755 -23.322  0.00  0.00    +0.016 A 
ATOM     15  N   UNL     1      -1.523   3.355 -25.443  0.00  0.00    +0.239 N 
ATOM     16  H   UNL     1      -2.033   3.612 -26.288  0.00  0.00    +0.204 HD
ATOM     17  C   UNL     1      -2.138   3.674 -26.492  0.00  0.00    +0.191 C 
ATOM     18  C   UNL     1      -2.213   2.958 -24.270  0.00  0.00    +0.133 C 
ATOM     19  C   UNL     1      -1.433   2.616 -23.135  0.00  0.00    +0.071 C 
ATOM     20  C   UNL     1      -0.013   2.708 -23.290  0.00  0.00    +0.072 C 
ATOM     21  C   UNL     1      -1.871   2.299 -22.189  0.00  0.00    +0.192 C 
ENDROOT
BRANCH   9  22
ATOM     22  O   UNL     1       3.855   2.184 -21.305  0.00  0.00    -0.491 OA
ATOM     23  C   UNL     1       4.057   0.975 -21.024  0.00  0.00    +0.277 C 
ENDBRANCH   9  22
BRANCH  21  24
ATOM     24  O   UNL     1      -2.463   1.943 -21.137  0.00  0.00    -0.385 OA
ATOM     25  H   UNL     1      -2.784   2.727 -20.666  0.00  0.00    +0.210 HD
ENDBRANCH  21  24
BRANCH   1  26
ATOM     26  O   UNL     1      -3.798   2.564 -23.193  0.00  0.00    -0.344 OA
BRANCH  26  27
ATOM     27  C   UNL     1      -4.470   3.628 -23.217  0.00  0.00    +0.323 C 
BRANCH  27  29
ATOM     28  C   UNL     1      -5.939   2.912 -21.774  0.00  0.00    +0.196 C 
ATOM     29  O   UNL     1      -5.640   3.645 -22.752  0.00  0.00    -0.357 OA
ENDBRANCH  27  29
ENDBRANCH  26  27
ENDBRANCH   1  26
TORSDOF 5
ENDMDL
MODEL 5
REMARK VINA RESULT:    -9.454      2.235      6.644
REMARK INTER + INTRA:         -11.026
REMARK INTER:                 -11.712
REMARK INTRA:                   0.686
REMARK UNBOUND:                 0.916
REMARK  Name = COCO[C@@H]1C=C2[C@H]3Cc4ccc(OC)c5c4[C@@]2(CCN3C)[C@@](C)(O5)[C@@H]1O ZINC000253505471
REMARK  9 active torsions:
REMARK  status: ('A' for Active; 'I' for Inactive)
REMARK    1  A    between atoms: C_1  and  O_2
REMARK    2  A    between atoms: O_2  and  C_3
REMARK    3  A    between atoms: C_3  and  O_4
REMARK    4  A    between atoms: O_4  and  C_5
REMARK    5  A    between atoms: C_13  and  O_14
REMARK    6  A    between atoms: O_14  and  C_15
REMARK    7  A    between atoms: N_21  and  C_22
REMARK    8  A    between atoms: C_23  and  C_24
REMARK    9  A    between atoms: C_26  and  O_27
REMARK                            x       y       z     vdW  Elec       q    Type
REMARK                         _______ _______ _______ _____ _____    ______ ____
ROOT
ATOM      1  C   UNL     1      -1.038   2.865 -24.130  0.00  0.00    +0.176 C 
ATOM      2  C   UNL     1      -0.820   2.303 -23.026  0.00  0.00    +0.013 C 
ATOM      3  C   UNL     1       0.370   2.169 -22.603  0.00  0.00    -0.009 C 
ATOM      4  C   UNL     1       0.583   1.600 -21.485  0.00  0.00    +0.096 C 
ATOM      5  C   UNL     1       1.760   1.466 -21.066  0.00  0.00    +0.094 C 
ATOM      6  C   UNL     1       2.740   1.902 -21.762  0.00  0.00    -0.034 A 
ATOM      7  C   UNL     1       3.921   1.768 -21.342  0.00  0.00    +0.008 A 
ATOM      8  C   UNL     1       4.882   2.198 -22.029  0.00  0.00    +0.050 A 
ATOM      9  C   UNL     1       4.674   2.767 -23.146  0.00  0.00    +0.162 A 
ATOM     10  C   UNL     1       3.479   2.901 -23.568  0.00  0.00    +0.167 A 
ATOM     11  O   UNL     1       2.584   3.412 -24.669  0.00  0.00    -0.478 OA
ATOM     12  C   UNL     1       1.109   3.169 -24.411  0.00  0.00    +0.150 C 
ATOM     13  C   UNL     1       1.187   3.756 -25.521  0.00  0.00    +0.060 C 
ATOM     14  C   UNL     1       2.511   2.466 -22.872  0.00  0.00    +0.016 A 
ATOM     15  N   UNL     1      -0.793   1.701 -21.870  0.00  0.00    +0.239 N 
ATOM     16  H   UNL     1      -1.549   1.341 -21.288  0.00  0.00    +0.204 HD
ATOM     17  C   UNL     1      -1.713   1.253 -21.142  0.00  0.00    +0.191 C 
ATOM     18  C   UNL     1      -1.066   2.330 -23.111  0.00  0.00    +0.133 C 
ATOM     19  C   UNL     1       0.039   2.804 -23.863  0.00  0.00    +0.071 C 
ATOM     20  C   UNL     1       1.334   2.598 -23.288  0.00  0.00    +0.072 C 
ATOM     21  C   UNL     1      -0.070   3.301 -24.827  0.00  0.00    +0.192 C 
ENDROOT
BRANCH   9  22
ATOM     22  O   UNL     1       5.638   3.195 -23.829  0.00  0.00    -0.491 OA
ATOM     23  C   UNL     1       6.748   3.421 -23.283  0.00  0.00    +0.277 C 
ENDBRANCH   9  22
BRANCH  21  24
ATOM     24  O   UNL     1      -0.290   3.863 -25.932  0.00  0.00    -0.385 OA
ATOM     25  H   UNL     1      -0.779   3.257 -26.510  0.00  0.00    +0.210 HD
ENDBRANCH  21  24
BRANCH   1  26
ATOM     26  O   UNL     1      -2.219   2.996 -24.545  0.00  0.00    -0.344 OA
BRANCH  26  27
ATOM     27  C   UNL     1      -3.001   3.805 -23.979  0.00  0.00    +0.323 C 
BRANCH  27  29
ATOM     28  C   UNL     1      -4.710   3.456 -22.670  0.00  0.00    +0.196 C 
ATOM     29  O   UNL     1      -4.214   3.504 -23.825  0.00  0.00    -0.357 OA
ENDBRANCH  27  29
ENDBRANCH  26  27
ENDBRANCH   1  26
TORSDOF 5
ENDMDL
MODEL 6
REMARK VINA RESULT:    -8.064      3.661      7.374
REMARK INTER + INTRA:          -9.270
REMARK INTER:                  -9.932
REMARK INTRA:                   0.663
REMARK UNBOUND:                 0.916
REMARK  Name = COCO[C@@H]1C=C2[C@H]3Cc4ccc(OC)c5c4[C@@]2(CCN3C)[C@@](C)(O5)[C@@H]1O ZINC000253505471
REMARK  9 active torsions:
REMARK  status: ('A' for Active; 'I' for Inactive)
REMARK    1  A    between atoms: C_1  and  O_2
REMARK    2  A    between atoms: O_2  and  C_3
REMARK    3  A    between atoms: C_3  and  O_4
REMARK    4  A    between atoms: O_4  and  C_5
REMARK    5  A    between atoms: C_13  and  O_14
REMARK    6  A    between atoms: O_14  and  C_15
REMARK    7  A    between atoms: N_21  and  C_22
REMARK    8  A    between atoms: C_23  and  C_24
REMARK    9  A    between atoms: C_26  and  O_27
REMARK                            x       y       z     vdW  Elec       q    Type
REMARK                         _______ _______ _______ _____ _____    ______ ____
ROOT
ATOM      1  C   UNL     1       1.274   3.239 -23.332  0.00  0.00    +0.176 C 
ATOM      2  C   UNL     1       2.096   2.313 -23.112  0.00  0.00    +0.013 C 
ATOM      3  C   UNL     1       3.314   2.584 -22.875  0.00  0.00    -0.009 C 
ATOM      4  C   UNL     1       4.140   1.642 -22.654  0.00  0.00    +0.096 C 
ATOM      5  C   UNL     1       5.345   1.909 -22.420  0.00  0.00    +0.094 C 
ATOM      6  C   UNL     1       5.739   3.126 -22.404  0.00  0.00    -0.034 A 
ATOM      7  C   UNL     1       6.948   3.395 -22.168  0.00  0.00    +0.008 A 
ATOM      8  C   UNL     1       7.331   4.592 -22.153  0.00  0.00    +0.050 A 
ATOM      9  C   UNL     1       6.510   5.536 -22.374  0.00  0.00    +0.162 A 
ATOM     10  C   UNL     1       5.288   5.261 -22.611  0.00  0.00    +0.167 A 
ATOM     11  O   UNL     1       3.916   5.802 -22.923  0.00  0.00    -0.478 OA
ATOM     12  C   UNL     1       2.862   4.721 -23.083  0.00  0.00    +0.150 C 
ATOM     13  C   UNL     1       2.278   5.821 -23.263  0.00  0.00    +0.060 C 
ATOM     14  C   UNL     1       4.904   4.052 -22.626  0.00  0.00    +0.016 A 
ATOM     15  N   UNL     1       2.793   1.229 -22.910  0.00  0.00    +0.239 N 
ATOM     16  H   UNL     1       2.515   0.249 -22.915  0.00  0.00    +0.204 HD
ATOM     17  C   UNL     1       2.466   0.016 -22.913  0.00  0.00    +0.191 C 
ATOM     18  C   UNL     1       1.846   2.254 -23.161  0.00  0.00    +0.133 C 
ATOM     19  C   UNL     1       2.309   3.595 -23.137  0.00  0.00    +0.071 C 
ATOM     20  C   UNL     1       3.701   3.781 -22.860  0.00  0.00    +0.072 C 
ATOM     21  C   UNL     1       1.658   4.450 -23.317  0.00  0.00    +0.192 C 
ENDROOT
BRANCH   9  22
ATOM     22  O   UNL     1       6.897   6.731 -22.358  0.00  0.00    -0.491 OA
ATOM     23  C   UNL     1       6.705   7.443 -21.339  0.00  0.00    +0.277 C 
ENDBRANCH   9  22
BRANCH  21  24
ATOM     24  O   UNL     1       0.833   5.376 -23.537  0.00  0.00    -0.385 OA
ATOM     25  H   UNL     1      -0.069   5.022 -23.492  0.00  0.00    +0.210 HD
ENDBRANCH  21  24
BRANCH   1  26
ATOM     26  O   UNL     1       0.069   2.965 -23.566  0.00  0.00    -0.344 OA
BRANCH  26  27
ATOM     27  C   UNL     1      -0.650   2.456 -22.666  0.00  0.00    +0.323 C 
BRANCH  27  29
ATOM     28  C   UNL     1      -2.342   3.763 -22.240  0.00  0.00    +0.196 C 
ATOM     29  O   UNL     1      -1.892   2.666 -22.658  0.00  0.00    -0.357 OA
ENDBRANCH  27  29
ENDBRANCH  26  27
ENDBRANCH   1  26
TORSDOF 5
ENDMDL
