MODEL 1
REMARK VINA RESULT:   -12.736      0.000      0.000
REMARK INTER + INTRA:         -13.108
REMARK INTER:                 -13.108
REMARK INTRA:                   0.000
REMARK UNBOUND:                 0.000
REMARK  Name = ZINC000004104650
REMARK  4 active torsions:
REMARK  status: ('A' for Active; 'I' for Inactive)
REMARK    1  A    between atoms: C_1  and  C_2
REMARK    2  A    between atoms: C_2  and  O_3
REMARK    3  A    between atoms: C_17  and  C_18
REMARK    4  A    between atoms: C_22  and  C_23
REMARK                            x       y       z     vdW  Elec       q    Type
REMARK                         _______ _______ _______ _____ _____    ______ ____
ROOT
ATOM      1  C   UNL     1      -5.202   4.079 -24.075  0.00  0.00    +0.042 C 
ATOM      2  C   UNL     1      -4.990   3.563 -22.904  0.00  0.00    +0.069 C 
ATOM      3  C   UNL     1      -5.102   3.103 -21.691  0.00  0.00    +0.035 C 
ATOM      4  C   UNL     1      -3.929   2.685 -21.306  0.00  0.00    +0.007 C 
ATOM      5  C   UNL     1      -3.092   2.887 -22.283  0.00  0.00    +0.002 C 
ATOM      6  C   UNL     1      -1.821   2.648 -22.401  0.00  0.00    +0.004 C 
ATOM      7  C   UNL     1      -1.164   2.105 -21.414  0.00  0.00    +0.083 C 
ATOM      8  C   UNL     1       0.109   1.868 -21.537  0.00  0.00    +0.160 C 
ATOM      9  C   UNL     1       0.728   2.170 -22.641  0.00  0.00    +0.004 C 
ATOM     10  C   UNL     1       2.000   1.931 -22.761  0.00  0.00    +0.053 C 
ATOM     11  C   UNL     1       2.621   2.234 -23.867  0.00  0.00    +0.157 C 
ATOM     12  C   UNL     1       1.961   2.776 -24.851  0.00  0.00    +0.080 C 
ATOM     13  C   UNL     1       0.688   3.014 -24.731  0.00  0.00    +0.019 C 
ATOM     14  O   UNL     1       3.893   1.995 -23.987  0.00  0.00    -0.293 OA
ATOM     15  C   UNL     1       0.070   2.711 -23.625  0.00  0.00    -0.000 C 
ATOM     16  C   UNL     1      -0.587   3.253 -24.610  0.00  0.00    +0.016 C 
ATOM     17  O   UNL     1       0.767   1.326 -20.551  0.00  0.00    -0.292 OA
ATOM     18  C   UNL     1      -1.204   2.950 -23.504  0.00  0.00    +0.003 C 
ATOM     19  C   UNL     1      -1.860   3.491 -24.488  0.00  0.00    +0.005 C 
ATOM     20  C   UNL     1      -3.129   3.731 -24.374  0.00  0.00    +0.010 C 
ATOM     21  C   UNL     1      -3.742   3.429 -23.272  0.00  0.00    -0.000 C 
ATOM     22  C   UNL     1      -4.441   3.954 -24.193  0.00  0.00    +0.014 C 
ENDROOT
BRANCH   2  23
ATOM     23  O   UNL     1      -6.262   3.790 -22.757  0.00  0.00    -0.388 OA
ATOM     24  H   UNL     1      -6.653   4.011 -23.617  0.00  0.00    +0.210 HD
ENDBRANCH   2  23
TORSDOF 1
ENDMDL
MODEL 2
REMARK VINA RESULT:   -12.587      1.100      2.629
REMARK INTER + INTRA:         -12.955
REMARK INTER:                 -12.955
REMARK INTRA:                   0.000
REMARK UNBOUND:                 0.000
REMARK  Name = ZINC000004104650
REMARK  4 active torsions:
REMARK  status: ('A' for Active; 'I' for Inactive)
REMARK    1  A    between atoms: C_1  and  C_2
REMARK    2  A    between atoms: C_2  and  O_3
REMARK    3  A    between atoms: C_17  and  C_18
REMARK    4  A    between atoms: C_22  and  C_23
REMARK                            x       y       z     vdW  Elec       q    Type
REMARK                         _______ _______ _______ _____ _____    ______ ____
ROOT
ATOM      1  C   UNL     1      -4.917   2.897 -21.376  0.00  0.00    +0.042 C 
ATOM      2  C   UNL     1      -4.677   3.386 -22.554  0.00  0.00    +0.069 C 
ATOM      3  C   UNL     1      -4.759   3.953 -23.722  0.00  0.00    +0.035 C 
ATOM      4  C   UNL     1      -3.581   3.909 -24.278  0.00  0.00    +0.007 C 
ATOM      5  C   UNL     1      -2.770   3.314 -23.451  0.00  0.00    +0.002 C 
ATOM      6  C   UNL     1      -1.506   3.025 -23.529  0.00  0.00    +0.004 C 
ATOM      7  C   UNL     1      -0.828   3.348 -24.595  0.00  0.00    +0.083 C 
ATOM      8  C   UNL     1       0.438   3.057 -24.669  0.00  0.00    +0.160 C 
ATOM      9  C   UNL     1       1.028   2.444 -23.683  0.00  0.00    +0.004 C 
ATOM     10  C   UNL     1       2.292   2.154 -23.760  0.00  0.00    +0.053 C 
ATOM     11  C   UNL     1       2.884   1.541 -22.773  0.00  0.00    +0.157 C 
ATOM     12  C   UNL     1       2.202   1.219 -21.710  0.00  0.00    +0.080 C 
ATOM     13  C   UNL     1       0.937   1.510 -21.634  0.00  0.00    +0.019 C 
ATOM     14  O   UNL     1       4.148   1.251 -22.850  0.00  0.00    -0.293 OA
ATOM     15  C   UNL     1       0.347   2.123 -22.621  0.00  0.00    -0.000 C 
ATOM     16  C   UNL     1      -0.331   1.801 -21.558  0.00  0.00    +0.016 C 
ATOM     17  O   UNL     1       1.118   3.379 -25.733  0.00  0.00    -0.292 OA
ATOM     18  C   UNL     1      -0.919   2.413 -22.545  0.00  0.00    +0.003 C 
ATOM     19  C   UNL     1      -1.597   2.091 -21.482  0.00  0.00    +0.005 C 
ATOM     20  C   UNL     1      -2.858   2.378 -21.401  0.00  0.00    +0.010 C 
ATOM     21  C   UNL     1      -3.443   2.989 -22.385  0.00  0.00    -0.000 C 
ATOM     22  C   UNL     1      -4.161   2.703 -21.377  0.00  0.00    +0.014 C 
ENDROOT
BRANCH   2  23
ATOM     23  O   UNL     1      -5.941   3.688 -22.504  0.00  0.00    -0.388 OA
ATOM     24  H   UNL     1      -6.180   3.928 -21.595  0.00  0.00    +0.210 HD
ENDBRANCH   2  23
TORSDOF 1
ENDMDL
MODEL 3
REMARK VINA RESULT:   -11.891      1.122      6.281
REMARK INTER + INTRA:         -12.239
REMARK INTER:                 -12.239
REMARK INTRA:                   0.000
REMARK UNBOUND:                 0.000
REMARK  Name = ZINC000004104650
REMARK  4 active torsions:
REMARK  status: ('A' for Active; 'I' for Inactive)
REMARK    1  A    between atoms: C_1  and  C_2
REMARK    2  A    between atoms: C_2  and  O_3
REMARK    3  A    between atoms: C_17  and  C_18
REMARK    4  A    between atoms: C_22  and  C_23
REMARK                            x       y       z     vdW  Elec       q    Type
REMARK                         _______ _______ _______ _____ _____    ______ ____
ROOT
ATOM      1  C   UNL     1       2.801   1.376 -21.790  0.00  0.00    +0.042 C 
ATOM      2  C   UNL     1       2.613   1.905 -22.960  0.00  0.00    +0.069 C 
ATOM      3  C   UNL     1       2.749   2.380 -24.164  0.00  0.00    +0.035 C 
ATOM      4  C   UNL     1       1.582   2.792 -24.572  0.00  0.00    +0.007 C 
ATOM      5  C   UNL     1       0.724   2.572 -23.618  0.00  0.00    +0.002 C 
ATOM      6  C   UNL     1      -0.552   2.799 -23.527  0.00  0.00    +0.004 C 
ATOM      7  C   UNL     1      -1.190   3.348 -24.522  0.00  0.00    +0.083 C 
ATOM      8  C   UNL     1      -2.467   3.573 -24.427  0.00  0.00    +0.160 C 
ATOM      9  C   UNL     1      -3.109   3.252 -23.341  0.00  0.00    +0.004 C 
ATOM     10  C   UNL     1      -4.386   3.479 -23.248  0.00  0.00    +0.053 C 
ATOM     11  C   UNL     1      -5.030   3.158 -22.161  0.00  0.00    +0.157 C 
ATOM     12  C   UNL     1      -4.389   2.610 -21.168  0.00  0.00    +0.080 C 
ATOM     13  C   UNL     1      -3.111   2.383 -21.261  0.00  0.00    +0.019 C 
ATOM     14  O   UNL     1      -6.306   3.384 -22.068  0.00  0.00    -0.293 OA
ATOM     15  C   UNL     1      -2.469   2.704 -22.348  0.00  0.00    -0.000 C 
ATOM     16  C   UNL     1      -1.832   2.157 -21.355  0.00  0.00    +0.016 C 
ATOM     17  O   UNL     1      -3.107   4.121 -25.421  0.00  0.00    -0.292 OA
ATOM     18  C   UNL     1      -1.191   2.478 -22.442  0.00  0.00    +0.003 C 
ATOM     19  C   UNL     1      -0.554   1.931 -21.449  0.00  0.00    +0.005 C 
ATOM     20  C   UNL     1       0.719   1.703 -21.537  0.00  0.00    +0.010 C 
ATOM     21  C   UNL     1       1.356   2.024 -22.620  0.00  0.00    -0.000 C 
ATOM     22  C   UNL     1       2.037   1.493 -21.689  0.00  0.00    +0.014 C 
ENDROOT
BRANCH   2  23
ATOM     23  O   UNL     1       3.890   1.689 -23.080  0.00  0.00    -0.388 OA
ATOM     24  H   UNL     1       4.127   1.663 -24.021  0.00  0.00    +0.210 HD
ENDBRANCH   2  23
TORSDOF 1
ENDMDL
MODEL 4
REMARK VINA RESULT:   -11.008      1.948      2.984
REMARK INTER + INTRA:         -11.329
REMARK INTER:                 -11.329
REMARK INTRA:                   0.000
REMARK UNBOUND:                 0.000
REMARK  Name = ZINC000004104650
REMARK  4 active torsions:
REMARK  status: ('A' for Active; 'I' for Inactive)
REMARK    1  A    between atoms: C_1  and  C_2
REMARK    2  A    between atoms: C_2  and  O_3
REMARK    3  A    between atoms: C_17  and  C_18
REMARK    4  A    between atoms: C_22  and  C_23
REMARK                            x       y       z     vdW  Elec       q    Type
REMARK                         _______ _______ _______ _____ _____    ______ ____
ROOT
ATOM      1  C   UNL     1      -2.252   4.534 -23.772  0.00  0.00    +0.042 C 
ATOM      2  C   UNL     1      -2.218   3.490 -23.003  0.00  0.00    +0.069 C 
ATOM      3  C   UNL     1      -2.514   2.468 -22.253  0.00  0.00    +0.035 C 
ATOM      4  C   UNL     1      -1.401   1.926 -21.848  0.00  0.00    +0.007 C 
ATOM      5  C   UNL     1      -0.415   2.614 -22.349  0.00  0.00    +0.002 C 
ATOM      6  C   UNL     1       0.873   2.487 -22.249  0.00  0.00    +0.004 C 
ATOM      7  C   UNL     1       1.380   1.521 -21.535  0.00  0.00    +0.083 C 
ATOM      8  C   UNL     1       2.671   1.397 -21.437  0.00  0.00    +0.160 C 
ATOM      9  C   UNL     1       3.458   2.235 -22.049  0.00  0.00    +0.004 C 
ATOM     10  C   UNL     1       4.747   2.109 -21.950  0.00  0.00    +0.053 C 
ATOM     11  C   UNL     1       5.536   2.947 -22.562  0.00  0.00    +0.157 C 
ATOM     12  C   UNL     1       5.026   3.911 -23.275  0.00  0.00    +0.080 C 
ATOM     13  C   UNL     1       3.735   4.037 -23.374  0.00  0.00    +0.019 C 
ATOM     14  O   UNL     1       6.826   2.821 -22.463  0.00  0.00    -0.293 OA
ATOM     15  C   UNL     1       2.949   3.199 -22.761  0.00  0.00    -0.000 C 
ATOM     16  C   UNL     1       2.442   4.163 -23.473  0.00  0.00    +0.016 C 
ATOM     17  O   UNL     1       3.179   0.432 -20.724  0.00  0.00    -0.292 OA
ATOM     18  C   UNL     1       1.657   3.324 -22.860  0.00  0.00    +0.003 C 
ATOM     19  C   UNL     1       1.151   4.288 -23.572  0.00  0.00    +0.005 C 
ATOM     20  C   UNL     1      -0.135   4.418 -23.675  0.00  0.00    +0.010 C 
ATOM     21  C   UNL     1      -0.915   3.581 -23.064  0.00  0.00    -0.000 C 
ATOM     22  C   UNL     1      -1.474   4.499 -23.742  0.00  0.00    +0.014 C 
ENDROOT
BRANCH   2  23
ATOM     23  O   UNL     1      -3.512   3.593 -23.086  0.00  0.00    -0.388 OA
ATOM     24  H   UNL     1      -3.748   4.064 -23.900  0.00  0.00    +0.210 HD
ENDBRANCH   2  23
TORSDOF 1
ENDMDL
MODEL 5
REMARK VINA RESULT:   -10.972      1.287      5.756
REMARK INTER + INTRA:         -11.292
REMARK INTER:                 -11.292
REMARK INTRA:                   0.000
REMARK UNBOUND:                 0.000
REMARK  Name = ZINC000004104650
REMARK  4 active torsions:
REMARK  status: ('A' for Active; 'I' for Inactive)
REMARK    1  A    between atoms: C_1  and  C_2
REMARK    2  A    between atoms: C_2  and  O_3
REMARK    3  A    between atoms: C_17  and  C_18
REMARK    4  A    between atoms: C_22  and  C_23
REMARK                            x       y       z     vdW  Elec       q    Type
REMARK                         _______ _______ _______ _____ _____    ______ ____
ROOT
ATOM      1  C   UNL     1       3.499   2.157 -24.069  0.00  0.00    +0.042 C 
ATOM      2  C   UNL     1       3.005   1.766 -22.935  0.00  0.00    +0.069 C 
ATOM      3  C   UNL     1       2.823   1.280 -21.741  0.00  0.00    +0.035 C 
ATOM      4  C   UNL     1       1.565   1.422 -21.433  0.00  0.00    +0.007 C 
ATOM      5  C   UNL     1       0.968   1.996 -22.439  0.00  0.00    +0.002 C 
ATOM      6  C   UNL     1      -0.265   2.353 -22.629  0.00  0.00    +0.004 C 
ATOM      7  C   UNL     1      -1.157   2.140 -21.702  0.00  0.00    +0.083 C 
ATOM      8  C   UNL     1      -2.392   2.499 -21.897  0.00  0.00    +0.160 C 
ATOM      9  C   UNL     1      -2.740   3.068 -23.015  0.00  0.00    +0.004 C 
ATOM     10  C   UNL     1      -3.974   3.425 -23.207  0.00  0.00    +0.053 C 
ATOM     11  C   UNL     1      -4.324   3.996 -24.326  0.00  0.00    +0.157 C 
ATOM     12  C   UNL     1      -3.430   4.206 -25.251  0.00  0.00    +0.080 C 
ATOM     13  C   UNL     1      -2.195   3.849 -25.058  0.00  0.00    +0.019 C 
ATOM     14  O   UNL     1      -5.558   4.353 -24.519  0.00  0.00    -0.293 OA
ATOM     15  C   UNL     1      -1.847   3.279 -23.939  0.00  0.00    -0.000 C 
ATOM     16  C   UNL     1      -0.957   3.490 -24.864  0.00  0.00    +0.016 C 
ATOM     17  O   UNL     1      -3.284   2.287 -20.971  0.00  0.00    -0.292 OA
ATOM     18  C   UNL     1      -0.611   2.921 -23.745  0.00  0.00    +0.003 C 
ATOM     19  C   UNL     1       0.279   3.132 -24.670  0.00  0.00    +0.005 C 
ATOM     20  C   UNL     1       1.511   2.778 -24.483  0.00  0.00    +0.010 C 
ATOM     21  C   UNL     1       1.854   2.211 -23.368  0.00  0.00    -0.000 C 
ATOM     22  C   UNL     1       2.771   2.388 -24.229  0.00  0.00    +0.014 C 
ENDROOT
BRANCH   2  23
ATOM     23  O   UNL     1       4.233   1.399 -22.716  0.00  0.00    -0.388 OA
ATOM     24  H   UNL     1       4.305   0.436 -22.812  0.00  0.00    +0.210 HD
ENDBRANCH   2  23
TORSDOF 1
ENDMDL
MODEL 6
REMARK VINA RESULT:   -10.347      2.013      6.474
REMARK INTER + INTRA:         -10.649
REMARK INTER:                 -10.649
REMARK INTRA:                   0.000
REMARK UNBOUND:                 0.000
REMARK  Name = ZINC000004104650
REMARK  4 active torsions:
REMARK  status: ('A' for Active; 'I' for Inactive)
REMARK    1  A    between atoms: C_1  and  C_2
REMARK    2  A    between atoms: C_2  and  O_3
REMARK    3  A    between atoms: C_17  and  C_18
REMARK    4  A    between atoms: C_22  and  C_23
REMARK                            x       y       z     vdW  Elec       q    Type
REMARK                         _______ _______ _______ _____ _____    ______ ____
ROOT
ATOM      1  C   UNL     1       5.538   3.791 -23.084  0.00  0.00    +0.042 C 
ATOM      2  C   UNL     1       5.154   2.779 -22.368  0.00  0.00    +0.069 C 
ATOM      3  C   UNL     1       5.095   1.727 -21.605  0.00  0.00    +0.035 C 
ATOM      4  C   UNL     1       3.841   1.414 -21.441  0.00  0.00    +0.007 C 
ATOM      5  C   UNL     1       3.124   2.275 -22.103  0.00  0.00    +0.002 C 
ATOM      6  C   UNL     1       1.841   2.401 -22.259  0.00  0.00    +0.004 C 
ATOM      7  C   UNL     1       1.028   1.557 -21.687  0.00  0.00    +0.083 C 
ATOM      8  C   UNL     1      -0.256   1.686 -21.845  0.00  0.00    +0.160 C 
ATOM      9  C   UNL     1      -0.732   2.655 -22.574  0.00  0.00    +0.004 C 
ATOM     10  C   UNL     1      -2.016   2.782 -22.731  0.00  0.00    +0.053 C 
ATOM     11  C   UNL     1      -2.493   3.751 -23.460  0.00  0.00    +0.157 C 
ATOM     12  C   UNL     1      -1.678   4.592 -24.031  0.00  0.00    +0.080 C 
ATOM     13  C   UNL     1      -0.393   4.465 -23.873  0.00  0.00    +0.019 C 
ATOM     14  O   UNL     1      -3.777   3.878 -23.617  0.00  0.00    -0.293 OA
ATOM     15  C   UNL     1       0.082   3.496 -23.144  0.00  0.00    -0.000 C 
ATOM     16  C   UNL     1       0.894   4.337 -23.715  0.00  0.00    +0.016 C 
ATOM     17  O   UNL     1      -1.070   0.844 -21.274  0.00  0.00    -0.292 OA
ATOM     18  C   UNL     1       1.367   3.368 -22.987  0.00  0.00    +0.003 C 
ATOM     19  C   UNL     1       2.179   4.209 -23.558  0.00  0.00    +0.005 C 
ATOM     20  C   UNL     1       3.460   4.087 -23.404  0.00  0.00    +0.010 C 
ATOM     21  C   UNL     1       3.931   3.121 -22.678  0.00  0.00    -0.000 C 
ATOM     22  C   UNL     1       4.776   3.906 -23.207  0.00  0.00    +0.014 C 
ENDROOT
BRANCH   2  23
ATOM     23  O   UNL     1       6.434   2.629 -22.194  0.00  0.00    -0.388 OA
ATOM     24  H   UNL     1       6.662   1.688 -22.261  0.00  0.00    +0.210 HD
ENDBRANCH   2  23
TORSDOF 1
ENDMDL
MODEL 7
REMARK VINA RESULT:    -9.823      1.817      3.352
REMARK INTER + INTRA:         -10.110
REMARK INTER:                 -10.110
REMARK INTRA:                   0.000
REMARK UNBOUND:                 0.000
REMARK  Name = ZINC000004104650
REMARK  4 active torsions:
REMARK  status: ('A' for Active; 'I' for Inactive)
REMARK    1  A    between atoms: C_1  and  C_2
REMARK    2  A    between atoms: C_2  and  O_3
REMARK    3  A    between atoms: C_17  and  C_18
REMARK    4  A    between atoms: C_22  and  C_23
REMARK                            x       y       z     vdW  Elec       q    Type
REMARK                         _______ _______ _______ _____ _____    ______ ____
ROOT
ATOM      1  C   UNL     1      -3.437   2.799 -22.801  0.00  0.00    +0.042 C 
ATOM      2  C   UNL     1      -2.794   3.749 -23.407  0.00  0.00    +0.069 C 
ATOM      3  C   UNL     1      -2.454   4.798 -24.098  0.00  0.00    +0.035 C 
ATOM      4  C   UNL     1      -1.154   4.891 -24.082  0.00  0.00    +0.007 C 
ATOM      5  C   UNL     1      -0.690   3.898 -23.379  0.00  0.00    +0.002 C 
ATOM      6  C   UNL     1       0.519   3.546 -23.065  0.00  0.00    +0.004 C 
ATOM      7  C   UNL     1       1.534   4.252 -23.482  0.00  0.00    +0.083 C 
ATOM      8  C   UNL     1       2.744   3.895 -23.165  0.00  0.00    +0.160 C 
ATOM      9  C   UNL     1       2.945   2.837 -22.434  0.00  0.00    +0.004 C 
ATOM     10  C   UNL     1       4.155   2.483 -22.119  0.00  0.00    +0.053 C 
ATOM     11  C   UNL     1       4.357   1.423 -21.388  0.00  0.00    +0.157 C 
ATOM     12  C   UNL     1       3.341   0.720 -20.973  0.00  0.00    +0.080 C 
ATOM     13  C   UNL     1       2.130   1.075 -21.288  0.00  0.00    +0.019 C 
ATOM     14  O   UNL     1       5.567   1.069 -21.073  0.00  0.00    -0.293 OA
ATOM     15  C   UNL     1       1.930   2.134 -22.020  0.00  0.00    -0.000 C 
ATOM     16  C   UNL     1       0.917   1.431 -21.604  0.00  0.00    +0.016 C 
ATOM     17  O   UNL     1       3.758   4.599 -23.581  0.00  0.00    -0.292 OA
ATOM     18  C   UNL     1       0.719   2.489 -22.336  0.00  0.00    +0.003 C 
ATOM     19  C   UNL     1      -0.294   1.786 -21.920  0.00  0.00    +0.005 C 
ATOM     20  C   UNL     1      -1.503   2.135 -22.231  0.00  0.00    +0.010 C 
ATOM     21  C   UNL     1      -1.699   3.190 -22.960  0.00  0.00    -0.000 C 
ATOM     22  C   UNL     1      -2.730   2.548 -22.588  0.00  0.00    +0.014 C 
ENDROOT
BRANCH   2  23
ATOM     23  O   UNL     1      -3.994   4.126 -23.737  0.00  0.00    -0.388 OA
ATOM     24  H   UNL     1      -4.265   3.668 -24.548  0.00  0.00    +0.210 HD
ENDBRANCH   2  23
TORSDOF 1
ENDMDL
