MODEL 1
REMARK VINA RESULT:   -11.358      0.000      0.000
REMARK INTER + INTRA:         -12.022
REMARK INTER:                 -12.022
REMARK INTRA:                   0.000
REMARK UNBOUND:                 0.000
REMARK  Name = ZINC000003902442
REMARK  3 active torsions:
REMARK  status: ('A' for Active; 'I' for Inactive)
REMARK    1  A    between atoms: C_1  and  C_2
REMARK    2  A    between atoms: C_9  and  O_10
REMARK    3  A    between atoms: C_20  and  O_21
REMARK                            x       y       z     vdW  Elec       q    Type
REMARK                         _______ _______ _______ _____ _____    ______ ____
ROOT
ATOM      1  C   UNL     1      -4.514   3.854 -23.850  0.00  0.00    +0.014 C 
ATOM      2  C   UNL     1      -3.670   3.277 -23.045  0.00  0.00    -0.003 C 
ATOM      3  C   UNL     1      -3.158   3.624 -24.189  0.00  0.00    +0.010 C 
ATOM      4  C   UNL     1      -1.905   3.385 -24.439  0.00  0.00    +0.009 C 
ATOM      5  C   UNL     1      -1.164   2.798 -23.546  0.00  0.00    +0.023 C 
ATOM      6  C   UNL     1       0.089   2.559 -23.795  0.00  0.00    -0.040 A 
ATOM      7  C   UNL     1       0.601   2.906 -24.939  0.00  0.00    +0.008 A 
ATOM      8  C   UNL     1       1.855   2.666 -25.189  0.00  0.00    +0.047 A 
ATOM      9  C   UNL     1       2.594   2.080 -24.295  0.00  0.00    +0.131 A 
ATOM     10  C   UNL     1       2.082   1.733 -23.153  0.00  0.00    +0.063 A 
ATOM     11 BR   UNL     1       2.823   1.146 -22.260  0.00  0.00    -0.046 Br
ATOM     12  C   UNL     1       0.830   1.972 -22.902  0.00  0.00    -0.026 A 
ATOM     13  C   UNL     1       0.316   1.625 -21.759  0.00  0.00    +0.037 C 
ATOM     14  C   UNL     1      -0.937   1.865 -21.509  0.00  0.00    +0.009 C 
ATOM     15  C   UNL     1      -1.677   2.451 -22.402  0.00  0.00    +0.000 C 
ATOM     16  C   UNL     1      -4.868   3.399 -22.557  0.00  0.00    +0.121 C 
ATOM     17  C   UNL     1      -4.869   2.888 -21.361  0.00  0.00    +0.032 C 
ATOM     18  C   UNL     1      -3.671   2.450 -21.112  0.00  0.00    +0.007 C 
ATOM     19  C   UNL     1      -2.930   2.690 -22.152  0.00  0.00    +0.001 C 
ENDROOT
BRANCH   9  20
ATOM     20  O   UNL     1       3.848   1.840 -24.546  0.00  0.00    -0.506 OA
ATOM     21  H   UNL     1       4.197   0.981 -24.410  0.00  0.00    +0.292 HD
ENDBRANCH   9  20
BRANCH  16  22
ATOM     22  O   UNL     1      -5.888   3.938 -23.157  0.00  0.00    -0.391 OA
ATOM     23  H   UNL     1      -6.451   4.383 -22.504  0.00  0.00    +0.210 HD
ENDBRANCH  16  22
TORSDOF 2
ENDMDL
MODEL 2
REMARK VINA RESULT:   -11.219      1.088      2.473
REMARK INTER + INTRA:         -11.875
REMARK INTER:                 -11.875
REMARK INTRA:                   0.000
REMARK UNBOUND:                 0.000
REMARK  Name = ZINC000003902442
REMARK  3 active torsions:
REMARK  status: ('A' for Active; 'I' for Inactive)
REMARK    1  A    between atoms: C_1  and  C_2
REMARK    2  A    between atoms: C_9  and  O_10
REMARK    3  A    between atoms: C_20  and  O_21
REMARK                            x       y       z     vdW  Elec       q    Type
REMARK                         _______ _______ _______ _____ _____    ______ ____
ROOT
ATOM      1  C   UNL     1      -4.896   3.136 -21.945  0.00  0.00    +0.014 C 
ATOM      2  C   UNL     1      -3.974   3.295 -22.850  0.00  0.00    -0.003 C 
ATOM      3  C   UNL     1      -3.548   2.744 -21.751  0.00  0.00    +0.010 C 
ATOM      4  C   UNL     1      -2.298   2.407 -21.637  0.00  0.00    +0.009 C 
ATOM      5  C   UNL     1      -1.474   2.621 -22.619  0.00  0.00    +0.023 C 
ATOM      6  C   UNL     1      -0.223   2.284 -22.504  0.00  0.00    -0.040 A 
ATOM      7  C   UNL     1       0.202   1.734 -21.407  0.00  0.00    +0.008 A 
ATOM      8  C   UNL     1       1.453   1.397 -21.291  0.00  0.00    +0.047 A 
ATOM      9  C   UNL     1       2.277   1.611 -22.274  0.00  0.00    +0.131 A 
ATOM     10  C   UNL     1       1.850   2.162 -23.372  0.00  0.00    +0.063 A 
ATOM     11 BR   UNL     1       2.674   2.376 -24.354  0.00  0.00    -0.046 Br
ATOM     12  C   UNL     1       0.601   2.498 -23.487  0.00  0.00    -0.026 A 
ATOM     13  C   UNL     1       0.174   3.049 -24.585  0.00  0.00    +0.037 C 
ATOM     14  C   UNL     1      -1.077   3.386 -24.699  0.00  0.00    +0.009 C 
ATOM     15  C   UNL     1      -1.901   3.172 -23.717  0.00  0.00    +0.000 C 
ATOM     16  C   UNL     1      -5.150   3.716 -23.212  0.00  0.00    +0.121 C 
ATOM     17  C   UNL     1      -5.052   4.190 -24.418  0.00  0.00    +0.032 C 
ATOM     18  C   UNL     1      -3.817   4.062 -24.801  0.00  0.00    +0.007 C 
ATOM     19  C   UNL     1      -3.150   3.509 -23.832  0.00  0.00    +0.001 C 
ENDROOT
BRANCH   9  20
ATOM     20  O   UNL     1       3.528   1.274 -22.159  0.00  0.00    -0.506 OA
ATOM     21  H   UNL     1       3.816   0.434 -22.458  0.00  0.00    +0.292 HD
ENDBRANCH   9  20
BRANCH  16  22
ATOM     22  O   UNL     1      -6.232   3.671 -22.494  0.00  0.00    -0.391 OA
ATOM     23  H   UNL     1      -6.670   2.814 -22.620  0.00  0.00    +0.210 HD
ENDBRANCH  16  22
TORSDOF 2
ENDMDL
MODEL 3
REMARK VINA RESULT:   -11.128      2.042      6.285
REMARK INTER + INTRA:         -11.778
REMARK INTER:                 -11.778
REMARK INTRA:                   0.000
REMARK UNBOUND:                 0.000
REMARK  Name = ZINC000003902442
REMARK  3 active torsions:
REMARK  status: ('A' for Active; 'I' for Inactive)
REMARK    1  A    between atoms: C_1  and  C_2
REMARK    2  A    between atoms: C_9  and  O_10
REMARK    3  A    between atoms: C_20  and  O_21
REMARK                            x       y       z     vdW  Elec       q    Type
REMARK                         _______ _______ _______ _____ _____    ______ ____
ROOT
ATOM      1  C   UNL     1       2.080   1.271 -21.750  0.00  0.00    +0.014 C 
ATOM      2  C   UNL     1       1.382   1.853 -22.681  0.00  0.00    -0.003 C 
ATOM      3  C   UNL     1       0.699   1.559 -21.613  0.00  0.00    +0.010 C 
ATOM      4  C   UNL     1      -0.566   1.850 -21.551  0.00  0.00    +0.009 C 
ATOM      5  C   UNL     1      -1.150   2.435 -22.554  0.00  0.00    +0.023 C 
ATOM      6  C   UNL     1      -2.415   2.726 -22.492  0.00  0.00    -0.040 A 
ATOM      7  C   UNL     1      -3.097   2.432 -21.425  0.00  0.00    +0.008 A 
ATOM      8  C   UNL     1      -4.363   2.723 -21.362  0.00  0.00    +0.047 A 
ATOM      9  C   UNL     1      -4.945   3.308 -22.366  0.00  0.00    +0.131 A 
ATOM     10  C   UNL     1      -4.263   3.602 -23.432  0.00  0.00    +0.063 A 
ATOM     11 BR   UNL     1      -4.846   4.187 -24.436  0.00  0.00    -0.046 Br
ATOM     12  C   UNL     1      -2.998   3.311 -23.496  0.00  0.00    -0.026 A 
ATOM     13  C   UNL     1      -2.315   3.605 -24.562  0.00  0.00    +0.037 C 
ATOM     14  C   UNL     1      -1.050   3.314 -24.625  0.00  0.00    +0.009 C 
ATOM     15  C   UNL     1      -0.467   2.729 -23.621  0.00  0.00    +0.000 C 
ATOM     16  C   UNL     1       2.631   1.674 -22.990  0.00  0.00    +0.121 C 
ATOM     17  C   UNL     1       2.821   2.148 -24.186  0.00  0.00    +0.032 C 
ATOM     18  C   UNL     1       1.688   2.620 -24.614  0.00  0.00    +0.007 C 
ATOM     19  C   UNL     1       0.798   2.438 -23.684  0.00  0.00    +0.001 C 
ENDROOT
BRANCH   9  20
ATOM     20  O   UNL     1      -6.211   3.599 -22.303  0.00  0.00    -0.506 OA
ATOM     21  H   UNL     1      -6.519   4.421 -22.630  0.00  0.00    +0.292 HD
ENDBRANCH   9  20
BRANCH  16  22
ATOM     22  O   UNL     1       3.533   1.118 -22.237  0.00  0.00    -0.391 OA
ATOM     23  H   UNL     1       3.504   1.513 -21.351  0.00  0.00    +0.210 HD
ENDBRANCH  16  22
TORSDOF 2
ENDMDL
MODEL 4
REMARK VINA RESULT:   -10.726      1.852      5.848
REMARK INTER + INTRA:         -11.353
REMARK INTER:                 -11.353
REMARK INTRA:                   0.000
REMARK UNBOUND:                 0.000
REMARK  Name = ZINC000003902442
REMARK  3 active torsions:
REMARK  status: ('A' for Active; 'I' for Inactive)
REMARK    1  A    between atoms: C_1  and  C_2
REMARK    2  A    between atoms: C_9  and  O_10
REMARK    3  A    between atoms: C_20  and  O_21
REMARK                            x       y       z     vdW  Elec       q    Type
REMARK                         _______ _______ _______ _____ _____    ______ ____
ROOT
ATOM      1  C   UNL     1       2.820   2.271 -24.496  0.00  0.00    +0.014 C 
ATOM      2  C   UNL     1       1.961   2.100 -23.534  0.00  0.00    -0.003 C 
ATOM      3  C   UNL     1       1.462   2.663 -24.595  0.00  0.00    +0.010 C 
ATOM      4  C   UNL     1       0.206   2.998 -24.623  0.00  0.00    +0.009 C 
ATOM      5  C   UNL     1      -0.550   2.772 -23.590  0.00  0.00    +0.023 C 
ATOM      6  C   UNL     1      -1.806   3.107 -23.617  0.00  0.00    -0.040 A 
ATOM      7  C   UNL     1      -2.304   3.669 -24.678  0.00  0.00    +0.008 A 
ATOM      8  C   UNL     1      -3.561   4.005 -24.706  0.00  0.00    +0.047 A 
ATOM      9  C   UNL     1      -4.316   3.778 -23.673  0.00  0.00    +0.131 A 
ATOM     10  C   UNL     1      -3.817   3.216 -22.613  0.00  0.00    +0.063 A 
ATOM     11 BR   UNL     1      -4.574   2.990 -21.580  0.00  0.00    -0.046 Br
ATOM     12  C   UNL     1      -2.562   2.881 -22.585  0.00  0.00    -0.026 A 
ATOM     13  C   UNL     1      -2.062   2.319 -21.524  0.00  0.00    +0.037 C 
ATOM     14  C   UNL     1      -0.807   1.983 -21.497  0.00  0.00    +0.009 C 
ATOM     15  C   UNL     1      -0.050   2.210 -22.529  0.00  0.00    +0.000 C 
ATOM     16  C   UNL     1       3.159   1.678 -23.256  0.00  0.00    +0.121 C 
ATOM     17  C   UNL     1       3.142   1.190 -22.050  0.00  0.00    +0.032 C 
ATOM     18  C   UNL     1       1.935   1.311 -21.585  0.00  0.00    +0.007 C 
ATOM     19  C   UNL     1       1.205   1.874 -22.501  0.00  0.00    +0.001 C 
ENDROOT
BRANCH   9  20
ATOM     20  O   UNL     1      -5.573   4.114 -23.701  0.00  0.00    -0.506 OA
ATOM     21  H   UNL     1      -5.842   4.945 -23.363  0.00  0.00    +0.292 HD
ENDBRANCH   9  20
BRANCH  16  22
ATOM     22  O   UNL     1       4.191   1.733 -24.043  0.00  0.00    -0.391 OA
ATOM     23  H   UNL     1       3.895   1.724 -24.967  0.00  0.00    +0.210 HD
ENDBRANCH  16  22
TORSDOF 2
ENDMDL
MODEL 5
REMARK VINA RESULT:   -10.021      1.828      3.272
REMARK INTER + INTRA:         -10.607
REMARK INTER:                 -10.607
REMARK INTRA:                   0.000
REMARK UNBOUND:                 0.000
REMARK  Name = ZINC000003902442
REMARK  3 active torsions:
REMARK  status: ('A' for Active; 'I' for Inactive)
REMARK    1  A    between atoms: C_1  and  C_2
REMARK    2  A    between atoms: C_9  and  O_10
REMARK    3  A    between atoms: C_20  and  O_21
REMARK                            x       y       z     vdW  Elec       q    Type
REMARK                         _______ _______ _______ _____ _____    ______ ____
ROOT
ATOM      1  C   UNL     1      -2.453   2.202 -21.715  0.00  0.00    +0.014 C 
ATOM      2  C   UNL     1      -1.509   2.832 -22.351  0.00  0.00    -0.003 C 
ATOM      3  C   UNL     1      -1.091   1.815 -21.656  0.00  0.00    +0.010 C 
ATOM      4  C   UNL     1       0.174   1.513 -21.643  0.00  0.00    +0.009 C 
ATOM      5  C   UNL     1       1.020   2.226 -22.326  0.00  0.00    +0.023 C 
ATOM      6  C   UNL     1       2.284   1.924 -22.313  0.00  0.00    -0.040 A 
ATOM      7  C   UNL     1       2.701   0.908 -21.618  0.00  0.00    +0.008 A 
ATOM      8  C   UNL     1       3.966   0.605 -21.605  0.00  0.00    +0.047 A 
ATOM      9  C   UNL     1       4.812   1.319 -22.288  0.00  0.00    +0.131 A 
ATOM     10  C   UNL     1       4.394   2.334 -22.982  0.00  0.00    +0.063 A 
ATOM     11 BR   UNL     1       5.240   3.048 -23.664  0.00  0.00    -0.046 Br
ATOM     12  C   UNL     1       3.130   2.637 -22.995  0.00  0.00    -0.026 A 
ATOM     13  C   UNL     1       2.711   3.653 -23.690  0.00  0.00    +0.037 C 
ATOM     14  C   UNL     1       1.447   3.956 -23.703  0.00  0.00    +0.009 C 
ATOM     15  C   UNL     1       0.601   3.242 -23.020  0.00  0.00    +0.000 C 
ATOM     16  C   UNL     1      -2.694   3.335 -22.529  0.00  0.00    +0.121 C 
ATOM     17  C   UNL     1      -2.581   4.360 -23.321  0.00  0.00    +0.032 C 
ATOM     18  C   UNL     1      -1.325   4.489 -23.632  0.00  0.00    +0.007 C 
ATOM     19  C   UNL     1      -0.663   3.545 -23.033  0.00  0.00    +0.001 C 
ENDROOT
BRANCH   9  20
ATOM     20  O   UNL     1       6.077   1.016 -22.275  0.00  0.00    -0.506 OA
ATOM     21  H   UNL     1       6.707   1.653 -22.003  0.00  0.00    +0.292 HD
ENDBRANCH   9  20
BRANCH  16  22
ATOM     22  O   UNL     1      -3.799   2.892 -22.007  0.00  0.00    -0.391 OA
ATOM     23  H   UNL     1      -3.595   2.348 -21.230  0.00  0.00    +0.210 HD
ENDBRANCH  16  22
TORSDOF 2
ENDMDL
MODEL 6
REMARK VINA RESULT:    -9.824      1.934      6.088
REMARK INTER + INTRA:         -10.398
REMARK INTER:                 -10.398
REMARK INTRA:                   0.000
REMARK UNBOUND:                 0.000
REMARK  Name = ZINC000003902442
REMARK  3 active torsions:
REMARK  status: ('A' for Active; 'I' for Inactive)
REMARK    1  A    between atoms: C_1  and  C_2
REMARK    2  A    between atoms: C_9  and  O_10
REMARK    3  A    between atoms: C_20  and  O_21
REMARK                            x       y       z     vdW  Elec       q    Type
REMARK                         _______ _______ _______ _____ _____    ______ ____
ROOT
ATOM      1  C   UNL     1       4.114   2.482 -23.928  0.00  0.00    +0.014 C 
ATOM      2  C   UNL     1       3.201   2.168 -23.057  0.00  0.00    -0.003 C 
ATOM      3  C   UNL     1       2.750   2.830 -24.082  0.00  0.00    +0.010 C 
ATOM      4  C   UNL     1       1.485   3.118 -24.163  0.00  0.00    +0.009 C 
ATOM      5  C   UNL     1       0.670   2.744 -23.221  0.00  0.00    +0.023 C 
ATOM      6  C   UNL     1      -0.595   3.032 -23.303  0.00  0.00    -0.040 A 
ATOM      7  C   UNL     1      -1.045   3.694 -24.327  0.00  0.00    +0.008 A 
ATOM      8  C   UNL     1      -2.311   3.982 -24.409  0.00  0.00    +0.047 A 
ATOM      9  C   UNL     1      -3.124   3.608 -23.466  0.00  0.00    +0.131 A 
ATOM     10  C   UNL     1      -2.673   2.946 -22.443  0.00  0.00    +0.063 A 
ATOM     11 BR   UNL     1      -3.487   2.573 -21.501  0.00  0.00    -0.046 Br
ATOM     12  C   UNL     1      -1.409   2.658 -22.361  0.00  0.00    -0.026 A 
ATOM     13  C   UNL     1      -0.957   1.996 -21.336  0.00  0.00    +0.037 C 
ATOM     14  C   UNL     1       0.308   1.708 -21.255  0.00  0.00    +0.009 C 
ATOM     15  C   UNL     1       1.122   2.082 -22.197  0.00  0.00    +0.000 C 
ATOM     16  C   UNL     1       4.394   1.762 -22.741  0.00  0.00    +0.121 C 
ATOM     17  C   UNL     1       4.318   1.137 -21.604  0.00  0.00    +0.032 C 
ATOM     18  C   UNL     1       3.077   1.157 -21.217  0.00  0.00    +0.007 C 
ATOM     19  C   UNL     1       2.387   1.794 -22.115  0.00  0.00    +0.001 C 
ENDROOT
BRANCH   9  20
ATOM     20  O   UNL     1      -4.390   3.896 -23.548  0.00  0.00    -0.506 OA
ATOM     21  H   UNL     1      -4.746   4.590 -23.030  0.00  0.00    +0.292 HD
ENDBRANCH   9  20
BRANCH  16  22
ATOM     22  O   UNL     1       5.475   1.947 -23.440  0.00  0.00    -0.391 OA
ATOM     23  H   UNL     1       5.377   2.746 -23.982  0.00  0.00    +0.210 HD
ENDBRANCH  16  22
TORSDOF 2
ENDMDL
MODEL 7
REMARK VINA RESULT:    -8.489      2.787      6.777
REMARK INTER + INTRA:          -8.985
REMARK INTER:                  -8.985
REMARK INTRA:                   0.000
REMARK UNBOUND:                 0.000
REMARK  Name = ZINC000003902442
REMARK  3 active torsions:
REMARK  status: ('A' for Active; 'I' for Inactive)
REMARK    1  A    between atoms: C_1  and  C_2
REMARK    2  A    between atoms: C_9  and  O_10
REMARK    3  A    between atoms: C_20  and  O_21
REMARK                            x       y       z     vdW  Elec       q    Type
REMARK                         _______ _______ _______ _____ _____    ______ ____
ROOT
ATOM      1  C   UNL     1       5.548   4.591 -23.203  0.00  0.00    +0.014 C 
ATOM      2  C   UNL     1       4.733   3.653 -22.820  0.00  0.00    -0.003 C 
ATOM      3  C   UNL     1       4.138   4.724 -23.258  0.00  0.00    +0.010 C 
ATOM      4  C   UNL     1       2.840   4.782 -23.282  0.00  0.00    +0.009 C 
ATOM      5  C   UNL     1       2.136   3.770 -22.869  0.00  0.00    +0.023 C 
ATOM      6  C   UNL     1       0.837   3.828 -22.893  0.00  0.00    -0.040 A 
ATOM      7  C   UNL     1       0.243   4.899 -23.330  0.00  0.00    +0.008 A 
ATOM      8  C   UNL     1      -1.056   4.957 -23.355  0.00  0.00    +0.047 A 
ATOM      9  C   UNL     1      -1.759   3.945 -22.941  0.00  0.00    +0.131 A 
ATOM     10  C   UNL     1      -1.165   2.875 -22.504  0.00  0.00    +0.063 A 
ATOM     11 BR   UNL     1      -1.869   1.863 -22.091  0.00  0.00    -0.046 Br
ATOM     12  C   UNL     1       0.133   2.816 -22.480  0.00  0.00    -0.026 A 
ATOM     13  C   UNL     1       0.728   1.746 -22.043  0.00  0.00    +0.037 C 
ATOM     14  C   UNL     1       2.027   1.688 -22.019  0.00  0.00    +0.009 C 
ATOM     15  C   UNL     1       2.731   2.700 -22.432  0.00  0.00    +0.000 C 
ATOM     16  C   UNL     1       5.989   3.346 -22.695  0.00  0.00    +0.121 C 
ATOM     17  C   UNL     1       6.063   2.144 -22.204  0.00  0.00    +0.032 C 
ATOM     18  C   UNL     1       4.851   1.709 -22.027  0.00  0.00    +0.007 C 
ATOM     19  C   UNL     1       4.029   2.641 -22.407  0.00  0.00    +0.001 C 
ENDROOT
BRANCH   9  20
ATOM     20  O   UNL     1      -3.058   4.003 -22.966  0.00  0.00    -0.506 OA
ATOM     21  H   UNL     1      -3.496   4.378 -23.704  0.00  0.00    +0.292 HD
ENDBRANCH   9  20
BRANCH  16  22
ATOM     22  O   UNL     1       6.997   4.107 -23.005  0.00  0.00    -0.391 OA
ATOM     23  H   UNL     1       7.820   3.597 -22.942  0.00  0.00    +0.210 HD
ENDBRANCH  16  22
TORSDOF 2
ENDMDL
