MODEL 1
REMARK VINA RESULT:   -10.034      0.000      0.000
REMARK INTER + INTRA:         -11.460
REMARK INTER:                 -11.669
REMARK INTRA:                   0.209
REMARK UNBOUND:                 1.506
REMARK  Name = ZINC000096316363
REMARK  8 active torsions:
REMARK  status: ('A' for Active; 'I' for Inactive)
REMARK    1  A    between atoms: C_1  and  O_2
REMARK    2  A    between atoms: O_2  and  C_3
REMARK    3  A    between atoms: C_5  and  C_6
REMARK    4  A    between atoms: C_6  and  C_7
REMARK    5  A    between atoms: C_10  and  O_11
REMARK    6  A    between atoms: C_12  and  O_13
REMARK    7  A    between atoms: O_13  and  C_14
REMARK    8  A    between atoms: C_24  and  O_25
REMARK                            x       y       z     vdW  Elec       q    Type
REMARK                         _______ _______ _______ _____ _____    ______ ____
ROOT
ATOM      1  C   UNL     1       0.650   2.279 -23.089  0.00  0.00    +0.111 C 
ATOM      2  C   UNL     1      -0.516   2.554 -23.593  0.00  0.00    -0.020 A 
ATOM      3  C   UNL     1      -0.609   3.006 -24.808  0.00  0.00    +0.055 A 
ATOM      4  C   UNL     1      -1.775   3.281 -25.313  0.00  0.00    +0.159 A 
ATOM      5  C   UNL     1      -2.849   3.104 -24.602  0.00  0.00    +0.162 A 
ATOM      6  C   UNL     1      -2.757   2.652 -23.387  0.00  0.00    +0.053 A 
ATOM      7  C   UNL     1      -1.590   2.376 -22.882  0.00  0.00    -0.037 A 
ATOM      8  C   UNL     1      -1.498   1.924 -21.667  0.00  0.00    +0.054 C 
ATOM      9  C   UNL     1      -0.332   1.649 -21.163  0.00  0.00    +0.113 C 
ATOM     10  N   UNL     1       0.741   1.826 -21.873  0.00  0.00    -0.296 N 
ATOM     11  C   UNL     1       1.908   1.551 -21.369  0.00  0.00    +0.328 C 
ATOM     12  O   UNL     1       2.000   1.099 -20.154  0.00  0.00    -0.279 OA
ENDROOT
BRANCH   5  13
ATOM     13  O   UNL     1      -4.014   3.379 -25.106  0.00  0.00    -0.491 OA
ATOM     14  C   UNL     1      -4.840   4.145 -24.456  0.00  0.00    +0.277 C 
ENDBRANCH   5  13
BRANCH   4  15
ATOM     15  O   UNL     1      -1.866   3.734 -26.528  0.00  0.00    -0.503 OA
ATOM     16  H   UNL     1      -1.776   4.652 -26.694  0.00  0.00    +0.292 HD
ENDBRANCH   4  15
BRANCH   1  17
ATOM     17  C   UNL     1       1.724   2.456 -23.800  0.00  0.00    +0.062 C 
BRANCH  17  20
ATOM     18  C   UNL     1       4.658   4.121 -23.127  0.00  0.00    +0.162 A 
ATOM     19  C   UNL     1       3.828   3.166 -23.430  0.00  0.00    +0.053 A 
ATOM     20  C   UNL     1       2.553   3.410 -23.497  0.00  0.00    -0.042 A 
ATOM     21  C   UNL     1       2.107   4.609 -23.262  0.00  0.00    +0.007 A 
ATOM     22  C   UNL     1       2.936   5.564 -22.960  0.00  0.00    +0.049 A 
ATOM     23  C   UNL     1       4.212   5.320 -22.892  0.00  0.00    +0.158 A 
BRANCH  18  25
ATOM     24  C   UNL     1       6.369   2.899 -22.323  0.00  0.00    +0.277 C 
ATOM     25  O   UNL     1       5.933   3.878 -23.060  0.00  0.00    -0.491 OA
ENDBRANCH  18  25
BRANCH  23  26
ATOM     26  O   UNL     1       5.041   6.274 -22.590  0.00  0.00    -0.503 OA
ATOM     27  H   UNL     1       5.921   6.249 -22.910  0.00  0.00    +0.292 HD
ENDBRANCH  23  26
ENDBRANCH  17  20
ENDBRANCH   1  17
TORSDOF 6
ENDMDL
MODEL 2
REMARK VINA RESULT:    -9.644      1.807      6.998
REMARK INTER + INTRA:         -10.957
REMARK INTER:                 -11.501
REMARK INTRA:                   0.544
REMARK UNBOUND:                 1.506
REMARK  Name = ZINC000096316363
REMARK  8 active torsions:
REMARK  status: ('A' for Active; 'I' for Inactive)
REMARK    1  A    between atoms: C_1  and  O_2
REMARK    2  A    between atoms: O_2  and  C_3
REMARK    3  A    between atoms: C_5  and  C_6
REMARK    4  A    between atoms: C_6  and  C_7
REMARK    5  A    between atoms: C_10  and  O_11
REMARK    6  A    between atoms: C_12  and  O_13
REMARK    7  A    between atoms: O_13  and  C_14
REMARK    8  A    between atoms: C_24  and  O_25
REMARK                            x       y       z     vdW  Elec       q    Type
REMARK                         _______ _______ _______ _____ _____    ______ ____
ROOT
ATOM      1  C   UNL     1       0.136   2.365 -23.347  0.00  0.00    +0.111 C 
ATOM      2  C   UNL     1       1.293   2.311 -22.756  0.00  0.00    -0.020 A 
ATOM      3  C   UNL     1       1.424   1.650 -21.643  0.00  0.00    +0.055 A 
ATOM      4  C   UNL     1       2.581   1.596 -21.052  0.00  0.00    +0.159 A 
ATOM      5  C   UNL     1       3.606   2.203 -21.573  0.00  0.00    +0.162 A 
ATOM      6  C   UNL     1       3.475   2.863 -22.685  0.00  0.00    +0.053 A 
ATOM      7  C   UNL     1       2.318   2.918 -23.277  0.00  0.00    -0.037 A 
ATOM      8  C   UNL     1       2.186   3.578 -24.388  0.00  0.00    +0.054 C 
ATOM      9  C   UNL     1       1.030   3.632 -24.979  0.00  0.00    +0.113 C 
ATOM     10  N   UNL     1       0.006   3.026 -24.459  0.00  0.00    -0.296 N 
ATOM     11  C   UNL     1      -1.152   3.080 -25.050  0.00  0.00    +0.328 C 
ATOM     12  O   UNL     1      -1.283   3.740 -26.162  0.00  0.00    -0.279 OA
ENDROOT
BRANCH   5  13
ATOM     13  O   UNL     1       4.762   2.149 -20.982  0.00  0.00    -0.491 OA
ATOM     14  C   UNL     1       5.773   2.803 -21.471  0.00  0.00    +0.277 C 
ENDBRANCH   5  13
BRANCH   4  15
ATOM     15  O   UNL     1       2.712   0.936 -19.941  0.00  0.00    -0.503 OA
ATOM     16  H   UNL     1       3.565   0.711 -19.627  0.00  0.00    +0.292 HD
ENDBRANCH   4  15
BRANCH   1  17
ATOM     17  C   UNL     1      -0.889   1.758 -22.826  0.00  0.00    +0.062 C 
BRANCH  17  20
ATOM     18  C   UNL     1      -3.867   3.336 -22.137  0.00  0.00    +0.162 A 
ATOM     19  C   UNL     1      -2.955   2.651 -22.762  0.00  0.00    +0.053 A 
ATOM     20  C   UNL     1      -1.801   2.443 -22.202  0.00  0.00    -0.042 A 
ATOM     21  C   UNL     1      -1.559   2.919 -21.016  0.00  0.00    +0.007 A 
ATOM     22  C   UNL     1      -2.470   3.604 -20.392  0.00  0.00    +0.049 A 
ATOM     23  C   UNL     1      -3.625   3.812 -20.953  0.00  0.00    +0.158 A 
BRANCH  18  25
ATOM     24  C   UNL     1      -5.086   3.840 -23.962  0.00  0.00    +0.277 C 
ATOM     25  O   UNL     1      -5.022   3.544 -22.698  0.00  0.00    -0.491 OA
ENDBRANCH  18  25
BRANCH  23  26
ATOM     26  O   UNL     1      -4.536   4.496 -20.328  0.00  0.00    -0.503 OA
ATOM     27  H   UNL     1      -4.403   4.752 -19.437  0.00  0.00    +0.292 HD
ENDBRANCH  23  26
ENDBRANCH  17  20
ENDBRANCH   1  17
TORSDOF 6
ENDMDL
MODEL 3
REMARK VINA RESULT:    -9.267      1.673      6.571
REMARK INTER + INTRA:         -10.469
REMARK INTER:                 -11.082
REMARK INTRA:                   0.612
REMARK UNBOUND:                 1.506
REMARK  Name = ZINC000096316363
REMARK  8 active torsions:
REMARK  status: ('A' for Active; 'I' for Inactive)
REMARK    1  A    between atoms: C_1  and  O_2
REMARK    2  A    between atoms: O_2  and  C_3
REMARK    3  A    between atoms: C_5  and  C_6
REMARK    4  A    between atoms: C_6  and  C_7
REMARK    5  A    between atoms: C_10  and  O_11
REMARK    6  A    between atoms: C_12  and  O_13
REMARK    7  A    between atoms: O_13  and  C_14
REMARK    8  A    between atoms: C_24  and  O_25
REMARK                            x       y       z     vdW  Elec       q    Type
REMARK                         _______ _______ _______ _____ _____    ______ ____
ROOT
ATOM      1  C   UNL     1      -0.383   3.245 -22.522  0.00  0.00    +0.111 C 
ATOM      2  C   UNL     1       0.891   2.989 -22.476  0.00  0.00    -0.020 A 
ATOM      3  C   UNL     1       1.731   3.756 -23.108  0.00  0.00    +0.055 A 
ATOM      4  C   UNL     1       3.004   3.501 -23.062  0.00  0.00    +0.159 A 
ATOM      5  C   UNL     1       3.439   2.480 -22.385  0.00  0.00    +0.162 A 
ATOM      6  C   UNL     1       2.600   1.714 -21.753  0.00  0.00    +0.053 A 
ATOM      7  C   UNL     1       1.326   1.968 -21.799  0.00  0.00    -0.037 A 
ATOM      8  C   UNL     1       0.486   1.203 -21.168  0.00  0.00    +0.054 C 
ATOM      9  C   UNL     1      -0.787   1.458 -21.213  0.00  0.00    +0.113 C 
ATOM     10  N   UNL     1      -1.221   2.478 -21.890  0.00  0.00    -0.296 N 
ATOM     11  C   UNL     1      -2.496   2.734 -21.936  0.00  0.00    +0.328 C 
ATOM     12  O   UNL     1      -3.335   1.968 -21.305  0.00  0.00    -0.279 OA
ENDROOT
BRANCH   5  13
ATOM     13  O   UNL     1       4.713   2.225 -22.339  0.00  0.00    -0.491 OA
ATOM     14  C   UNL     1       5.126   0.998 -22.218  0.00  0.00    +0.277 C 
ENDBRANCH   5  13
BRANCH   4  15
ATOM     15  O   UNL     1       3.843   4.267 -23.694  0.00  0.00    -0.503 OA
ATOM     16  H   UNL     1       4.650   3.914 -24.014  0.00  0.00    +0.292 HD
ENDBRANCH   4  15
BRANCH   1  17
ATOM     17  C   UNL     1      -0.817   4.266 -23.200  0.00  0.00    +0.062 C 
BRANCH  17  20
ATOM     18  C   UNL     1      -3.582   4.243 -25.245  0.00  0.00    +0.162 A 
ATOM     19  C   UNL     1      -2.826   4.428 -24.204  0.00  0.00    +0.053 A 
ATOM     20  C   UNL     1      -1.574   4.081 -24.240  0.00  0.00    -0.042 A 
ATOM     21  C   UNL     1      -1.078   3.550 -25.319  0.00  0.00    +0.007 A 
ATOM     22  C   UNL     1      -1.834   3.365 -26.359  0.00  0.00    +0.049 A 
ATOM     23  C   UNL     1      -3.086   3.711 -26.323  0.00  0.00    +0.158 A 
BRANCH  18  25
ATOM     24  C   UNL     1      -5.617   4.102 -24.292  0.00  0.00    +0.277 C 
ATOM     25  O   UNL     1      -4.835   4.589 -25.208  0.00  0.00    -0.491 OA
ENDBRANCH  18  25
BRANCH  23  26
ATOM     26  O   UNL     1      -3.842   3.527 -27.363  0.00  0.00    -0.503 OA
ATOM     27  H   UNL     1      -3.729   4.060 -28.126  0.00  0.00    +0.292 HD
ENDBRANCH  23  26
ENDBRANCH  17  20
ENDBRANCH   1  17
TORSDOF 6
ENDMDL
MODEL 4
REMARK VINA RESULT:    -9.223      2.177      3.753
REMARK INTER + INTRA:         -10.413
REMARK INTER:                 -10.576
REMARK INTRA:                   0.163
REMARK UNBOUND:                 1.506
REMARK  Name = ZINC000096316363
REMARK  8 active torsions:
REMARK  status: ('A' for Active; 'I' for Inactive)
REMARK    1  A    between atoms: C_1  and  O_2
REMARK    2  A    between atoms: O_2  and  C_3
REMARK    3  A    between atoms: C_5  and  C_6
REMARK    4  A    between atoms: C_6  and  C_7
REMARK    5  A    between atoms: C_10  and  O_11
REMARK    6  A    between atoms: C_12  and  O_13
REMARK    7  A    between atoms: O_13  and  C_14
REMARK    8  A    between atoms: C_24  and  O_25
REMARK                            x       y       z     vdW  Elec       q    Type
REMARK                         _______ _______ _______ _____ _____    ______ ____
ROOT
ATOM      1  C   UNL     1      -0.432   3.835 -23.458  0.00  0.00    +0.111 C 
ATOM      2  C   UNL     1      -1.619   3.625 -22.971  0.00  0.00    -0.020 A 
ATOM      3  C   UNL     1      -1.796   3.592 -21.683  0.00  0.00    +0.055 A 
ATOM      4  C   UNL     1      -2.983   3.383 -21.196  0.00  0.00    +0.159 A 
ATOM      5  C   UNL     1      -3.992   3.206 -21.996  0.00  0.00    +0.162 A 
ATOM      6  C   UNL     1      -3.815   3.238 -23.283  0.00  0.00    +0.053 A 
ATOM      7  C   UNL     1      -2.628   3.448 -23.771  0.00  0.00    -0.037 A 
ATOM      8  C   UNL     1      -2.451   3.481 -25.058  0.00  0.00    +0.054 C 
ATOM      9  C   UNL     1      -1.264   3.690 -25.545  0.00  0.00    +0.113 C 
ATOM     10  N   UNL     1      -0.256   3.867 -24.746  0.00  0.00    -0.296 N 
ATOM     11  C   UNL     1       0.932   4.077 -25.234  0.00  0.00    +0.328 C 
ATOM     12  O   UNL     1       1.109   4.110 -26.521  0.00  0.00    -0.279 OA
ENDROOT
BRANCH   5  13
ATOM     13  O   UNL     1      -5.178   2.996 -21.508  0.00  0.00    -0.491 OA
ATOM     14  C   UNL     1      -6.228   3.176 -22.253  0.00  0.00    +0.277 C 
ENDBRANCH   5  13
BRANCH   4  15
ATOM     15  O   UNL     1      -3.159   3.350 -19.909  0.00  0.00    -0.503 OA
ATOM     16  H   UNL     1      -2.984   2.563 -19.431  0.00  0.00    +0.292 HD
ENDBRANCH   4  15
BRANCH   1  17
ATOM     17  C   UNL     1       0.578   4.012 -22.659  0.00  0.00    +0.062 C 
BRANCH  17  20
ATOM     18  C   UNL     1       3.590   2.373 -22.395  0.00  0.00    +0.162 A 
ATOM     19  C   UNL     1       2.719   3.324 -22.563  0.00  0.00    +0.053 A 
ATOM     20  C   UNL     1       1.448   3.062 -22.491  0.00  0.00    -0.042 A 
ATOM     21  C   UNL     1       1.048   1.848 -22.250  0.00  0.00    +0.007 A 
ATOM     22  C   UNL     1       1.918   0.897 -22.082  0.00  0.00    +0.049 A 
ATOM     23  C   UNL     1       3.189   1.160 -22.155  0.00  0.00    +0.158 A 
BRANCH  18  25
ATOM     24  C   UNL     1       5.358   3.151 -23.552  0.00  0.00    +0.277 C 
ATOM     25  O   UNL     1       4.861   2.635 -22.467  0.00  0.00    -0.491 OA
ENDBRANCH  18  25
BRANCH  23  26
ATOM     26  O   UNL     1       4.060   0.210 -21.987  0.00  0.00    -0.503 OA
ATOM     27  H   UNL     1       3.863  -0.662 -22.269  0.00  0.00    +0.292 HD
ENDBRANCH  23  26
ENDBRANCH  17  20
ENDBRANCH   1  17
TORSDOF 6
ENDMDL
MODEL 5
REMARK VINA RESULT:    -9.058      1.628      2.851
REMARK INTER + INTRA:         -10.199
REMARK INTER:                 -10.335
REMARK INTRA:                   0.136
REMARK UNBOUND:                 1.506
REMARK  Name = ZINC000096316363
REMARK  8 active torsions:
REMARK  status: ('A' for Active; 'I' for Inactive)
REMARK    1  A    between atoms: C_1  and  O_2
REMARK    2  A    between atoms: O_2  and  C_3
REMARK    3  A    between atoms: C_5  and  C_6
REMARK    4  A    between atoms: C_6  and  C_7
REMARK    5  A    between atoms: C_10  and  O_11
REMARK    6  A    between atoms: C_12  and  O_13
REMARK    7  A    between atoms: O_13  and  C_14
REMARK    8  A    between atoms: C_24  and  O_25
REMARK                            x       y       z     vdW  Elec       q    Type
REMARK                         _______ _______ _______ _____ _____    ______ ____
ROOT
ATOM      1  C   UNL     1       3.228   2.038 -23.173  0.00  0.00    +0.111 C 
ATOM      2  C   UNL     1       2.082   2.468 -23.612  0.00  0.00    -0.020 A 
ATOM      3  C   UNL     1       2.022   3.125 -24.733  0.00  0.00    +0.055 A 
ATOM      4  C   UNL     1       0.877   3.555 -25.173  0.00  0.00    +0.159 A 
ATOM      5  C   UNL     1      -0.207   3.329 -24.493  0.00  0.00    +0.162 A 
ATOM      6  C   UNL     1      -0.147   2.673 -23.373  0.00  0.00    +0.053 A 
ATOM      7  C   UNL     1       0.998   2.242 -22.932  0.00  0.00    -0.037 A 
ATOM      8  C   UNL     1       1.059   1.585 -21.812  0.00  0.00    +0.054 C 
ATOM      9  C   UNL     1       2.203   1.155 -21.372  0.00  0.00    +0.113 C 
ATOM     10  N   UNL     1       3.287   1.381 -22.052  0.00  0.00    -0.296 N 
ATOM     11  C   UNL     1       4.433   0.950 -21.612  0.00  0.00    +0.328 C 
ATOM     12  O   UNL     1       4.493   0.293 -20.492  0.00  0.00    -0.279 OA
ENDROOT
BRANCH   5  13
ATOM     13  O   UNL     1      -1.352   3.760 -24.933  0.00  0.00    -0.491 OA
ATOM     14  C   UNL     1      -2.401   2.995 -24.872  0.00  0.00    +0.277 C 
ENDBRANCH   5  13
BRANCH   4  15
ATOM     15  O   UNL     1       0.817   4.212 -26.293  0.00  0.00    -0.503 OA
ATOM     16  H   UNL     1       1.060   5.117 -26.319  0.00  0.00    +0.292 HD
ENDBRANCH   4  15
BRANCH   1  17
ATOM     17  C   UNL     1       4.312   2.264 -23.853  0.00  0.00    +0.062 C 
BRANCH  17  20
ATOM     18  C   UNL     1       5.318   5.345 -22.703  0.00  0.00    +0.162 A 
ATOM     19  C   UNL     1       4.556   4.337 -23.010  0.00  0.00    +0.053 A 
ATOM     20  C   UNL     1       5.073   3.272 -23.546  0.00  0.00    -0.042 A 
ATOM     21  C   UNL     1       6.352   3.215 -23.776  0.00  0.00    +0.007 A 
ATOM     22  C   UNL     1       7.113   4.223 -23.470  0.00  0.00    +0.049 A 
ATOM     23  C   UNL     1       6.596   5.288 -22.933  0.00  0.00    +0.158 A 
BRANCH  18  25
ATOM     24  C   UNL     1       3.560   6.718 -22.398  0.00  0.00    +0.277 C 
ATOM     25  O   UNL     1       4.801   6.411 -22.167  0.00  0.00    -0.491 OA
ENDBRANCH  18  25
BRANCH  23  26
ATOM     26  O   UNL     1       7.357   6.296 -22.627  0.00  0.00    -0.503 OA
ATOM     27  H   UNL     1       7.928   6.666 -23.272  0.00  0.00    +0.292 HD
ENDBRANCH  23  26
ENDBRANCH  17  20
ENDBRANCH   1  17
TORSDOF 6
ENDMDL
MODEL 6
REMARK VINA RESULT:    -8.400      1.963      2.358
REMARK INTER + INTRA:          -9.349
REMARK INTER:                  -9.962
REMARK INTRA:                   0.612
REMARK UNBOUND:                 1.506
REMARK  Name = ZINC000096316363
REMARK  8 active torsions:
REMARK  status: ('A' for Active; 'I' for Inactive)
REMARK    1  A    between atoms: C_1  and  O_2
REMARK    2  A    between atoms: O_2  and  C_3
REMARK    3  A    between atoms: C_5  and  C_6
REMARK    4  A    between atoms: C_6  and  C_7
REMARK    5  A    between atoms: C_10  and  O_11
REMARK    6  A    between atoms: C_12  and  O_13
REMARK    7  A    between atoms: O_13  and  C_14
REMARK    8  A    between atoms: C_24  and  O_25
REMARK                            x       y       z     vdW  Elec       q    Type
REMARK                         _______ _______ _______ _____ _____    ______ ____
ROOT
ATOM      1  C   UNL     1       2.311   2.874 -23.093  0.00  0.00    +0.111 C 
ATOM      2  C   UNL     1       1.040   3.029 -22.869  0.00  0.00    -0.020 A 
ATOM      3  C   UNL     1       0.408   4.041 -23.387  0.00  0.00    +0.055 A 
ATOM      4  C   UNL     1      -0.863   4.196 -23.164  0.00  0.00    +0.159 A 
ATOM      5  C   UNL     1      -1.503   3.340 -22.424  0.00  0.00    +0.162 A 
ATOM      6  C   UNL     1      -0.872   2.329 -21.906  0.00  0.00    +0.053 A 
ATOM      7  C   UNL     1       0.400   2.173 -22.129  0.00  0.00    -0.037 A 
ATOM      8  C   UNL     1       1.032   1.162 -21.612  0.00  0.00    +0.054 C 
ATOM      9  C   UNL     1       2.302   1.006 -21.835  0.00  0.00    +0.113 C 
ATOM     10  N   UNL     1       2.942   1.861 -22.575  0.00  0.00    -0.296 N 
ATOM     11  C   UNL     1       4.214   1.706 -22.798  0.00  0.00    +0.328 C 
ATOM     12  O   UNL     1       4.845   0.694 -22.280  0.00  0.00    -0.279 OA
ENDROOT
BRANCH   5  13
ATOM     13  O   UNL     1      -2.774   3.496 -22.201  0.00  0.00    -0.491 OA
ATOM     14  C   UNL     1      -3.223   3.512 -20.981  0.00  0.00    +0.277 C 
ENDBRANCH   5  13
BRANCH   4  15
ATOM     15  O   UNL     1      -1.494   5.208 -23.681  0.00  0.00    -0.503 OA
ATOM     16  H   UNL     1      -1.095   5.709 -24.365  0.00  0.00    +0.292 HD
ENDBRANCH   4  15
BRANCH   1  17
ATOM     17  C   UNL     1       2.951   3.730 -23.833  0.00  0.00    +0.062 C 
BRANCH  17  20
ATOM     18  C   UNL     1       5.583   5.521 -22.533  0.00  0.00    +0.162 A 
ATOM     19  C   UNL     1       4.907   4.559 -23.088  0.00  0.00    +0.053 A 
ATOM     20  C   UNL     1       3.627   4.691 -23.278  0.00  0.00    -0.042 A 
ATOM     21  C   UNL     1       3.025   5.784 -22.913  0.00  0.00    +0.007 A 
ATOM     22  C   UNL     1       3.701   6.745 -22.358  0.00  0.00    +0.049 A 
ATOM     23  C   UNL     1       4.981   6.614 -22.168  0.00  0.00    +0.158 A 
BRANCH  18  25
ATOM     24  C   UNL     1       7.346   4.255 -21.933  0.00  0.00    +0.277 C 
ATOM     25  O   UNL     1       6.863   5.390 -22.343  0.00  0.00    -0.491 OA
ENDBRANCH  18  25
BRANCH  23  26
ATOM     26  O   UNL     1       5.657   7.575 -21.613  0.00  0.00    -0.503 OA
ATOM     27  H   UNL     1       5.576   7.735 -20.694  0.00  0.00    +0.292 HD
ENDBRANCH  23  26
ENDBRANCH  17  20
ENDBRANCH   1  17
TORSDOF 6
ENDMDL
MODEL 7
REMARK VINA RESULT:    -8.189      2.030      7.017
REMARK INTER + INTRA:          -9.076
REMARK INTER:                 -10.384
REMARK INTRA:                   1.308
REMARK UNBOUND:                 1.506
REMARK  Name = ZINC000096316363
REMARK  8 active torsions:
REMARK  status: ('A' for Active; 'I' for Inactive)
REMARK    1  A    between atoms: C_1  and  O_2
REMARK    2  A    between atoms: O_2  and  C_3
REMARK    3  A    between atoms: C_5  and  C_6
REMARK    4  A    between atoms: C_6  and  C_7
REMARK    5  A    between atoms: C_10  and  O_11
REMARK    6  A    between atoms: C_12  and  O_13
REMARK    7  A    between atoms: O_13  and  C_14
REMARK    8  A    between atoms: C_24  and  O_25
REMARK                            x       y       z     vdW  Elec       q    Type
REMARK                         _______ _______ _______ _____ _____    ______ ____
ROOT
ATOM      1  C   UNL     1       0.198   3.372 -22.940  0.00  0.00    +0.111 C 
ATOM      2  C   UNL     1       1.319   2.713 -22.927  0.00  0.00    -0.020 A 
ATOM      3  C   UNL     1       1.316   1.431 -22.707  0.00  0.00    +0.055 A 
ATOM      4  C   UNL     1       2.436   0.772 -22.693  0.00  0.00    +0.159 A 
ATOM      5  C   UNL     1       3.559   1.394 -22.899  0.00  0.00    +0.162 A 
ATOM      6  C   UNL     1       3.562   2.675 -23.119  0.00  0.00    +0.053 A 
ATOM      7  C   UNL     1       2.441   3.335 -23.133  0.00  0.00    -0.037 A 
ATOM      8  C   UNL     1       2.444   4.615 -23.352  0.00  0.00    +0.054 C 
ATOM      9  C   UNL     1       1.324   5.275 -23.366  0.00  0.00    +0.113 C 
ATOM     10  N   UNL     1       0.202   4.653 -23.160  0.00  0.00    -0.296 N 
ATOM     11  C   UNL     1      -0.920   5.313 -23.174  0.00  0.00    +0.328 C 
ATOM     12  O   UNL     1      -0.917   6.594 -23.394  0.00  0.00    -0.279 OA
ENDROOT
BRANCH   5  13
ATOM     13  O   UNL     1       4.679   0.735 -22.885  0.00  0.00    -0.491 OA
ATOM     14  C   UNL     1       5.441   0.769 -21.832  0.00  0.00    +0.277 C 
ENDBRANCH   5  13
BRANCH   4  15
ATOM     15  O   UNL     1       2.433  -0.509 -22.473  0.00  0.00    -0.503 OA
ATOM     16  H   UNL     1       2.920  -1.082 -23.033  0.00  0.00    +0.292 HD
ENDBRANCH   4  15
BRANCH   1  17
ATOM     17  C   UNL     1      -0.925   2.750 -22.734  0.00  0.00    +0.062 C 
BRANCH  17  20
ATOM     18  C   UNL     1      -4.107   3.409 -23.861  0.00  0.00    +0.162 A 
ATOM     19  C   UNL     1      -3.103   3.221 -23.056  0.00  0.00    +0.053 A 
ATOM     20  C   UNL     1      -1.929   2.938 -23.538  0.00  0.00    -0.042 A 
ATOM     21  C   UNL     1      -1.760   2.843 -24.824  0.00  0.00    +0.007 A 
ATOM     22  C   UNL     1      -2.764   3.032 -25.627  0.00  0.00    +0.049 A 
ATOM     23  C   UNL     1      -3.937   3.315 -25.146  0.00  0.00    +0.158 A 
BRANCH  18  25
ATOM     24  C   UNL     1      -5.610   3.288 -22.188  0.00  0.00    +0.277 C 
ATOM     25  O   UNL     1      -5.281   3.692 -23.379  0.00  0.00    -0.491 OA
ENDBRANCH  18  25
BRANCH  23  26
ATOM     26  O   UNL     1      -4.941   3.503 -25.949  0.00  0.00    -0.503 OA
ATOM     27  H   UNL     1      -5.784   3.723 -25.603  0.00  0.00    +0.292 HD
ENDBRANCH  23  26
ENDBRANCH  17  20
ENDBRANCH   1  17
TORSDOF 6
ENDMDL
MODEL 8
REMARK VINA RESULT:    -7.999      2.101      6.999
REMARK INTER + INTRA:          -8.830
REMARK INTER:                  -9.659
REMARK INTRA:                   0.828
REMARK UNBOUND:                 1.506
REMARK  Name = ZINC000096316363
REMARK  8 active torsions:
REMARK  status: ('A' for Active; 'I' for Inactive)
REMARK    1  A    between atoms: C_1  and  O_2
REMARK    2  A    between atoms: O_2  and  C_3
REMARK    3  A    between atoms: C_5  and  C_6
REMARK    4  A    between atoms: C_6  and  C_7
REMARK    5  A    between atoms: C_10  and  O_11
REMARK    6  A    between atoms: C_12  and  O_13
REMARK    7  A    between atoms: O_13  and  C_14
REMARK    8  A    between atoms: C_24  and  O_25
REMARK                            x       y       z     vdW  Elec       q    Type
REMARK                         _______ _______ _______ _____ _____    ______ ____
ROOT
ATOM      1  C   UNL     1       0.244   3.227 -23.471  0.00  0.00    +0.111 C 
ATOM      2  C   UNL     1       1.372   2.648 -23.180  0.00  0.00    -0.020 A 
ATOM      3  C   UNL     1       1.451   1.350 -23.167  0.00  0.00    +0.055 A 
ATOM      4  C   UNL     1       2.577   0.770 -22.876  0.00  0.00    +0.159 A 
ATOM      5  C   UNL     1       3.625   1.488 -22.598  0.00  0.00    +0.162 A 
ATOM      6  C   UNL     1       3.546   2.786 -22.611  0.00  0.00    +0.053 A 
ATOM      7  C   UNL     1       2.419   3.366 -22.902  0.00  0.00    -0.037 A 
ATOM      8  C   UNL     1       2.340   4.663 -22.916  0.00  0.00    +0.054 C 
ATOM      9  C   UNL     1       1.213   5.242 -23.206  0.00  0.00    +0.113 C 
ATOM     10  N   UNL     1       0.167   4.525 -23.484  0.00  0.00    -0.296 N 
ATOM     11  C   UNL     1      -0.961   5.105 -23.775  0.00  0.00    +0.328 C 
ATOM     12  O   UNL     1      -1.040   6.402 -23.788  0.00  0.00    -0.279 OA
ENDROOT
BRANCH   5  13
ATOM     13  O   UNL     1       4.751   0.909 -22.308  0.00  0.00    -0.491 OA
ATOM     14  C   UNL     1       5.319   1.130 -21.159  0.00  0.00    +0.277 C 
ENDBRANCH   5  13
BRANCH   4  15
ATOM     15  O   UNL     1       2.656  -0.527 -22.863  0.00  0.00    -0.503 OA
ATOM     16  H   UNL     1       2.487  -0.999 -22.071  0.00  0.00    +0.292 HD
ENDBRANCH   4  15
BRANCH   1  17
ATOM     17  C   UNL     1      -0.803   2.509 -23.749  0.00  0.00    +0.062 C 
BRANCH  17  20
ATOM     18  C   UNL     1      -4.082   3.225 -22.996  0.00  0.00    +0.162 A 
ATOM     19  C   UNL     1      -2.984   3.062 -23.674  0.00  0.00    +0.053 A 
ATOM     20  C   UNL     1      -1.901   2.672 -23.072  0.00  0.00    -0.042 A 
ATOM     21  C   UNL     1      -1.915   2.444 -21.791  0.00  0.00    +0.007 A 
ATOM     22  C   UNL     1      -3.012   2.607 -21.114  0.00  0.00    +0.049 A 
ATOM     23  C   UNL     1      -4.096   2.997 -21.717  0.00  0.00    +0.158 A 
BRANCH  18  25
ATOM     24  C   UNL     1      -5.091   4.433 -24.606  0.00  0.00    +0.277 C 
ATOM     25  O   UNL     1      -5.166   3.615 -23.599  0.00  0.00    -0.491 OA
ENDBRANCH  18  25
BRANCH  23  26
ATOM     26  O   UNL     1      -5.193   3.160 -21.039  0.00  0.00    -0.503 OA
ATOM     27  H   UNL     1      -5.469   4.021 -20.794  0.00  0.00    +0.292 HD
ENDBRANCH  23  26
ENDBRANCH  17  20
ENDBRANCH   1  17
TORSDOF 6
ENDMDL
MODEL 9
REMARK VINA RESULT:    -7.972      2.277      3.760
REMARK INTER + INTRA:          -8.797
REMARK INTER:                 -10.303
REMARK INTRA:                   1.506
REMARK UNBOUND:                 1.506
REMARK  Name = ZINC000096316363
REMARK  8 active torsions:
REMARK  status: ('A' for Active; 'I' for Inactive)
REMARK    1  A    between atoms: C_1  and  O_2
REMARK    2  A    between atoms: O_2  and  C_3
REMARK    3  A    between atoms: C_5  and  C_6
REMARK    4  A    between atoms: C_6  and  C_7
REMARK    5  A    between atoms: C_10  and  O_11
REMARK    6  A    between atoms: C_12  and  O_13
REMARK    7  A    between atoms: O_13  and  C_14
REMARK    8  A    between atoms: C_24  and  O_25
REMARK                            x       y       z     vdW  Elec       q    Type
REMARK                         _______ _______ _______ _____ _____    ______ ____
ROOT
ATOM      1  C   UNL     1      -2.312   3.814 -22.434  0.00  0.00    +0.111 C 
ATOM      2  C   UNL     1      -2.811   3.638 -23.621  0.00  0.00    -0.020 A 
ATOM      3  C   UNL     1      -2.039   3.703 -24.666  0.00  0.00    +0.055 A 
ATOM      4  C   UNL     1      -2.537   3.527 -25.854  0.00  0.00    +0.159 A 
ATOM      5  C   UNL     1      -3.807   3.286 -25.997  0.00  0.00    +0.162 A 
ATOM      6  C   UNL     1      -4.578   3.221 -24.953  0.00  0.00    +0.053 A 
ATOM      7  C   UNL     1      -4.080   3.397 -23.765  0.00  0.00    -0.037 A 
ATOM      8  C   UNL     1      -4.851   3.332 -22.721  0.00  0.00    +0.054 C 
ATOM      9  C   UNL     1      -4.353   3.508 -21.533  0.00  0.00    +0.113 C 
ATOM     10  N   UNL     1      -3.084   3.748 -21.390  0.00  0.00    -0.296 N 
ATOM     11  C   UNL     1      -2.585   3.924 -20.201  0.00  0.00    +0.328 C 
ATOM     12  O   UNL     1      -3.357   3.859 -19.157  0.00  0.00    -0.279 OA
ENDROOT
BRANCH   5  13
ATOM     13  O   UNL     1      -4.305   3.111 -27.185  0.00  0.00    -0.491 OA
ATOM     14  C   UNL     1      -3.647   3.512 -28.232  0.00  0.00    +0.277 C 
ENDBRANCH   5  13
BRANCH   4  15
ATOM     15  O   UNL     1      -1.766   3.592 -26.898  0.00  0.00    -0.503 OA
ATOM     16  H   UNL     1      -1.985   3.114 -27.673  0.00  0.00    +0.292 HD
ENDBRANCH   4  15
BRANCH   1  17
ATOM     17  C   UNL     1      -1.042   4.054 -22.290  0.00  0.00    +0.062 C 
BRANCH  17  20
ATOM     18  C   UNL     1       1.739   2.228 -23.159  0.00  0.00    +0.162 A 
ATOM     19  C   UNL     1       0.881   3.203 -23.092  0.00  0.00    +0.053 A 
ATOM     20  C   UNL     1      -0.184   3.081 -22.358  0.00  0.00    -0.042 A 
ATOM     21  C   UNL     1      -0.392   1.984 -21.690  0.00  0.00    +0.007 A 
ATOM     22  C   UNL     1       0.466   1.010 -21.758  0.00  0.00    +0.049 A 
ATOM     23  C   UNL     1       1.532   1.132 -22.492  0.00  0.00    +0.158 A 
BRANCH  18  25
ATOM     24  C   UNL     1       3.704   3.238 -23.592  0.00  0.00    +0.277 C 
ATOM     25  O   UNL     1       2.805   2.350 -23.894  0.00  0.00    -0.491 OA
ENDBRANCH  18  25
BRANCH  23  26
ATOM     26  O   UNL     1       2.390   0.158 -22.560  0.00  0.00    -0.503 OA
ATOM     27  H   UNL     1       3.236   0.304 -22.933  0.00  0.00    +0.292 HD
ENDBRANCH  23  26
ENDBRANCH  17  20
ENDBRANCH   1  17
TORSDOF 6
ENDMDL
