MODEL 1
REMARK VINA RESULT:   -10.333      0.000      0.000
REMARK INTER + INTRA:         -11.707
REMARK INTER:                 -11.495
REMARK INTRA:                  -0.212
REMARK UNBOUND:                -0.167
REMARK  Name = COc1cc2c(cc1OC)C1=C(NC2)c2cc3c(cc2CC1)OCO3                           ZINC000100392865
REMARK  4 active torsions:
REMARK  status: ('A' for Active; 'I' for Inactive)
REMARK    1  A    between atoms: C_1  and  O_2
REMARK    2  A    between atoms: O_2  and  C_3
REMARK    3  A    between atoms: C_8  and  O_9
REMARK    4  A    between atoms: O_9  and  C_10
REMARK                            x       y       z     vdW  Elec       q    Type
REMARK                         _______ _______ _______ _____ _____    ______ ____
ROOT
ATOM      1  C   UNL     1      -3.889   3.524 -23.444  0.00  0.00    +0.162 A 
ATOM      2  C   UNL     1      -3.345   2.966 -22.402  0.00  0.00    +0.055 A 
ATOM      3  C   UNL     1      -2.086   2.645 -22.420  0.00  0.00    -0.019 A 
ATOM      4  C   UNL     1      -1.370   2.881 -23.479  0.00  0.00    -0.012 A 
ATOM      5  C   UNL     1      -0.110   2.560 -23.497  0.00  0.00    -0.018 C 
ATOM      6  C   UNL     1       0.434   2.003 -22.455  0.00  0.00    +0.039 C 
ATOM      7  C   UNL     1       1.693   1.681 -22.473  0.00  0.00    +0.003 A 
ATOM      8  C   UNL     1       2.236   1.124 -21.432  0.00  0.00    +0.059 A 
ATOM      9  C   UNL     1       3.496   0.803 -21.449  0.00  0.00    +0.167 A 
ATOM     10  C   UNL     1       4.213   1.039 -22.508  0.00  0.00    +0.167 A 
ATOM     11  O   UNL     1       5.424   0.629 -22.273  0.00  0.00    -0.453 OA
ATOM     12  C   UNL     1       5.456   0.140 -21.069  0.00  0.00    +0.466 C 
ATOM     13  C   UNL     1       3.668   1.597 -23.549  0.00  0.00    +0.053 A 
ATOM     14  O   UNL     1       4.265   0.247 -20.560  0.00  0.00    -0.453 OA
ATOM     15  C   UNL     1       2.409   1.918 -23.531  0.00  0.00    -0.034 A 
ATOM     16  C   UNL     1       1.866   2.475 -24.573  0.00  0.00    +0.040 C 
ATOM     17  N   UNL     1      -0.283   1.766 -21.396  0.00  0.00    -0.339 N 
ATOM     18  H   UNL     1       0.129   1.344 -20.608  0.00  0.00    +0.146 HD
ATOM     19  C   UNL     1       0.606   2.797 -24.555  0.00  0.00    +0.042 C 
ATOM     20  C   UNL     1      -1.913   3.439 -24.520  0.00  0.00    +0.058 A 
ATOM     21  C   UNL     1      -1.543   2.087 -21.379  0.00  0.00    +0.137 C 
ATOM     22  C   UNL     1      -3.172   3.760 -24.502  0.00  0.00    +0.162 A 
ENDROOT
BRANCH   1  24
ATOM     23  C   UNL     1      -5.919   3.399 -22.479  0.00  0.00    +0.277 C 
ATOM     24  O   UNL     1      -5.147   3.845 -23.426  0.00  0.00    -0.491 OA
ENDBRANCH   1  24
BRANCH  22  25
ATOM     25  O   UNL     1      -3.716   4.318 -25.543  0.00  0.00    -0.491 OA
ATOM     26  C   UNL     1      -3.652   3.731 -26.702  0.00  0.00    +0.277 C 
ENDBRANCH  22  25
TORSDOF 2
ENDMDL
MODEL 2
REMARK VINA RESULT:   -10.283      1.509      7.624
REMARK INTER + INTRA:         -11.652
REMARK INTER:                 -11.438
REMARK INTRA:                  -0.213
REMARK UNBOUND:                -0.167
REMARK  Name = COc1cc2c(cc1OC)C1=C(NC2)c2cc3c(cc2CC1)OCO3                           ZINC000100392865
REMARK  4 active torsions:
REMARK  status: ('A' for Active; 'I' for Inactive)
REMARK    1  A    between atoms: C_1  and  O_2
REMARK    2  A    between atoms: O_2  and  C_3
REMARK    3  A    between atoms: C_8  and  O_9
REMARK    4  A    between atoms: O_9  and  C_10
REMARK                            x       y       z     vdW  Elec       q    Type
REMARK                         _______ _______ _______ _____ _____    ______ ____
ROOT
ATOM      1  C   UNL     1       4.815   2.615 -22.767  0.00  0.00    +0.162 A 
ATOM      2  C   UNL     1       4.101   3.280 -23.628  0.00  0.00    +0.055 A 
ATOM      3  C   UNL     1       2.805   3.278 -23.536  0.00  0.00    -0.019 A 
ATOM      4  C   UNL     1       2.222   2.612 -22.583  0.00  0.00    -0.012 A 
ATOM      5  C   UNL     1       0.924   2.611 -22.491  0.00  0.00    -0.018 C 
ATOM      6  C   UNL     1       0.211   3.274 -23.351  0.00  0.00    +0.039 C 
ATOM      7  C   UNL     1      -1.086   3.273 -23.259  0.00  0.00    +0.003 A 
ATOM      8  C   UNL     1      -1.799   3.937 -24.120  0.00  0.00    +0.059 A 
ATOM      9  C   UNL     1      -3.096   3.935 -24.028  0.00  0.00    +0.167 A 
ATOM     10  C   UNL     1      -3.680   3.270 -23.075  0.00  0.00    +0.167 A 
ATOM     11  O   UNL     1      -4.964   3.428 -23.203  0.00  0.00    -0.453 OA
ATOM     12  C   UNL     1      -5.174   4.191 -24.234  0.00  0.00    +0.466 C 
ATOM     13  C   UNL     1      -2.965   2.606 -22.215  0.00  0.00    +0.053 A 
ATOM     14  O   UNL     1      -4.020   4.504 -24.744  0.00  0.00    -0.453 OA
ATOM     15  C   UNL     1      -1.669   2.608 -22.307  0.00  0.00    -0.034 A 
ATOM     16  C   UNL     1      -0.955   1.944 -21.447  0.00  0.00    +0.040 C 
ATOM     17  N   UNL     1       0.795   3.940 -24.304  0.00  0.00    -0.339 N 
ATOM     18  H   UNL     1       0.253   4.443 -24.956  0.00  0.00    +0.146 HD
ATOM     19  C   UNL     1       0.342   1.945 -21.539  0.00  0.00    +0.042 C 
ATOM     20  C   UNL     1       2.935   1.949 -21.723  0.00  0.00    +0.058 A 
ATOM     21  C   UNL     1       2.091   3.941 -24.396  0.00  0.00    +0.137 C 
ATOM     22  C   UNL     1       4.232   1.950 -21.815  0.00  0.00    +0.162 A 
ENDROOT
BRANCH   1  24
ATOM     23  C   UNL     1       6.720   3.605 -23.447  0.00  0.00    +0.277 C 
ATOM     24  O   UNL     1       6.111   2.617 -22.860  0.00  0.00    -0.491 OA
ENDBRANCH   1  24
BRANCH  22  25
ATOM     25  O   UNL     1       4.946   1.286 -20.955  0.00  0.00    -0.491 OA
ATOM     26  C   UNL     1       4.599   0.079 -20.617  0.00  0.00    +0.277 C 
ENDBRANCH  22  25
TORSDOF 2
ENDMDL
MODEL 3
REMARK VINA RESULT:   -10.069      1.178      7.181
REMARK INTER + INTRA:         -11.413
REMARK INTER:                 -11.279
REMARK INTRA:                  -0.134
REMARK UNBOUND:                -0.167
REMARK  Name = COc1cc2c(cc1OC)C1=C(NC2)c2cc3c(cc2CC1)OCO3                           ZINC000100392865
REMARK  4 active torsions:
REMARK  status: ('A' for Active; 'I' for Inactive)
REMARK    1  A    between atoms: C_1  and  O_2
REMARK    2  A    between atoms: O_2  and  C_3
REMARK    3  A    between atoms: C_8  and  O_9
REMARK    4  A    between atoms: O_9  and  C_10
REMARK                            x       y       z     vdW  Elec       q    Type
REMARK                         _______ _______ _______ _____ _____    ______ ____
ROOT
ATOM      1  C   UNL     1       3.972   1.679 -21.811  0.00  0.00    +0.162 A 
ATOM      2  C   UNL     1       2.935   1.356 -21.095  0.00  0.00    +0.055 A 
ATOM      3  C   UNL     1       1.748   1.731 -21.465  0.00  0.00    -0.019 A 
ATOM      4  C   UNL     1       1.595   2.430 -22.550  0.00  0.00    -0.012 A 
ATOM      5  C   UNL     1       0.407   2.805 -22.920  0.00  0.00    -0.018 C 
ATOM      6  C   UNL     1      -0.629   2.482 -22.205  0.00  0.00    +0.039 C 
ATOM      7  C   UNL     1      -1.818   2.857 -22.574  0.00  0.00    +0.003 A 
ATOM      8  C   UNL     1      -2.854   2.534 -21.858  0.00  0.00    +0.059 A 
ATOM      9  C   UNL     1      -4.042   2.909 -22.228  0.00  0.00    +0.167 A 
ATOM     10  C   UNL     1      -4.195   3.608 -23.314  0.00  0.00    +0.167 A 
ATOM     11  O   UNL     1      -5.464   3.852 -23.459  0.00  0.00    -0.453 OA
ATOM     12  C   UNL     1      -6.095   3.304 -22.463  0.00  0.00    +0.466 C 
ATOM     13  C   UNL     1      -3.158   3.931 -24.029  0.00  0.00    +0.053 A 
ATOM     14  O   UNL     1      -5.217   2.721 -21.703  0.00  0.00    -0.453 OA
ATOM     15  C   UNL     1      -1.970   3.556 -23.659  0.00  0.00    -0.034 A 
ATOM     16  C   UNL     1      -0.934   3.879 -24.375  0.00  0.00    +0.040 C 
ATOM     17  N   UNL     1      -0.476   1.783 -21.119  0.00  0.00    -0.339 N 
ATOM     18  H   UNL     1      -1.262   1.538 -20.577  0.00  0.00    +0.146 HD
ATOM     19  C   UNL     1       0.254   3.504 -24.006  0.00  0.00    +0.042 C 
ATOM     20  C   UNL     1       2.631   2.753 -23.266  0.00  0.00    +0.058 A 
ATOM     21  C   UNL     1       0.712   1.408 -20.749  0.00  0.00    +0.137 C 
ATOM     22  C   UNL     1       3.820   2.378 -22.896  0.00  0.00    +0.162 A 
ENDROOT
BRANCH   1  24
ATOM     23  C   UNL     1       5.304   0.261 -20.678  0.00  0.00    +0.277 C 
ATOM     24  O   UNL     1       5.160   1.304 -21.441  0.00  0.00    -0.491 OA
ENDBRANCH   1  24
BRANCH  22  25
ATOM     25  O   UNL     1       4.856   2.701 -23.612  0.00  0.00    -0.491 OA
ATOM     26  C   UNL     1       5.378   3.887 -23.500  0.00  0.00    +0.277 C 
ENDBRANCH  22  25
TORSDOF 2
ENDMDL
MODEL 4
REMARK VINA RESULT:    -9.756      1.613      2.829
REMARK INTER + INTRA:         -11.063
REMARK INTER:                 -10.848
REMARK INTRA:                  -0.215
REMARK UNBOUND:                -0.167
REMARK  Name = COc1cc2c(cc1OC)C1=C(NC2)c2cc3c(cc2CC1)OCO3                           ZINC000100392865
REMARK  4 active torsions:
REMARK  status: ('A' for Active; 'I' for Inactive)
REMARK    1  A    between atoms: C_1  and  O_2
REMARK    2  A    between atoms: O_2  and  C_3
REMARK    3  A    between atoms: C_8  and  O_9
REMARK    4  A    between atoms: O_9  and  C_10
REMARK                            x       y       z     vdW  Elec       q    Type
REMARK                         _______ _______ _______ _____ _____    ______ ____
ROOT
ATOM      1  C   UNL     1      -3.673   3.750 -23.599  0.00  0.00    +0.162 A 
ATOM      2  C   UNL     1      -2.631   4.197 -24.237  0.00  0.00    +0.055 A 
ATOM      3  C   UNL     1      -1.438   3.850 -23.856  0.00  0.00    -0.019 A 
ATOM      4  C   UNL     1      -1.286   3.057 -22.838  0.00  0.00    -0.012 A 
ATOM      5  C   UNL     1      -0.092   2.709 -22.456  0.00  0.00    -0.018 C 
ATOM      6  C   UNL     1       0.949   3.156 -23.094  0.00  0.00    +0.039 C 
ATOM      7  C   UNL     1       2.142   2.809 -22.713  0.00  0.00    +0.003 A 
ATOM      8  C   UNL     1       3.184   3.255 -23.350  0.00  0.00    +0.059 A 
ATOM      9  C   UNL     1       4.377   2.908 -22.970  0.00  0.00    +0.167 A 
ATOM     10  C   UNL     1       4.530   2.114 -21.951  0.00  0.00    +0.167 A 
ATOM     11  O   UNL     1       5.804   1.924 -21.777  0.00  0.00    -0.453 OA
ATOM     12  C   UNL     1       6.439   2.599 -22.688  0.00  0.00    +0.466 C 
ATOM     13  C   UNL     1       3.488   1.669 -21.314  0.00  0.00    +0.053 A 
ATOM     14  O   UNL     1       5.558   3.207 -23.425  0.00  0.00    -0.453 OA
ATOM     15  C   UNL     1       2.294   2.016 -21.694  0.00  0.00    -0.034 A 
ATOM     16  C   UNL     1       1.253   1.570 -21.057  0.00  0.00    +0.040 C 
ATOM     17  N   UNL     1       0.797   3.949 -24.113  0.00  0.00    -0.339 N 
ATOM     18  H   UNL     1       1.586   4.287 -24.595  0.00  0.00    +0.146 HD
ATOM     19  C   UNL     1       0.060   1.916 -21.438  0.00  0.00    +0.042 C 
ATOM     20  C   UNL     1      -2.328   2.611 -22.200  0.00  0.00    +0.058 A 
ATOM     21  C   UNL     1      -0.397   4.296 -24.494  0.00  0.00    +0.137 C 
ATOM     22  C   UNL     1      -3.521   2.957 -22.581  0.00  0.00    +0.162 A 
ENDROOT
BRANCH   1  24
ATOM     23  C   UNL     1      -5.291   3.772 -25.166  0.00  0.00    +0.277 C 
ATOM     24  O   UNL     1      -4.865   4.098 -23.981  0.00  0.00    -0.491 OA
ENDBRANCH   1  24
BRANCH  22  25
ATOM     25  O   UNL     1      -4.562   2.511 -21.943  0.00  0.00    -0.491 OA
ATOM     26  C   UNL     1      -4.460   2.163 -20.695  0.00  0.00    +0.277 C 
ENDBRANCH  22  25
TORSDOF 2
ENDMDL
MODEL 5
REMARK VINA RESULT:    -8.946      2.491      7.706
REMARK INTER + INTRA:         -10.158
REMARK INTER:                 -10.060
REMARK INTRA:                  -0.099
REMARK UNBOUND:                -0.167
REMARK  Name = COc1cc2c(cc1OC)C1=C(NC2)c2cc3c(cc2CC1)OCO3                           ZINC000100392865
REMARK  4 active torsions:
REMARK  status: ('A' for Active; 'I' for Inactive)
REMARK    1  A    between atoms: C_1  and  O_2
REMARK    2  A    between atoms: O_2  and  C_3
REMARK    3  A    between atoms: C_8  and  O_9
REMARK    4  A    between atoms: O_9  and  C_10
REMARK                            x       y       z     vdW  Elec       q    Type
REMARK                         _______ _______ _______ _____ _____    ______ ____
ROOT
ATOM      1  C   UNL     1       5.100   3.214 -23.425  0.00  0.00    +0.162 A 
ATOM      2  C   UNL     1       4.327   2.499 -24.190  0.00  0.00    +0.055 A 
ATOM      3  C   UNL     1       3.062   2.782 -24.280  0.00  0.00    -0.019 A 
ATOM      4  C   UNL     1       2.569   3.778 -23.608  0.00  0.00    -0.012 A 
ATOM      5  C   UNL     1       1.303   4.061 -23.699  0.00  0.00    -0.018 C 
ATOM      6  C   UNL     1       0.530   3.347 -24.462  0.00  0.00    +0.039 C 
ATOM      7  C   UNL     1      -0.735   3.629 -24.554  0.00  0.00    +0.003 A 
ATOM      8  C   UNL     1      -1.507   2.915 -25.318  0.00  0.00    +0.059 A 
ATOM      9  C   UNL     1      -2.773   3.197 -25.409  0.00  0.00    +0.167 A 
ATOM     10  C   UNL     1      -3.267   4.194 -24.736  0.00  0.00    +0.167 A 
ATOM     11  O   UNL     1      -4.538   4.265 -24.997  0.00  0.00    -0.453 OA
ATOM     12  C   UNL     1      -4.830   3.312 -25.832  0.00  0.00    +0.466 C 
ATOM     13  C   UNL     1      -2.494   4.908 -23.972  0.00  0.00    +0.053 A 
ATOM     14  O   UNL     1      -3.740   2.653 -26.086  0.00  0.00    -0.453 OA
ATOM     15  C   UNL     1      -1.228   4.626 -23.881  0.00  0.00    -0.034 A 
ATOM     16  C   UNL     1      -0.456   5.340 -23.117  0.00  0.00    +0.040 C 
ATOM     17  N   UNL     1       1.024   2.350 -25.136  0.00  0.00    -0.339 N 
ATOM     18  H   UNL     1       0.439   1.809 -25.714  0.00  0.00    +0.146 HD
ATOM     19  C   UNL     1       0.809   5.058 -23.026  0.00  0.00    +0.042 C 
ATOM     20  C   UNL     1       3.341   4.492 -22.844  0.00  0.00    +0.058 A 
ATOM     21  C   UNL     1       2.290   2.068 -25.044  0.00  0.00    +0.137 C 
ATOM     22  C   UNL     1       4.606   4.210 -22.753  0.00  0.00    +0.162 A 
ENDROOT
BRANCH   1  24
ATOM     23  C   UNL     1       7.206   3.425 -24.195  0.00  0.00    +0.277 C 
ATOM     24  O   UNL     1       6.365   2.931 -23.335  0.00  0.00    -0.491 OA
ENDBRANCH   1  24
BRANCH  22  25
ATOM     25  O   UNL     1       5.379   4.924 -21.989  0.00  0.00    -0.491 OA
ATOM     26  C   UNL     1       5.629   6.163 -22.294  0.00  0.00    +0.277 C 
ENDBRANCH  22  25
TORSDOF 2
ENDMDL
MODEL 6
REMARK VINA RESULT:    -8.386      4.002      8.258
REMARK INTER + INTRA:          -9.533
REMARK INTER:                  -9.317
REMARK INTRA:                  -0.217
REMARK UNBOUND:                -0.167
REMARK  Name = COc1cc2c(cc1OC)C1=C(NC2)c2cc3c(cc2CC1)OCO3                           ZINC000100392865
REMARK  4 active torsions:
REMARK  status: ('A' for Active; 'I' for Inactive)
REMARK    1  A    between atoms: C_1  and  O_2
REMARK    2  A    between atoms: O_2  and  C_3
REMARK    3  A    between atoms: C_8  and  O_9
REMARK    4  A    between atoms: O_9  and  C_10
REMARK                            x       y       z     vdW  Elec       q    Type
REMARK                         _______ _______ _______ _____ _____    ______ ____
ROOT
ATOM      1  C   UNL     1       7.200   6.003 -22.188  0.00  0.00    +0.162 A 
ATOM      2  C   UNL     1       6.076   6.646 -22.065  0.00  0.00    +0.055 A 
ATOM      3  C   UNL     1       4.963   6.084 -22.430  0.00  0.00    -0.019 A 
ATOM      4  C   UNL     1       4.972   4.880 -22.918  0.00  0.00    -0.012 A 
ATOM      5  C   UNL     1       3.857   4.318 -23.284  0.00  0.00    -0.018 C 
ATOM      6  C   UNL     1       2.734   4.961 -23.160  0.00  0.00    +0.039 C 
ATOM      7  C   UNL     1       1.620   4.400 -23.525  0.00  0.00    +0.003 A 
ATOM      8  C   UNL     1       0.497   5.043 -23.401  0.00  0.00    +0.059 A 
ATOM      9  C   UNL     1      -0.617   4.482 -23.766  0.00  0.00    +0.167 A 
ATOM     10  C   UNL     1      -0.609   3.277 -24.255  0.00  0.00    +0.167 A 
ATOM     11  O   UNL     1      -1.835   2.950 -24.538  0.00  0.00    -0.453 OA
ATOM     12  C   UNL     1      -2.601   3.952 -24.224  0.00  0.00    +0.466 C 
ATOM     13  C   UNL     1       0.514   2.635 -24.378  0.00  0.00    +0.053 A 
ATOM     14  O   UNL     1      -1.849   4.899 -23.747  0.00  0.00    -0.453 OA
ATOM     15  C   UNL     1       1.629   3.196 -24.013  0.00  0.00    -0.034 A 
ATOM     16  C   UNL     1       2.752   2.553 -24.137  0.00  0.00    +0.040 C 
ATOM     17  N   UNL     1       2.726   6.166 -22.671  0.00  0.00    -0.339 N 
ATOM     18  H   UNL     1       1.874   6.653 -22.577  0.00  0.00    +0.146 HD
ATOM     19  C   UNL     1       3.866   3.114 -23.772  0.00  0.00    +0.042 C 
ATOM     20  C   UNL     1       6.095   4.237 -23.042  0.00  0.00    +0.058 A 
ATOM     21  C   UNL     1       3.840   6.728 -22.306  0.00  0.00    +0.137 C 
ATOM     22  C   UNL     1       7.209   4.798 -22.677  0.00  0.00    +0.162 A 
ENDROOT
BRANCH   1  24
ATOM     23  C   UNL     1       8.341   7.336 -20.777  0.00  0.00    +0.277 C 
ATOM     24  O   UNL     1       8.313   6.564 -21.823  0.00  0.00    -0.491 OA
ENDBRANCH   1  24
BRANCH  22  25
ATOM     25  O   UNL     1       8.332   4.155 -22.801  0.00  0.00    -0.491 OA
ATOM     26  C   UNL     1       8.701   3.711 -23.966  0.00  0.00    +0.277 C 
ENDBRANCH  22  25
TORSDOF 2
ENDMDL
MODEL 7
REMARK VINA RESULT:    -8.092      3.226      7.870
REMARK INTER + INTRA:          -9.205
REMARK INTER:                  -9.100
REMARK INTRA:                  -0.105
REMARK UNBOUND:                -0.167
REMARK  Name = COc1cc2c(cc1OC)C1=C(NC2)c2cc3c(cc2CC1)OCO3                           ZINC000100392865
REMARK  4 active torsions:
REMARK  status: ('A' for Active; 'I' for Inactive)
REMARK    1  A    between atoms: C_1  and  O_2
REMARK    2  A    between atoms: O_2  and  C_3
REMARK    3  A    between atoms: C_8  and  O_9
REMARK    4  A    between atoms: O_9  and  C_10
REMARK                            x       y       z     vdW  Elec       q    Type
REMARK                         _______ _______ _______ _____ _____    ______ ____
ROOT
ATOM      1  C   UNL     1       6.316   5.277 -22.453  0.00  0.00    +0.162 A 
ATOM      2  C   UNL     1       5.272   6.048 -22.542  0.00  0.00    +0.055 A 
ATOM      3  C   UNL     1       4.105   5.535 -22.798  0.00  0.00    -0.019 A 
ATOM      4  C   UNL     1       3.982   4.252 -22.964  0.00  0.00    -0.012 A 
ATOM      5  C   UNL     1       2.814   3.739 -23.219  0.00  0.00    -0.018 C 
ATOM      6  C   UNL     1       1.771   4.510 -23.308  0.00  0.00    +0.039 C 
ATOM      7  C   UNL     1       0.604   3.997 -23.564  0.00  0.00    +0.003 A 
ATOM      8  C   UNL     1      -0.439   4.768 -23.653  0.00  0.00    +0.059 A 
ATOM      9  C   UNL     1      -1.606   4.255 -23.908  0.00  0.00    +0.167 A 
ATOM     10  C   UNL     1      -1.730   2.972 -24.074  0.00  0.00    +0.167 A 
ATOM     11  O   UNL     1      -2.982   2.717 -24.315  0.00  0.00    -0.453 OA
ATOM     12  C   UNL     1      -3.632   3.843 -24.297  0.00  0.00    +0.466 C 
ATOM     13  C   UNL     1      -0.687   2.202 -23.985  0.00  0.00    +0.053 A 
ATOM     14  O   UNL     1      -2.782   4.793 -24.046  0.00  0.00    -0.453 OA
ATOM     15  C   UNL     1       0.480   2.714 -23.730  0.00  0.00    -0.034 A 
ATOM     16  C   UNL     1       1.524   1.944 -23.641  0.00  0.00    +0.040 C 
ATOM     17  N   UNL     1       1.895   5.793 -23.142  0.00  0.00    -0.339 N 
ATOM     18  H   UNL     1       1.105   6.377 -23.210  0.00  0.00    +0.146 HD
ATOM     19  C   UNL     1       2.690   2.456 -23.385  0.00  0.00    +0.042 C 
ATOM     20  C   UNL     1       5.025   3.482 -22.875  0.00  0.00    +0.058 A 
ATOM     21  C   UNL     1       3.062   6.306 -22.887  0.00  0.00    +0.137 C 
ATOM     22  C   UNL     1       6.192   3.994 -22.619  0.00  0.00    +0.162 A 
ENDROOT
BRANCH   1  24
ATOM     23  C   UNL     1       7.709   6.349 -21.046  0.00  0.00    +0.277 C 
ATOM     24  O   UNL     1       7.482   5.790 -22.198  0.00  0.00    -0.491 OA
ENDBRANCH   1  24
BRANCH  22  25
ATOM     25  O   UNL     1       7.235   3.223 -22.530  0.00  0.00    -0.491 OA
ATOM     26  C   UNL     1       7.881   2.877 -23.605  0.00  0.00    +0.277 C 
ENDBRANCH  22  25
TORSDOF 2
ENDMDL
