MODEL 1
REMARK VINA RESULT:    -9.521      0.000      0.000
REMARK INTER + INTRA:         -10.110
REMARK INTER:                 -11.018
REMARK INTRA:                   0.908
REMARK UNBOUND:                 1.081
REMARK  Name = COc1ccc2c3c1O[C@@H]1[C@H](OC(C)=O)C=C[C@H]4[C@@H](C2)N(C=O)CC[C@]314 ZINC000253504490
REMARK  5 active torsions:
REMARK  status: ('A' for Active; 'I' for Inactive)
REMARK    1  A    between atoms: C_1  and  O_2
REMARK    2  A    between atoms: O_2  and  C_3
REMARK    3  A    between atoms: C_11  and  O_12
REMARK    4  A    between atoms: O_12  and  C_13
REMARK    5  A    between atoms: C_13  and  C_14
REMARK                            x       y       z     vdW  Elec       q    Type
REMARK                         _______ _______ _______ _____ _____    ______ ____
ROOT
ATOM      1  C   UNL     1       1.699   2.253 -23.789  0.00  0.00    +0.162 A 
ATOM      2  C   UNL     1       1.964   1.781 -22.640  0.00  0.00    +0.050 A 
ATOM      3  C   UNL     1       1.066   1.688 -21.768  0.00  0.00    +0.008 A 
ATOM      4  C   UNL     1      -0.103   2.064 -22.034  0.00  0.00    -0.038 A 
ATOM      5  C   UNL     1      -0.390   2.537 -23.171  0.00  0.00    +0.012 A 
ATOM      6  C   UNL     1      -1.558   2.910 -23.429  0.00  0.00    +0.050 C 
ATOM      7  C   UNL     1      -2.850   3.368 -23.843  0.00  0.00    +0.035 C 
ATOM      8  C   UNL     1      -3.884   3.274 -22.880  0.00  0.00    +0.109 C 
ATOM      9  N   UNL     1      -3.552   2.744 -21.610  0.00  0.00    -0.300 N 
ATOM     10  C   UNL     1      -4.424   2.630 -20.699  0.00  0.00    +0.328 C 
ATOM     11  O   UNL     1      -4.119   2.157 -19.574  0.00  0.00    -0.279 OA
ATOM     12  C   UNL     1      -2.192   2.346 -21.413  0.00  0.00    +0.088 C 
ATOM     13  C   UNL     1      -2.459   2.818 -22.561  0.00  0.00    +0.047 C 
ATOM     14  C   UNL     1      -3.642   3.197 -22.824  0.00  0.00    -0.021 C 
ATOM     15  C   UNL     1      -3.910   3.664 -23.959  0.00  0.00    +0.017 C 
ATOM     16  C   UNL     1      -3.008   3.761 -24.845  0.00  0.00    +0.240 C 
ATOM     17  C   UNL     1      -1.839   3.386 -24.580  0.00  0.00    +0.229 C 
ATOM     18  O   UNL     1      -0.417   3.221 -25.080  0.00  0.00    -0.480 OA
ATOM     19  C   UNL     1      -1.023   1.971 -21.149  0.00  0.00    +0.058 C 
ATOM     20  C   UNL     1       0.514   2.632 -24.053  0.00  0.00    +0.167 A 
ENDROOT
BRANCH   1  22
ATOM     21  C   UNL     1       3.806   2.218 -24.330  0.00  0.00    +0.277 C 
ATOM     22  O   UNL     1       2.601   2.345 -24.658  0.00  0.00    -0.491 OA
ENDBRANCH   1  22
BRANCH  16  23
ATOM     23  O   UNL     1      -3.281   4.229 -25.977  0.00  0.00    -0.454 OA
BRANCH  23  24
ATOM     24  C   UNL     1      -3.742   3.478 -26.873  0.00  0.00    +0.305 C 
ATOM     25  O   UNL     1      -4.713   2.724 -26.621  0.00  0.00    -0.251 OA
ATOM     26  C   UNL     1      -3.230   3.481 -28.019  0.00  0.00    +0.136 C 
ENDBRANCH  23  24
ENDBRANCH  16  23
TORSDOF 3
ENDMDL
MODEL 2
REMARK VINA RESULT:    -9.334      1.734      4.095
REMARK INTER + INTRA:          -9.891
REMARK INTER:                 -10.675
REMARK INTRA:                   0.784
REMARK UNBOUND:                 1.081
REMARK  Name = COc1ccc2c3c1O[C@@H]1[C@H](OC(C)=O)C=C[C@H]4[C@@H](C2)N(C=O)CC[C@]314 ZINC000253504490
REMARK  5 active torsions:
REMARK  status: ('A' for Active; 'I' for Inactive)
REMARK    1  A    between atoms: C_1  and  O_2
REMARK    2  A    between atoms: O_2  and  C_3
REMARK    3  A    between atoms: C_11  and  O_12
REMARK    4  A    between atoms: O_12  and  C_13
REMARK    5  A    between atoms: C_13  and  C_14
REMARK                            x       y       z     vdW  Elec       q    Type
REMARK                         _______ _______ _______ _____ _____    ______ ____
ROOT
ATOM      1  C   UNL     1       2.237   2.914 -22.887  0.00  0.00    +0.162 A 
ATOM      2  C   UNL     1       2.742   3.149 -24.029  0.00  0.00    +0.050 A 
ATOM      3  C   UNL     1       2.003   3.312 -25.030  0.00  0.00    +0.008 A 
ATOM      4  C   UNL     1       0.754   3.243 -24.902  0.00  0.00    -0.038 A 
ATOM      5  C   UNL     1       0.229   3.010 -23.776  0.00  0.00    +0.012 A 
ATOM      6  C   UNL     1      -1.016   2.941 -23.655  0.00  0.00    +0.050 C 
ATOM      7  C   UNL     1      -2.420   2.840 -23.391  0.00  0.00    +0.035 C 
ATOM      8  C   UNL     1      -3.279   3.019 -24.503  0.00  0.00    +0.109 C 
ATOM      9  N   UNL     1      -2.681   3.280 -25.759  0.00  0.00    -0.300 N 
ATOM     10  C   UNL     1      -3.385   3.451 -26.797  0.00  0.00    +0.328 C 
ATOM     11  O   UNL     1      -2.844   3.682 -27.910  0.00  0.00    -0.279 OA
ATOM     12  C   UNL     1      -1.252   3.338 -25.794  0.00  0.00    +0.088 C 
ATOM     13  C   UNL     1      -1.759   3.103 -24.654  0.00  0.00    +0.047 C 
ATOM     14  C   UNL     1      -3.021   3.034 -24.530  0.00  0.00    -0.021 C 
ATOM     15  C   UNL     1      -3.525   2.801 -23.403  0.00  0.00    +0.017 C 
ATOM     16  C   UNL     1      -2.785   2.636 -22.387  0.00  0.00    +0.240 C 
ATOM     17  C   UNL     1      -1.537   2.705 -22.514  0.00  0.00    +0.229 C 
ATOM     18  O   UNL     1      -0.187   2.625 -21.829  0.00  0.00    -0.480 OA
ATOM     19  C   UNL     1      -0.005   3.408 -25.920  0.00  0.00    +0.058 C 
ATOM     20  C   UNL     1       0.973   2.845 -22.763  0.00  0.00    +0.167 A 
ENDROOT
BRANCH   1  22
ATOM     21  C   UNL     1       3.123   1.609 -21.390  0.00  0.00    +0.277 C 
ATOM     22  O   UNL     1       2.980   2.752 -21.889  0.00  0.00    -0.491 OA
ENDBRANCH   1  22
BRANCH  16  23
ATOM     23  O   UNL     1      -3.295   2.404 -21.264  0.00  0.00    -0.454 OA
BRANCH  23  24
ATOM     24  C   UNL     1      -3.747   3.351 -20.571  0.00  0.00    +0.305 C 
ATOM     25  O   UNL     1      -4.864   3.853 -20.849  0.00  0.00    -0.251 OA
ATOM     26  C   UNL     1      -3.081   3.793 -19.604  0.00  0.00    +0.136 C 
ENDBRANCH  23  24
ENDBRANCH  16  23
TORSDOF 3
ENDMDL
MODEL 3
REMARK VINA RESULT:    -8.121      3.451      7.270
REMARK INTER + INTRA:          -8.465
REMARK INTER:                  -9.236
REMARK INTRA:                   0.771
REMARK UNBOUND:                 1.081
REMARK  Name = COc1ccc2c3c1O[C@@H]1[C@H](OC(C)=O)C=C[C@H]4[C@@H](C2)N(C=O)CC[C@]314 ZINC000253504490
REMARK  5 active torsions:
REMARK  status: ('A' for Active; 'I' for Inactive)
REMARK    1  A    between atoms: C_1  and  O_2
REMARK    2  A    between atoms: O_2  and  C_3
REMARK    3  A    between atoms: C_11  and  O_12
REMARK    4  A    between atoms: O_12  and  C_13
REMARK    5  A    between atoms: C_13  and  C_14
REMARK                            x       y       z     vdW  Elec       q    Type
REMARK                         _______ _______ _______ _____ _____    ______ ____
ROOT
ATOM      1  C   UNL     1       0.022   3.672 -23.457  0.00  0.00    +0.162 A 
ATOM      2  C   UNL     1      -0.534   2.622 -23.007  0.00  0.00    +0.050 A 
ATOM      3  C   UNL     1       0.144   1.748 -22.414  0.00  0.00    +0.008 A 
ATOM      4  C   UNL     1       1.381   1.912 -22.264  0.00  0.00    -0.038 A 
ATOM      5  C   UNL     1       1.956   2.949 -22.703  0.00  0.00    +0.012 A 
ATOM      6  C   UNL     1       3.189   3.107 -22.551  0.00  0.00    +0.050 C 
ATOM      7  C   UNL     1       4.586   3.400 -22.438  0.00  0.00    +0.035 C 
ATOM      8  C   UNL     1       5.376   2.431 -21.773  0.00  0.00    +0.109 C 
ATOM      9  N   UNL     1       4.723   1.274 -21.285  0.00  0.00    -0.300 N 
ATOM     10  C   UNL     1       5.365   0.365 -20.680  0.00  0.00    +0.328 C 
ATOM     11  O   UNL     1       4.774  -0.660 -20.250  0.00  0.00    -0.279 OA
ATOM     12  C   UNL     1       3.313   1.186 -21.509  0.00  0.00    +0.088 C 
ATOM     13  C   UNL     1       3.871   2.235 -21.958  0.00  0.00    +0.047 C 
ATOM     14  C   UNL     1       5.121   2.396 -21.804  0.00  0.00    -0.021 C 
ATOM     15  C   UNL     1       5.676   3.432 -22.247  0.00  0.00    +0.017 C 
ATOM     16  C   UNL     1       4.998   4.320 -22.847  0.00  0.00    +0.240 C 
ATOM     17  C   UNL     1       3.762   4.156 -22.998  0.00  0.00    +0.229 C 
ATOM     18  O   UNL     1       2.466   4.722 -23.546  0.00  0.00    -0.480 OA
ATOM     19  C   UNL     1       2.077   1.024 -21.660  0.00  0.00    +0.058 C 
ATOM     20  C   UNL     1       1.274   3.833 -23.303  0.00  0.00    +0.167 A 
ENDROOT
BRANCH   1  22
ATOM     21  C   UNL     1      -1.913   4.496 -24.011  0.00  0.00    +0.277 C 
ATOM     22  O   UNL     1      -0.659   4.543 -24.050  0.00  0.00    -0.491 OA
ENDBRANCH   1  22
BRANCH  16  23
ATOM     23  O   UNL     1       5.558   5.353 -23.288  0.00  0.00    -0.454 OA
BRANCH  23  24
ATOM     24  C   UNL     1       5.992   6.222 -22.489  0.00  0.00    +0.305 C 
ATOM     25  O   UNL     1       5.195   6.838 -21.740  0.00  0.00    -0.251 OA
ATOM     26  C   UNL     1       7.221   6.472 -22.442  0.00  0.00    +0.136 C 
ENDBRANCH  23  24
ENDBRANCH  16  23
TORSDOF 3
ENDMDL
MODEL 4
REMARK VINA RESULT:    -8.107      2.277      6.294
REMARK INTER + INTRA:          -8.448
REMARK INTER:                 -10.412
REMARK INTRA:                   1.964
REMARK UNBOUND:                 1.081
REMARK  Name = COc1ccc2c3c1O[C@@H]1[C@H](OC(C)=O)C=C[C@H]4[C@@H](C2)N(C=O)CC[C@]314 ZINC000253504490
REMARK  5 active torsions:
REMARK  status: ('A' for Active; 'I' for Inactive)
REMARK    1  A    between atoms: C_1  and  O_2
REMARK    2  A    between atoms: O_2  and  C_3
REMARK    3  A    between atoms: C_11  and  O_12
REMARK    4  A    between atoms: O_12  and  C_13
REMARK    5  A    between atoms: C_13  and  C_14
REMARK                            x       y       z     vdW  Elec       q    Type
REMARK                         _______ _______ _______ _____ _____    ______ ____
ROOT
ATOM      1  C   UNL     1      -4.639   3.029 -22.332  0.00  0.00    +0.162 A 
ATOM      2  C   UNL     1      -4.997   3.721 -23.335  0.00  0.00    +0.050 A 
ATOM      3  C   UNL     1      -4.156   4.076 -24.196  0.00  0.00    +0.008 A 
ATOM      4  C   UNL     1      -2.950   3.744 -24.065  0.00  0.00    -0.038 A 
ATOM      5  C   UNL     1      -2.571   3.056 -23.074  0.00  0.00    +0.012 A 
ATOM      6  C   UNL     1      -1.368   2.729 -22.949  0.00  0.00    +0.050 C 
ATOM      7  C   UNL     1      -0.027   2.295 -22.696  0.00  0.00    +0.035 C 
ATOM      8  C   UNL     1       0.945   2.680 -23.651  0.00  0.00    +0.109 C 
ATOM      9  N   UNL     1       0.509   3.451 -24.756  0.00  0.00    -0.300 N 
ATOM     10  C   UNL     1       1.322   3.832 -25.650  0.00  0.00    +0.328 C 
ATOM     11  O   UNL     1       0.925   4.517 -26.629  0.00  0.00    -0.279 OA
ATOM     12  C   UNL     1      -0.883   3.773 -24.810  0.00  0.00    +0.088 C 
ATOM     13  C   UNL     1      -0.523   3.081 -23.807  0.00  0.00    +0.047 C 
ATOM     14  C   UNL     1       0.696   2.749 -23.679  0.00  0.00    -0.021 C 
ATOM     15  C   UNL     1       1.055   2.065 -22.689  0.00  0.00    +0.017 C 
ATOM     16  C   UNL     1       0.211   1.703 -21.815  0.00  0.00    +0.240 C 
ATOM     17  C   UNL     1      -0.994   2.034 -21.946  0.00  0.00    +0.229 C 
ATOM     18  O   UNL     1      -2.395   1.971 -21.370  0.00  0.00    -0.480 OA
ATOM     19  C   UNL     1      -2.088   4.103 -24.939  0.00  0.00    +0.058 C 
ATOM     20  C   UNL     1      -3.418   2.696 -22.204  0.00  0.00    +0.167 A 
ENDROOT
BRANCH   1  22
ATOM     21  C   UNL     1      -6.701   2.614 -21.777  0.00  0.00    +0.277 C 
ATOM     22  O   UNL     1      -5.484   2.677 -21.474  0.00  0.00    -0.491 OA
ENDBRANCH   1  22
BRANCH  16  23
ATOM     23  O   UNL     1       0.576   1.019 -20.828  0.00  0.00    -0.454 OA
BRANCH  23  24
ATOM     24  C   UNL     1       1.742   1.144 -20.374  0.00  0.00    +0.305 C 
ATOM     25  O   UNL     1       1.919   1.616 -19.224  0.00  0.00    -0.251 OA
ATOM     26  C   UNL     1       2.726   0.796 -21.070  0.00  0.00    +0.136 C 
ENDBRANCH  23  24
ENDBRANCH  16  23
TORSDOF 3
ENDMDL
MODEL 5
REMARK VINA RESULT:    -7.991      1.683      5.568
REMARK INTER + INTRA:          -8.312
REMARK INTER:                  -9.428
REMARK INTRA:                   1.116
REMARK UNBOUND:                 1.081
REMARK  Name = COc1ccc2c3c1O[C@@H]1[C@H](OC(C)=O)C=C[C@H]4[C@@H](C2)N(C=O)CC[C@]314 ZINC000253504490
REMARK  5 active torsions:
REMARK  status: ('A' for Active; 'I' for Inactive)
REMARK    1  A    between atoms: C_1  and  O_2
REMARK    2  A    between atoms: O_2  and  C_3
REMARK    3  A    between atoms: C_11  and  O_12
REMARK    4  A    between atoms: O_12  and  C_13
REMARK    5  A    between atoms: C_13  and  C_14
REMARK                            x       y       z     vdW  Elec       q    Type
REMARK                         _______ _______ _______ _____ _____    ______ ____
ROOT
ATOM      1  C   UNL     1      -4.196   3.377 -21.039  0.00  0.00    +0.162 A 
ATOM      2  C   UNL     1      -5.363   3.380 -21.541  0.00  0.00    +0.050 A 
ATOM      3  C   UNL     1      -5.519   3.404 -22.786  0.00  0.00    +0.008 A 
ATOM      4  C   UNL     1      -4.514   3.424 -23.541  0.00  0.00    -0.038 A 
ATOM      5  C   UNL     1      -3.343   3.421 -23.063  0.00  0.00    +0.012 A 
ATOM      6  C   UNL     1      -2.346   3.441 -23.821  0.00  0.00    +0.050 C 
ATOM      7  C   UNL     1      -1.132   3.463 -24.581  0.00  0.00    +0.035 C 
ATOM      8  C   UNL     1      -1.277   3.489 -25.989  0.00  0.00    +0.109 C 
ATOM      9  N   UNL     1      -2.592   3.492 -26.514  0.00  0.00    -0.300 N 
ATOM     10  C   UNL     1      -2.799   3.516 -27.763  0.00  0.00    +0.328 C 
ATOM     11  O   UNL     1      -3.972   3.518 -28.219  0.00  0.00    -0.279 OA
ATOM     12  C   UNL     1      -3.664   3.468 -25.567  0.00  0.00    +0.088 C 
ATOM     13  C   UNL     1      -2.497   3.465 -25.067  0.00  0.00    +0.047 C 
ATOM     14  C   UNL     1      -1.486   3.485 -25.834  0.00  0.00    -0.021 C 
ATOM     15  C   UNL     1      -0.329   3.482 -25.342  0.00  0.00    +0.017 C 
ATOM     16  C   UNL     1      -0.164   3.458 -24.085  0.00  0.00    +0.240 C 
ATOM     17  C   UNL     1      -1.168   3.438 -23.330  0.00  0.00    +0.229 C 
ATOM     18  O   UNL     1      -1.680   3.407 -21.903  0.00  0.00    -0.480 OA
ATOM     19  C   UNL     1      -4.667   3.448 -24.812  0.00  0.00    +0.058 C 
ATOM     20  C   UNL     1      -3.183   3.397 -21.807  0.00  0.00    +0.167 A 
ENDROOT
BRANCH   1  22
ATOM     21  C   UNL     1      -2.968   3.749 -19.282  0.00  0.00    +0.277 C 
ATOM     22  O   UNL     1      -4.045   3.353 -19.793  0.00  0.00    -0.491 OA
ENDBRANCH   1  22
BRANCH  16  23
ATOM     23  O   UNL     1       0.994   3.455 -23.600  0.00  0.00    -0.454 OA
BRANCH  23  24
ATOM     24  C   UNL     1       1.565   2.365 -23.345  0.00  0.00    +0.305 C 
ATOM     25  O   UNL     1       1.979   1.640 -24.282  0.00  0.00    -0.251 OA
ATOM     26  C   UNL     1       1.722   2.002 -22.153  0.00  0.00    +0.136 C 
ENDBRANCH  23  24
ENDBRANCH  16  23
TORSDOF 3
ENDMDL
MODEL 6
REMARK VINA RESULT:    -7.765      1.236      4.679
REMARK INTER + INTRA:          -8.046
REMARK INTER:                  -8.873
REMARK INTRA:                   0.826
REMARK UNBOUND:                 1.081
REMARK  Name = COc1ccc2c3c1O[C@@H]1[C@H](OC(C)=O)C=C[C@H]4[C@@H](C2)N(C=O)CC[C@]314 ZINC000253504490
REMARK  5 active torsions:
REMARK  status: ('A' for Active; 'I' for Inactive)
REMARK    1  A    between atoms: C_1  and  O_2
REMARK    2  A    between atoms: O_2  and  C_3
REMARK    3  A    between atoms: C_11  and  O_12
REMARK    4  A    between atoms: O_12  and  C_13
REMARK    5  A    between atoms: C_13  and  C_14
REMARK                            x       y       z     vdW  Elec       q    Type
REMARK                         _______ _______ _______ _____ _____    ______ ____
ROOT
ATOM      1  C   UNL     1      -4.216   3.156 -26.230  0.00  0.00    +0.162 A 
ATOM      2  C   UNL     1      -5.298   3.550 -25.693  0.00  0.00    +0.050 A 
ATOM      3  C   UNL     1      -5.366   3.721 -24.451  0.00  0.00    +0.008 A 
ATOM      4  C   UNL     1      -4.358   3.501 -23.734  0.00  0.00    -0.038 A 
ATOM      5  C   UNL     1      -3.270   3.109 -24.247  0.00  0.00    +0.012 A 
ATOM      6  C   UNL     1      -2.269   2.892 -23.526  0.00  0.00    +0.050 C 
ATOM      7  C   UNL     1      -1.060   2.611 -22.811  0.00  0.00    +0.035 C 
ATOM      8  C   UNL     1      -1.107   2.796 -21.408  0.00  0.00    +0.109 C 
ATOM      9  N   UNL     1      -2.330   3.235 -20.845  0.00  0.00    -0.300 N 
ATOM     10  C   UNL     1      -2.446   3.422 -19.598  0.00  0.00    +0.328 C 
ATOM     11  O   UNL     1      -3.537   3.813 -19.107  0.00  0.00    -0.279 OA
ATOM     12  C   UNL     1      -3.415   3.456 -21.750  0.00  0.00    +0.088 C 
ATOM     13  C   UNL     1      -2.332   3.062 -22.284  0.00  0.00    +0.047 C 
ATOM     14  C   UNL     1      -1.316   2.841 -21.556  0.00  0.00    -0.021 C 
ATOM     15  C   UNL     1      -0.244   2.452 -22.081  0.00  0.00    +0.017 C 
ATOM     16  C   UNL     1      -0.167   2.276 -23.335  0.00  0.00    +0.240 C 
ATOM     17  C   UNL     1      -1.175   2.496 -24.052  0.00  0.00    +0.229 C 
ATOM     18  O   UNL     1      -1.757   2.503 -25.452  0.00  0.00    -0.480 OA
ATOM     19  C   UNL     1      -4.422   3.674 -22.468  0.00  0.00    +0.058 C 
ATOM     20  C   UNL     1      -3.198   2.935 -25.500  0.00  0.00    +0.167 A 
ENDROOT
BRANCH   1  22
ATOM     21  C   UNL     1      -3.315   3.627 -28.153  0.00  0.00    +0.277 C 
ATOM     22  O   UNL     1      -4.152   2.986 -27.471  0.00  0.00    -0.491 OA
ENDBRANCH   1  22
BRANCH  16  23
ATOM     23  O   UNL     1       0.907   1.887 -23.854  0.00  0.00    -0.454 OA
BRANCH  23  24
ATOM     24  C   UNL     1       1.620   2.694 -24.502  0.00  0.00    +0.305 C 
ATOM     25  O   UNL     1       1.625   2.659 -25.757  0.00  0.00    -0.251 OA
ATOM     26  C   UNL     1       2.328   3.534 -23.894  0.00  0.00    +0.136 C 
ENDBRANCH  23  24
ENDBRANCH  16  23
TORSDOF 3
ENDMDL
MODEL 7
REMARK VINA RESULT:    -7.512      1.589      5.523
REMARK INTER + INTRA:          -7.748
REMARK INTER:                  -9.162
REMARK INTRA:                   1.414
REMARK UNBOUND:                 1.081
REMARK  Name = COc1ccc2c3c1O[C@@H]1[C@H](OC(C)=O)C=C[C@H]4[C@@H](C2)N(C=O)CC[C@]314 ZINC000253504490
REMARK  5 active torsions:
REMARK  status: ('A' for Active; 'I' for Inactive)
REMARK    1  A    between atoms: C_1  and  O_2
REMARK    2  A    between atoms: O_2  and  C_3
REMARK    3  A    between atoms: C_11  and  O_12
REMARK    4  A    between atoms: O_12  and  C_13
REMARK    5  A    between atoms: C_13  and  C_14
REMARK                            x       y       z     vdW  Elec       q    Type
REMARK                         _______ _______ _______ _____ _____    ______ ____
ROOT
ATOM      1  C   UNL     1      -3.757   3.378 -25.999  0.00  0.00    +0.162 A 
ATOM      2  C   UNL     1      -2.995   3.677 -26.971  0.00  0.00    +0.050 A 
ATOM      3  C   UNL     1      -1.748   3.670 -26.827  0.00  0.00    +0.008 A 
ATOM      4  C   UNL     1      -1.250   3.366 -25.713  0.00  0.00    -0.038 A 
ATOM      5  C   UNL     1      -1.989   3.066 -24.732  0.00  0.00    +0.012 A 
ATOM      6  C   UNL     1      -1.486   2.764 -23.625  0.00  0.00    +0.050 C 
ATOM      7  C   UNL     1      -1.032   2.403 -22.316  0.00  0.00    +0.035 C 
ATOM      8  C   UNL     1       0.371   2.387 -22.124  0.00  0.00    +0.109 C 
ATOM      9  N   UNL     1       1.189   2.725 -23.229  0.00  0.00    -0.300 N 
ATOM     10  C   UNL     1       2.451   2.732 -23.131  0.00  0.00    +0.328 C 
ATOM     11  O   UNL     1       3.170   3.034 -24.120  0.00  0.00    -0.279 OA
ATOM     12  C   UNL     1       0.521   3.055 -24.449  0.00  0.00    +0.088 C 
ATOM     13  C   UNL     1      -0.239   2.756 -23.477  0.00  0.00    +0.047 C 
ATOM     14  C   UNL     1       0.269   2.450 -22.354  0.00  0.00    -0.021 C 
ATOM     15  C   UNL     1      -0.480   2.154 -21.390  0.00  0.00    +0.017 C 
ATOM     16  C   UNL     1      -1.741   2.158 -21.528  0.00  0.00    +0.240 C 
ATOM     17  C   UNL     1      -2.239   2.462 -22.640  0.00  0.00    +0.229 C 
ATOM     18  O   UNL     1      -3.506   2.658 -23.450  0.00  0.00    -0.480 OA
ATOM     19  C   UNL     1       0.021   3.358 -25.561  0.00  0.00    +0.058 C 
ATOM     20  C   UNL     1      -3.248   3.071 -24.875  0.00  0.00    +0.167 A 
ENDROOT
BRANCH   1  22
ATOM     21  C   UNL     1      -5.750   3.703 -25.189  0.00  0.00    +0.277 C 
ATOM     22  O   UNL     1      -5.003   3.386 -26.148  0.00  0.00    -0.491 OA
ENDBRANCH   1  22
BRANCH  16  23
ATOM     23  O   UNL     1      -2.484   1.861 -20.561  0.00  0.00    -0.454 OA
BRANCH  23  24
ATOM     24  C   UNL     1      -3.443   2.613 -20.252  0.00  0.00    +0.305 C 
ATOM     25  O   UNL     1      -4.624   2.224 -20.427  0.00  0.00    -0.251 OA
ATOM     26  C   UNL     1      -3.219   3.749 -19.769  0.00  0.00    +0.136 C 
ENDBRANCH  23  24
ENDBRANCH  16  23
TORSDOF 3
ENDMDL
MODEL 8
REMARK VINA RESULT:    -7.489      3.575      6.001
REMARK INTER + INTRA:          -7.722
REMARK INTER:                  -8.927
REMARK INTRA:                   1.204
REMARK UNBOUND:                 1.081
REMARK  Name = COc1ccc2c3c1O[C@@H]1[C@H](OC(C)=O)C=C[C@H]4[C@@H](C2)N(C=O)CC[C@]314 ZINC000253504490
REMARK  5 active torsions:
REMARK  status: ('A' for Active; 'I' for Inactive)
REMARK    1  A    between atoms: C_1  and  O_2
REMARK    2  A    between atoms: O_2  and  C_3
REMARK    3  A    between atoms: C_11  and  O_12
REMARK    4  A    between atoms: O_12  and  C_13
REMARK    5  A    between atoms: C_13  and  C_14
REMARK                            x       y       z     vdW  Elec       q    Type
REMARK                         _______ _______ _______ _____ _____    ______ ____
ROOT
ATOM      1  C   UNL     1       5.539   6.439 -22.124  0.00  0.00    +0.162 A 
ATOM      2  C   UNL     1       6.543   5.674 -22.264  0.00  0.00    +0.050 A 
ATOM      3  C   UNL     1       6.409   4.533 -22.769  0.00  0.00    +0.008 A 
ATOM      4  C   UNL     1       5.272   4.144 -23.139  0.00  0.00    -0.038 A 
ATOM      5  C   UNL     1       4.258   4.889 -23.010  0.00  0.00    +0.012 A 
ATOM      6  C   UNL     1       3.128   4.495 -23.381  0.00  0.00    +0.050 C 
ATOM      7  C   UNL     1       1.790   4.160 -23.766  0.00  0.00    +0.035 C 
ATOM      8  C   UNL     1       1.608   2.878 -24.339  0.00  0.00    +0.109 C 
ATOM      9  N   UNL     1       2.750   2.053 -24.479  0.00  0.00    -0.300 N 
ATOM     10  C   UNL     1       2.663   0.894 -24.983  0.00  0.00    +0.328 C 
ATOM     11  O   UNL     1       3.684   0.168 -25.103  0.00  0.00    -0.279 OA
ATOM     12  C   UNL     1       3.994   2.592 -24.026  0.00  0.00    +0.088 C 
ATOM     13  C   UNL     1       2.989   3.355 -23.887  0.00  0.00    +0.047 C 
ATOM     14  C   UNL     1       1.843   2.957 -24.263  0.00  0.00    -0.021 C 
ATOM     15  C   UNL     1       0.846   3.710 -24.127  0.00  0.00    +0.017 C 
ATOM     16  C   UNL     1       0.974   4.864 -23.617  0.00  0.00    +0.240 C 
ATOM     17  C   UNL     1       2.110   5.253 -23.247  0.00  0.00    +0.229 C 
ATOM     18  O   UNL     1       2.927   6.370 -22.628  0.00  0.00    -0.480 OA
ATOM     19  C   UNL     1       5.129   2.982 -23.655  0.00  0.00    +0.058 C 
ATOM     20  C   UNL     1       4.391   6.041 -22.501  0.00  0.00    +0.167 A 
ENDROOT
BRANCH   1  22
ATOM     21  C   UNL     1       6.716   7.857 -20.969  0.00  0.00    +0.277 C 
ATOM     22  O   UNL     1       5.678   7.579 -21.619  0.00  0.00    -0.491 OA
ENDBRANCH   1  22
BRANCH  16  23
ATOM     23  O   UNL     1      -0.026   5.611 -23.484  0.00  0.00    -0.454 OA
BRANCH  23  24
ATOM     24  C   UNL     1      -1.147   5.116 -23.205  0.00  0.00    +0.305 C 
ATOM     25  O   UNL     1      -1.977   4.887 -24.119  0.00  0.00    -0.251 OA
ATOM     26  C   UNL     1      -1.436   4.852 -22.012  0.00  0.00    +0.136 C 
ENDBRANCH  23  24
ENDBRANCH  16  23
TORSDOF 3
ENDMDL
MODEL 9
REMARK VINA RESULT:    -7.275      4.226      6.640
REMARK INTER + INTRA:          -7.470
REMARK INTER:                  -8.551
REMARK INTRA:                   1.081
REMARK UNBOUND:                 1.081
REMARK  Name = COc1ccc2c3c1O[C@@H]1[C@H](OC(C)=O)C=C[C@H]4[C@@H](C2)N(C=O)CC[C@]314 ZINC000253504490
REMARK  5 active torsions:
REMARK  status: ('A' for Active; 'I' for Inactive)
REMARK    1  A    between atoms: C_1  and  O_2
REMARK    2  A    between atoms: O_2  and  C_3
REMARK    3  A    between atoms: C_11  and  O_12
REMARK    4  A    between atoms: O_12  and  C_13
REMARK    5  A    between atoms: C_13  and  C_14
REMARK                            x       y       z     vdW  Elec       q    Type
REMARK                         _______ _______ _______ _____ _____    ______ ____
ROOT
ATOM      1  C   UNL     1       5.646   7.542 -21.940  0.00  0.00    +0.162 A 
ATOM      2  C   UNL     1       6.728   6.966 -21.605  0.00  0.00    +0.050 A 
ATOM      3  C   UNL     1       6.831   5.717 -21.670  0.00  0.00    +0.008 A 
ATOM      4  C   UNL     1       5.856   5.030 -22.068  0.00  0.00    -0.038 A 
ATOM      5  C   UNL     1       4.770   5.581 -22.406  0.00  0.00    +0.012 A 
ATOM      6  C   UNL     1       3.802   4.891 -22.803  0.00  0.00    +0.050 C 
ATOM      7  C   UNL     1       2.630   4.213 -23.270  0.00  0.00    +0.035 C 
ATOM      8  C   UNL     1       2.716   2.802 -23.353  0.00  0.00    +0.109 C 
ATOM      9  N   UNL     1       3.938   2.196 -22.972  0.00  0.00    -0.300 N 
ATOM     10  C   UNL     1       4.088   0.939 -23.020  0.00  0.00    +0.328 C 
ATOM     11  O   UNL     1       5.178   0.410 -22.680  0.00  0.00    -0.279 OA
ATOM     12  C   UNL     1       4.982   3.068 -22.534  0.00  0.00    +0.088 C 
ATOM     13  C   UNL     1       3.900   3.642 -22.869  0.00  0.00    +0.047 C 
ATOM     14  C   UNL     1       2.918   2.943 -23.271  0.00  0.00    -0.021 C 
ATOM     15  C   UNL     1       1.846   3.507 -23.603  0.00  0.00    +0.017 C 
ATOM     16  C   UNL     1       1.735   4.769 -23.540  0.00  0.00    +0.240 C 
ATOM     17  C   UNL     1       2.708   5.455 -23.142  0.00  0.00    +0.229 C 
ATOM     18  O   UNL     1       3.242   6.843 -22.842  0.00  0.00    -0.480 OA
ATOM     19  C   UNL     1       5.955   3.756 -22.136  0.00  0.00    +0.058 C 
ATOM     20  C   UNL     1       4.663   6.842 -22.342  0.00  0.00    +0.167 A 
ENDROOT
BRANCH   1  22
ATOM     21  C   UNL     1       4.996   9.328 -20.882  0.00  0.00    +0.277 C 
ATOM     22  O   UNL     1       5.548   8.791 -21.874  0.00  0.00    -0.491 OA
ENDBRANCH   1  22
BRANCH  16  23
ATOM     23  O   UNL     1       0.661   5.326 -23.873  0.00  0.00    -0.454 OA
BRANCH  23  24
ATOM     24  C   UNL     1      -0.440   4.821 -23.537  0.00  0.00    +0.305 C 
ATOM     25  O   UNL     1      -1.035   4.038 -24.317  0.00  0.00    -0.251 OA
ATOM     26  C   UNL     1      -0.944   5.101 -22.422  0.00  0.00    +0.136 C 
ENDBRANCH  23  24
ENDBRANCH  16  23
TORSDOF 3
ENDMDL
