MODEL 1
REMARK VINA RESULT:    -9.816      0.000      0.000
REMARK INTER + INTRA:         -12.205
REMARK INTER:                 -11.817
REMARK INTRA:                  -0.388
REMARK UNBOUND:                -0.381
REMARK  Name = ZINC000000057892
REMARK  7 active torsions:
REMARK  status: ('A' for Active; 'I' for Inactive)
REMARK    1  A    between atoms: C_1  and  O_2
REMARK    2  A    between atoms: O_2  and  C_3
REMARK    3  A    between atoms: C_6  and  C_7
REMARK    4  A    between atoms: C_12  and  C_13
REMARK    5  A    between atoms: C_18  and  O_19
REMARK    6  A    between atoms: C_21  and  O_22
REMARK    7  A    between atoms: O_22  and  C_23
REMARK                            x       y       z     vdW  Elec       q    Type
REMARK                         _______ _______ _______ _____ _____    ______ ____
ROOT
ATOM      1  C   UNL     1      -0.108   3.268 -23.232  0.00  0.00    +0.181 A 
ATOM      2  O   UNL     1      -0.748   3.362 -22.104  0.00  0.00    -0.451 OA
ATOM      3  C   UNL     1      -2.046   3.306 -22.087  0.00  0.00    +0.140 A 
ATOM      4  C   UNL     1      -2.686   3.400 -20.959  0.00  0.00    +0.047 A 
ATOM      5  C   UNL     1      -3.985   3.345 -20.943  0.00  0.00    +0.007 A 
ATOM      6  C   UNL     1      -4.644   3.195 -22.054  0.00  0.00    -0.050 A 
ATOM      7  C   UNL     1      -4.004   3.101 -23.180  0.00  0.00    +0.018 A 
ATOM      8  C   UNL     1      -5.942   3.139 -22.037  0.00  0.00    +0.044 C 
ATOM      9  C   UNL     1      -2.705   3.157 -23.198  0.00  0.00    +0.068 A 
ATOM     10  C   UNL     1      -2.065   3.063 -24.325  0.00  0.00    +0.234 A 
ATOM     11  O   UNL     1      -2.724   2.913 -25.436  0.00  0.00    -0.283 OA
ATOM     12  C   UNL     1      -0.767   3.119 -24.342  0.00  0.00    +0.208 A 
ENDROOT
BRANCH   1  16
ATOM     13  C   UNL     1       3.788   3.434 -23.284  0.00  0.00    +0.162 A 
ATOM     14  C   UNL     1       3.089   4.512 -23.480  0.00  0.00    +0.050 A 
ATOM     15  C   UNL     1       1.790   4.457 -23.463  0.00  0.00    +0.015 A 
ATOM     16  C   UNL     1       1.191   3.324 -23.249  0.00  0.00    +0.025 A 
ATOM     17  C   UNL     1       1.889   2.245 -23.052  0.00  0.00    +0.061 A 
ATOM     18  C   UNL     1       3.189   2.301 -23.070  0.00  0.00    +0.162 A 
BRANCH  13  20
ATOM     19  C   UNL     1       5.695   4.590 -22.970  0.00  0.00    +0.277 C 
ATOM     20  O   UNL     1       5.086   3.489 -23.301  0.00  0.00    -0.491 OA
ENDBRANCH  13  20
BRANCH  18  21
ATOM     21  O   UNL     1       3.888   1.222 -22.873  0.00  0.00    -0.491 OA
ATOM     22  C   UNL     1       3.698   0.511 -21.802  0.00  0.00    +0.277 C 
ENDBRANCH  18  21
ENDBRANCH   1  16
BRANCH  12  23
ATOM     23  O   UNL     1      -0.126   3.025 -25.470  0.00  0.00    -0.501 OA
ATOM     24  H   UNL     1       0.784   3.241 -25.511  0.00  0.00    +0.292 HD
ENDBRANCH  12  23
TORSDOF 4
ENDMDL
MODEL 2
REMARK VINA RESULT:    -9.338      1.522      6.984
REMARK INTER + INTRA:         -11.630
REMARK INTER:                 -11.290
REMARK INTRA:                  -0.339
REMARK UNBOUND:                -0.381
REMARK  Name = ZINC000000057892
REMARK  7 active torsions:
REMARK  status: ('A' for Active; 'I' for Inactive)
REMARK    1  A    between atoms: C_1  and  O_2
REMARK    2  A    between atoms: O_2  and  C_3
REMARK    3  A    between atoms: C_6  and  C_7
REMARK    4  A    between atoms: C_12  and  C_13
REMARK    5  A    between atoms: C_18  and  O_19
REMARK    6  A    between atoms: C_21  and  O_22
REMARK    7  A    between atoms: O_22  and  C_23
REMARK                            x       y       z     vdW  Elec       q    Type
REMARK                         _______ _______ _______ _____ _____    ______ ____
ROOT
ATOM      1  C   UNL     1      -0.425   3.054 -22.680  0.00  0.00    +0.181 A 
ATOM      2  O   UNL     1       0.311   4.102 -22.900  0.00  0.00    -0.451 OA
ATOM      3  C   UNL     1       1.603   3.985 -22.972  0.00  0.00    +0.140 A 
ATOM      4  C   UNL     1       2.340   5.034 -23.192  0.00  0.00    +0.047 A 
ATOM      5  C   UNL     1       3.632   4.916 -23.265  0.00  0.00    +0.007 A 
ATOM      6  C   UNL     1       4.189   3.751 -23.118  0.00  0.00    -0.050 A 
ATOM      7  C   UNL     1       3.453   2.703 -22.898  0.00  0.00    +0.018 A 
ATOM      8  C   UNL     1       5.481   3.634 -23.190  0.00  0.00    +0.044 C 
ATOM      9  C   UNL     1       2.159   2.820 -22.825  0.00  0.00    +0.068 A 
ATOM     10  C   UNL     1       1.424   1.771 -22.605  0.00  0.00    +0.234 A 
ATOM     11  O   UNL     1       1.980   0.605 -22.458  0.00  0.00    -0.283 OA
ATOM     12  C   UNL     1       0.131   1.888 -22.532  0.00  0.00    +0.208 A 
ENDROOT
BRANCH   1  16
ATOM     13  C   UNL     1      -4.303   3.403 -22.463  0.00  0.00    +0.162 A 
ATOM     14  C   UNL     1      -3.601   3.275 -21.377  0.00  0.00    +0.050 A 
ATOM     15  C   UNL     1      -2.308   3.158 -21.449  0.00  0.00    +0.015 A 
ATOM     16  C   UNL     1      -1.718   3.170 -22.607  0.00  0.00    +0.025 A 
ATOM     17  C   UNL     1      -2.420   3.299 -23.694  0.00  0.00    +0.061 A 
ATOM     18  C   UNL     1      -3.714   3.416 -23.621  0.00  0.00    +0.162 A 
BRANCH  13  20
ATOM     19  C   UNL     1      -6.289   2.659 -21.706  0.00  0.00    +0.277 C 
ATOM     20  O   UNL     1      -5.596   3.520 -22.390  0.00  0.00    -0.491 OA
ENDBRANCH  13  20
BRANCH  18  21
ATOM     21  O   UNL     1      -4.416   3.545 -24.707  0.00  0.00    -0.491 OA
ATOM     22  C   UNL     1      -3.898   3.233 -25.857  0.00  0.00    +0.277 C 
ENDBRANCH  18  21
ENDBRANCH   1  16
BRANCH  12  23
ATOM     23  O   UNL     1      -0.606   0.839 -22.312  0.00  0.00    -0.501 OA
ATOM     24  H   UNL     1      -1.539   0.913 -22.320  0.00  0.00    +0.292 HD
ENDBRANCH  12  23
TORSDOF 4
ENDMDL
MODEL 3
REMARK VINA RESULT:    -9.326      1.045      2.141
REMARK INTER + INTRA:         -11.615
REMARK INTER:                 -11.292
REMARK INTRA:                  -0.323
REMARK UNBOUND:                -0.381
REMARK  Name = ZINC000000057892
REMARK  7 active torsions:
REMARK  status: ('A' for Active; 'I' for Inactive)
REMARK    1  A    between atoms: C_1  and  O_2
REMARK    2  A    between atoms: O_2  and  C_3
REMARK    3  A    between atoms: C_6  and  C_7
REMARK    4  A    between atoms: C_12  and  C_13
REMARK    5  A    between atoms: C_18  and  O_19
REMARK    6  A    between atoms: C_21  and  O_22
REMARK    7  A    between atoms: O_22  and  C_23
REMARK                            x       y       z     vdW  Elec       q    Type
REMARK                         _______ _______ _______ _____ _____    ______ ____
ROOT
ATOM      1  C   UNL     1       0.089   2.366 -22.778  0.00  0.00    +0.181 A 
ATOM      2  O   UNL     1      -0.787   2.390 -21.818  0.00  0.00    -0.451 OA
ATOM      3  C   UNL     1      -2.021   2.709 -22.072  0.00  0.00    +0.140 A 
ATOM      4  C   UNL     1      -2.898   2.733 -21.112  0.00  0.00    +0.047 A 
ATOM      5  C   UNL     1      -4.132   3.052 -21.367  0.00  0.00    +0.007 A 
ATOM      6  C   UNL     1      -4.490   3.347 -22.581  0.00  0.00    -0.050 A 
ATOM      7  C   UNL     1      -3.614   3.323 -23.540  0.00  0.00    +0.018 A 
ATOM      8  C   UNL     1      -5.724   3.666 -22.836  0.00  0.00    +0.044 C 
ATOM      9  C   UNL     1      -2.379   3.004 -23.286  0.00  0.00    +0.068 A 
ATOM     10  C   UNL     1      -1.503   2.980 -24.246  0.00  0.00    +0.234 A 
ATOM     11  O   UNL     1      -1.861   3.275 -25.461  0.00  0.00    -0.283 OA
ATOM     12  C   UNL     1      -0.269   2.661 -23.992  0.00  0.00    +0.208 A 
ENDROOT
BRANCH   1  16
ATOM     13  C   UNL     1       3.792   1.410 -22.016  0.00  0.00    +0.162 A 
ATOM     14  C   UNL     1       2.883   0.483 -22.087  0.00  0.00    +0.050 A 
ATOM     15  C   UNL     1       1.649   0.802 -22.341  0.00  0.00    +0.015 A 
ATOM     16  C   UNL     1       1.324   2.047 -22.524  0.00  0.00    +0.025 A 
ATOM     17  C   UNL     1       2.232   2.974 -22.453  0.00  0.00    +0.061 A 
ATOM     18  C   UNL     1       3.467   2.655 -22.199  0.00  0.00    +0.162 A 
BRANCH  13  20
ATOM     19  C   UNL     1       5.300   0.272 -20.791  0.00  0.00    +0.277 C 
ATOM     20  O   UNL     1       5.027   1.091 -21.762  0.00  0.00    -0.491 OA
ENDBRANCH  13  20
BRANCH  18  21
ATOM     21  O   UNL     1       4.376   3.582 -22.128  0.00  0.00    -0.491 OA
ATOM     22  C   UNL     1       4.712   4.246 -23.193  0.00  0.00    +0.277 C 
ENDBRANCH  18  21
ENDBRANCH   1  16
BRANCH  12  23
ATOM     23  O   UNL     1       0.608   2.637 -24.952  0.00  0.00    -0.501 OA
ATOM     24  H   UNL     1       0.913   3.438 -25.328  0.00  0.00    +0.292 HD
ENDBRANCH  12  23
TORSDOF 4
ENDMDL
MODEL 4
REMARK VINA RESULT:    -9.320      1.674      6.984
REMARK INTER + INTRA:         -11.607
REMARK INTER:                 -11.280
REMARK INTRA:                  -0.327
REMARK UNBOUND:                -0.381
REMARK  Name = ZINC000000057892
REMARK  7 active torsions:
REMARK  status: ('A' for Active; 'I' for Inactive)
REMARK    1  A    between atoms: C_1  and  O_2
REMARK    2  A    between atoms: O_2  and  C_3
REMARK    3  A    between atoms: C_6  and  C_7
REMARK    4  A    between atoms: C_12  and  C_13
REMARK    5  A    between atoms: C_18  and  O_19
REMARK    6  A    between atoms: C_21  and  O_22
REMARK    7  A    between atoms: O_22  and  C_23
REMARK                            x       y       z     vdW  Elec       q    Type
REMARK                         _______ _______ _______ _____ _____    ______ ____
ROOT
ATOM      1  C   UNL     1      -0.196   3.671 -23.144  0.00  0.00    +0.181 A 
ATOM      2  O   UNL     1       0.521   2.587 -23.106  0.00  0.00    -0.451 OA
ATOM      3  C   UNL     1       1.817   2.663 -23.173  0.00  0.00    +0.140 A 
ATOM      4  C   UNL     1       2.535   1.579 -23.135  0.00  0.00    +0.047 A 
ATOM      5  C   UNL     1       3.831   1.656 -23.203  0.00  0.00    +0.007 A 
ATOM      6  C   UNL     1       4.409   2.815 -23.309  0.00  0.00    -0.050 A 
ATOM      7  C   UNL     1       3.692   3.898 -23.347  0.00  0.00    +0.018 A 
ATOM      8  C   UNL     1       5.705   2.891 -23.377  0.00  0.00    +0.044 C 
ATOM      9  C   UNL     1       2.395   3.823 -23.279  0.00  0.00    +0.068 A 
ATOM     10  C   UNL     1       1.678   4.906 -23.318  0.00  0.00    +0.234 A 
ATOM     11  O   UNL     1       2.257   6.065 -23.424  0.00  0.00    -0.283 OA
ATOM     12  C   UNL     1       0.383   4.830 -23.250  0.00  0.00    +0.208 A 
ENDROOT
BRANCH   1  16
ATOM     13  C   UNL     1      -4.084   3.445 -22.942  0.00  0.00    +0.162 A 
ATOM     14  C   UNL     1      -3.367   3.295 -21.867  0.00  0.00    +0.050 A 
ATOM     15  C   UNL     1      -2.072   3.370 -21.934  0.00  0.00    +0.015 A 
ATOM     16  C   UNL     1      -1.492   3.596 -23.076  0.00  0.00    +0.025 A 
ATOM     17  C   UNL     1      -2.208   3.746 -24.151  0.00  0.00    +0.061 A 
ATOM     18  C   UNL     1      -3.505   3.670 -24.083  0.00  0.00    +0.162 A 
BRANCH  13  20
ATOM     19  C   UNL     1      -5.951   2.958 -21.781  0.00  0.00    +0.277 C 
ATOM     20  O   UNL     1      -5.380   3.370 -22.874  0.00  0.00    -0.491 OA
ENDBRANCH  13  20
BRANCH  18  21
ATOM     21  O   UNL     1      -4.221   3.820 -25.157  0.00  0.00    -0.491 OA
ATOM     22  C   UNL     1      -4.051   3.022 -26.169  0.00  0.00    +0.277 C 
ENDBRANCH  18  21
ENDBRANCH   1  16
BRANCH  12  23
ATOM     23  O   UNL     1      -0.335   5.914 -23.288  0.00  0.00    -0.501 OA
ATOM     24  H   UNL     1       0.029   6.727 -23.000  0.00  0.00    +0.292 HD
ENDBRANCH  12  23
TORSDOF 4
ENDMDL
MODEL 5
REMARK VINA RESULT:    -9.172      1.691      6.908
REMARK INTER + INTRA:         -11.430
REMARK INTER:                 -11.080
REMARK INTRA:                  -0.350
REMARK UNBOUND:                -0.381
REMARK  Name = ZINC000000057892
REMARK  7 active torsions:
REMARK  status: ('A' for Active; 'I' for Inactive)
REMARK    1  A    between atoms: C_1  and  O_2
REMARK    2  A    between atoms: O_2  and  C_3
REMARK    3  A    between atoms: C_6  and  C_7
REMARK    4  A    between atoms: C_12  and  C_13
REMARK    5  A    between atoms: C_18  and  O_19
REMARK    6  A    between atoms: C_21  and  O_22
REMARK    7  A    between atoms: O_22  and  C_23
REMARK                            x       y       z     vdW  Elec       q    Type
REMARK                         _______ _______ _______ _____ _____    ______ ____
ROOT
ATOM      1  C   UNL     1       0.509   2.842 -22.890  0.00  0.00    +0.181 A 
ATOM      2  O   UNL     1       1.340   3.803 -23.169  0.00  0.00    -0.451 OA
ATOM      3  C   UNL     1       2.613   3.640 -22.964  0.00  0.00    +0.140 A 
ATOM      4  C   UNL     1       3.445   4.601 -23.242  0.00  0.00    +0.047 A 
ATOM      5  C   UNL     1       4.718   4.437 -23.037  0.00  0.00    +0.007 A 
ATOM      6  C   UNL     1       5.161   3.315 -22.554  0.00  0.00    -0.050 A 
ATOM      7  C   UNL     1       4.330   2.355 -22.276  0.00  0.00    +0.018 A 
ATOM      8  C   UNL     1       6.434   3.152 -22.349  0.00  0.00    +0.044 C 
ATOM      9  C   UNL     1       3.056   2.517 -22.481  0.00  0.00    +0.068 A 
ATOM     10  C   UNL     1       2.225   1.557 -22.203  0.00  0.00    +0.234 A 
ATOM     11  O   UNL     1       2.668   0.434 -21.720  0.00  0.00    -0.283 OA
ATOM     12  C   UNL     1       0.952   1.720 -22.407  0.00  0.00    +0.208 A 
ENDROOT
BRANCH   1  16
ATOM     13  C   UNL     1      -3.311   3.329 -23.503  0.00  0.00    +0.162 A 
ATOM     14  C   UNL     1      -2.523   3.050 -24.499  0.00  0.00    +0.050 A 
ATOM     15  C   UNL     1      -1.250   2.887 -24.295  0.00  0.00    +0.015 A 
ATOM     16  C   UNL     1      -0.765   3.005 -23.095  0.00  0.00    +0.025 A 
ATOM     17  C   UNL     1      -1.551   3.284 -22.099  0.00  0.00    +0.061 A 
ATOM     18  C   UNL     1      -2.825   3.446 -22.303  0.00  0.00    +0.162 A 
BRANCH  13  20
ATOM     19  C   UNL     1      -4.996   4.335 -24.606  0.00  0.00    +0.277 C 
ATOM     20  O   UNL     1      -4.584   3.491 -23.708  0.00  0.00    -0.491 OA
ENDBRANCH  13  20
BRANCH  18  21
ATOM     21  O   UNL     1      -3.613   3.725 -21.308  0.00  0.00    -0.491 OA
ATOM     22  C   UNL     1      -3.143   3.756 -20.096  0.00  0.00    +0.277 C 
ENDBRANCH  18  21
ENDBRANCH   1  16
BRANCH  12  23
ATOM     23  O   UNL     1       0.121   0.759 -22.129  0.00  0.00    -0.501 OA
ATOM     24  H   UNL     1       0.244   0.242 -21.358  0.00  0.00    +0.292 HD
ENDBRANCH  12  23
TORSDOF 4
ENDMDL
MODEL 6
REMARK VINA RESULT:    -8.862      1.668      6.851
REMARK INTER + INTRA:         -11.057
REMARK INTER:                 -10.678
REMARK INTRA:                  -0.379
REMARK UNBOUND:                -0.381
REMARK  Name = ZINC000000057892
REMARK  7 active torsions:
REMARK  status: ('A' for Active; 'I' for Inactive)
REMARK    1  A    between atoms: C_1  and  O_2
REMARK    2  A    between atoms: O_2  and  C_3
REMARK    3  A    between atoms: C_6  and  C_7
REMARK    4  A    between atoms: C_12  and  C_13
REMARK    5  A    between atoms: C_18  and  O_19
REMARK    6  A    between atoms: C_21  and  O_22
REMARK    7  A    between atoms: O_22  and  C_23
REMARK                            x       y       z     vdW  Elec       q    Type
REMARK                         _______ _______ _______ _____ _____    ______ ____
ROOT
ATOM      1  C   UNL     1       0.433   3.505 -23.257  0.00  0.00    +0.181 A 
ATOM      2  O   UNL     1       1.062   2.382 -23.078  0.00  0.00    -0.451 OA
ATOM      3  C   UNL     1       2.351   2.378 -22.915  0.00  0.00    +0.140 A 
ATOM      4  C   UNL     1       2.981   1.255 -22.735  0.00  0.00    +0.047 A 
ATOM      5  C   UNL     1       4.271   1.252 -22.572  0.00  0.00    +0.007 A 
ATOM      6  C   UNL     1       4.931   2.372 -22.589  0.00  0.00    -0.050 A 
ATOM      7  C   UNL     1       4.302   3.494 -22.769  0.00  0.00    +0.018 A 
ATOM      8  C   UNL     1       6.221   2.369 -22.426  0.00  0.00    +0.044 C 
ATOM      9  C   UNL     1       3.012   3.498 -22.932  0.00  0.00    +0.068 A 
ATOM     10  C   UNL     1       2.382   4.621 -23.112  0.00  0.00    +0.234 A 
ATOM     11  O   UNL     1       3.043   5.741 -23.129  0.00  0.00    -0.283 OA
ATOM     12  C   UNL     1       1.093   4.625 -23.275  0.00  0.00    +0.208 A 
ENDROOT
BRANCH   1  16
ATOM     13  C   UNL     1      -3.436   3.517 -23.745  0.00  0.00    +0.162 A 
ATOM     14  C   UNL     1      -2.651   3.468 -24.780  0.00  0.00    +0.050 A 
ATOM     15  C   UNL     1      -1.362   3.464 -24.617  0.00  0.00    +0.015 A 
ATOM     16  C   UNL     1      -0.858   3.509 -23.420  0.00  0.00    +0.025 A 
ATOM     17  C   UNL     1      -1.642   3.558 -22.385  0.00  0.00    +0.061 A 
ATOM     18  C   UNL     1      -2.932   3.561 -22.548  0.00  0.00    +0.162 A 
BRANCH  13  20
ATOM     19  C   UNL     1      -5.233   3.780 -25.076  0.00  0.00    +0.277 C 
ATOM     20  O   UNL     1      -4.726   3.520 -23.907  0.00  0.00    -0.491 OA
ENDBRANCH  13  20
BRANCH  18  21
ATOM     21  O   UNL     1      -3.718   3.610 -21.513  0.00  0.00    -0.491 OA
ATOM     22  C   UNL     1      -3.216   3.757 -20.323  0.00  0.00    +0.277 C 
ENDBRANCH  18  21
ENDBRANCH   1  16
BRANCH  12  23
ATOM     23  O   UNL     1       0.463   5.748 -23.455  0.00  0.00    -0.501 OA
ATOM     24  H   UNL     1      -0.002   5.901 -24.253  0.00  0.00    +0.292 HD
ENDBRANCH  12  23
TORSDOF 4
ENDMDL
MODEL 7
REMARK VINA RESULT:    -8.674      1.526      3.134
REMARK INTER + INTRA:         -10.830
REMARK INTER:                 -10.555
REMARK INTRA:                  -0.274
REMARK UNBOUND:                -0.381
REMARK  Name = ZINC000000057892
REMARK  7 active torsions:
REMARK  status: ('A' for Active; 'I' for Inactive)
REMARK    1  A    between atoms: C_1  and  O_2
REMARK    2  A    between atoms: O_2  and  C_3
REMARK    3  A    between atoms: C_6  and  C_7
REMARK    4  A    between atoms: C_12  and  C_13
REMARK    5  A    between atoms: C_18  and  O_19
REMARK    6  A    between atoms: C_21  and  O_22
REMARK    7  A    between atoms: O_22  and  C_23
REMARK                            x       y       z     vdW  Elec       q    Type
REMARK                         _______ _______ _______ _____ _____    ______ ____
ROOT
ATOM      1  C   UNL     1       0.132   2.340 -22.937  0.00  0.00    +0.181 A 
ATOM      2  O   UNL     1      -0.215   2.728 -24.128  0.00  0.00    -0.451 OA
ATOM      3  C   UNL     1      -1.449   3.059 -24.369  0.00  0.00    +0.140 A 
ATOM      4  C   UNL     1      -1.797   3.447 -25.561  0.00  0.00    +0.047 A 
ATOM      5  C   UNL     1      -3.031   3.778 -25.801  0.00  0.00    +0.007 A 
ATOM      6  C   UNL     1      -3.917   3.720 -24.851  0.00  0.00    -0.050 A 
ATOM      7  C   UNL     1      -3.569   3.332 -23.661  0.00  0.00    +0.018 A 
ATOM      8  C   UNL     1      -5.151   4.051 -25.092  0.00  0.00    +0.044 C 
ATOM      9  C   UNL     1      -2.335   3.001 -23.420  0.00  0.00    +0.068 A 
ATOM     10  C   UNL     1      -1.987   2.612 -22.229  0.00  0.00    +0.234 A 
ATOM     11  O   UNL     1      -2.873   2.555 -21.279  0.00  0.00    -0.283 OA
ATOM     12  C   UNL     1      -0.754   2.282 -21.988  0.00  0.00    +0.208 A 
ENDROOT
BRANCH   1  16
ATOM     13  C   UNL     1       3.833   1.348 -22.213  0.00  0.00    +0.162 A 
ATOM     14  C   UNL     1       2.912   0.432 -22.259  0.00  0.00    +0.050 A 
ATOM     15  C   UNL     1       1.679   0.762 -22.501  0.00  0.00    +0.015 A 
ATOM     16  C   UNL     1       1.366   2.009 -22.696  0.00  0.00    +0.025 A 
ATOM     17  C   UNL     1       2.287   2.925 -22.649  0.00  0.00    +0.061 A 
ATOM     18  C   UNL     1       3.521   2.594 -22.408  0.00  0.00    +0.162 A 
BRANCH  13  20
ATOM     19  C   UNL     1       5.371   0.401 -20.868  0.00  0.00    +0.277 C 
ATOM     20  O   UNL     1       5.067   1.018 -21.971  0.00  0.00    -0.491 OA
ENDBRANCH  13  20
BRANCH  18  21
ATOM     21  O   UNL     1       4.442   3.511 -22.361  0.00  0.00    -0.491 OA
ATOM     22  C   UNL     1       4.303   4.607 -23.044  0.00  0.00    +0.277 C 
ENDBRANCH  18  21
ENDBRANCH   1  16
BRANCH  12  23
ATOM     23  O   UNL     1      -0.406   1.893 -20.796  0.00  0.00    -0.501 OA
ATOM     24  H   UNL     1       0.351   1.353 -20.683  0.00  0.00    +0.292 HD
ENDBRANCH  12  23
TORSDOF 4
ENDMDL
MODEL 8
REMARK VINA RESULT:    -8.128      1.347      2.218
REMARK INTER + INTRA:         -10.172
REMARK INTER:                 -10.565
REMARK INTRA:                   0.393
REMARK UNBOUND:                -0.381
REMARK  Name = ZINC000000057892
REMARK  7 active torsions:
REMARK  status: ('A' for Active; 'I' for Inactive)
REMARK    1  A    between atoms: C_1  and  O_2
REMARK    2  A    between atoms: O_2  and  C_3
REMARK    3  A    between atoms: C_6  and  C_7
REMARK    4  A    between atoms: C_12  and  C_13
REMARK    5  A    between atoms: C_18  and  O_19
REMARK    6  A    between atoms: C_21  and  O_22
REMARK    7  A    between atoms: O_22  and  C_23
REMARK                            x       y       z     vdW  Elec       q    Type
REMARK                         _______ _______ _______ _____ _____    ______ ____
ROOT
ATOM      1  C   UNL     1       0.374   2.907 -22.939  0.00  0.00    +0.181 A 
ATOM      2  O   UNL     1      -0.225   3.564 -23.888  0.00  0.00    -0.451 OA
ATOM      3  C   UNL     1      -1.522   3.640 -23.906  0.00  0.00    +0.140 A 
ATOM      4  C   UNL     1      -2.122   4.297 -24.855  0.00  0.00    +0.047 A 
ATOM      5  C   UNL     1      -3.420   4.373 -24.873  0.00  0.00    +0.007 A 
ATOM      6  C   UNL     1      -4.118   3.794 -23.942  0.00  0.00    -0.050 A 
ATOM      7  C   UNL     1      -3.519   3.138 -22.994  0.00  0.00    +0.018 A 
ATOM      8  C   UNL     1      -5.416   3.870 -23.960  0.00  0.00    +0.044 C 
ATOM      9  C   UNL     1      -2.221   3.061 -22.975  0.00  0.00    +0.068 A 
ATOM     10  C   UNL     1      -1.622   2.405 -22.026  0.00  0.00    +0.234 A 
ATOM     11  O   UNL     1      -2.321   1.825 -21.096  0.00  0.00    -0.283 OA
ATOM     12  C   UNL     1      -0.325   2.328 -22.008  0.00  0.00    +0.208 A 
ENDROOT
BRANCH   1  16
ATOM     13  C   UNL     1       4.266   2.676 -22.883  0.00  0.00    +0.162 A 
ATOM     14  C   UNL     1       3.686   3.770 -23.277  0.00  0.00    +0.050 A 
ATOM     15  C   UNL     1       2.389   3.847 -23.296  0.00  0.00    +0.015 A 
ATOM     16  C   UNL     1       1.672   2.830 -22.920  0.00  0.00    +0.025 A 
ATOM     17  C   UNL     1       2.251   1.736 -22.526  0.00  0.00    +0.061 A 
ATOM     18  C   UNL     1       3.549   1.659 -22.507  0.00  0.00    +0.162 A 
BRANCH  13  20
ATOM     19  C   UNL     1       6.280   3.681 -22.916  0.00  0.00    +0.277 C 
ATOM     20  O   UNL     1       5.563   2.598 -22.864  0.00  0.00    -0.491 OA
ENDBRANCH  13  20
BRANCH  18  21
ATOM     21  O   UNL     1       4.129   0.564 -22.113  0.00  0.00    -0.491 OA
ATOM     22  C   UNL     1       4.051   0.199 -20.868  0.00  0.00    +0.277 C 
ENDBRANCH  18  21
ENDBRANCH   1  16
BRANCH  12  23
ATOM     23  O   UNL     1       0.274   1.671 -21.059  0.00  0.00    -0.501 OA
ATOM     24  H   UNL     1       0.782   2.131 -20.421  0.00  0.00    +0.292 HD
ENDBRANCH  12  23
TORSDOF 4
ENDMDL
MODEL 9
REMARK VINA RESULT:    -7.887      2.241      7.177
REMARK INTER + INTRA:          -9.882
REMARK INTER:                  -9.501
REMARK INTRA:                  -0.381
REMARK UNBOUND:                -0.381
REMARK  Name = ZINC000000057892
REMARK  7 active torsions:
REMARK  status: ('A' for Active; 'I' for Inactive)
REMARK    1  A    between atoms: C_1  and  O_2
REMARK    2  A    between atoms: O_2  and  C_3
REMARK    3  A    between atoms: C_6  and  C_7
REMARK    4  A    between atoms: C_12  and  C_13
REMARK    5  A    between atoms: C_18  and  O_19
REMARK    6  A    between atoms: C_21  and  O_22
REMARK    7  A    between atoms: O_22  and  C_23
REMARK                            x       y       z     vdW  Elec       q    Type
REMARK                         _______ _______ _______ _____ _____    ______ ____
ROOT
ATOM      1  C   UNL     1       2.345   4.069 -23.587  0.00  0.00    +0.181 A 
ATOM      2  O   UNL     1       3.343   3.251 -23.745  0.00  0.00    -0.451 OA
ATOM      3  C   UNL     1       4.548   3.630 -23.439  0.00  0.00    +0.140 A 
ATOM      4  C   UNL     1       5.547   2.812 -23.597  0.00  0.00    +0.047 A 
ATOM      5  C   UNL     1       6.752   3.192 -23.290  0.00  0.00    +0.007 A 
ATOM      6  C   UNL     1       6.959   4.389 -22.827  0.00  0.00    -0.050 A 
ATOM      7  C   UNL     1       5.961   5.205 -22.669  0.00  0.00    +0.018 A 
ATOM      8  C   UNL     1       8.164   4.768 -22.521  0.00  0.00    +0.044 C 
ATOM      9  C   UNL     1       4.755   4.827 -22.975  0.00  0.00    +0.068 A 
ATOM     10  C   UNL     1       3.757   5.644 -22.817  0.00  0.00    +0.234 A 
ATOM     11  O   UNL     1       3.964   6.841 -22.353  0.00  0.00    -0.283 OA
ATOM     12  C   UNL     1       2.552   5.265 -23.123  0.00  0.00    +0.208 A 
ENDROOT
BRANCH   1  16
ATOM     13  C   UNL     1      -1.271   2.932 -24.504  0.00  0.00    +0.162 A 
ATOM     14  C   UNL     1      -0.556   3.587 -25.370  0.00  0.00    +0.050 A 
ATOM     15  C   UNL     1       0.649   3.966 -25.065  0.00  0.00    +0.015 A 
ATOM     16  C   UNL     1       1.139   3.690 -23.893  0.00  0.00    +0.025 A 
ATOM     17  C   UNL     1       0.425   3.035 -23.026  0.00  0.00    +0.061 A 
ATOM     18  C   UNL     1      -0.781   2.657 -23.332  0.00  0.00    +0.162 A 
BRANCH  13  20
ATOM     19  C   UNL     1      -3.116   3.138 -25.778  0.00  0.00    +0.277 C 
ATOM     20  O   UNL     1      -2.476   2.554 -24.809  0.00  0.00    -0.491 OA
ENDBRANCH  13  20
BRANCH  18  21
ATOM     21  O   UNL     1      -1.496   2.002 -22.465  0.00  0.00    -0.491 OA
ATOM     22  C   UNL     1      -0.913   1.306 -21.536  0.00  0.00    +0.277 C 
ENDBRANCH  18  21
ENDBRANCH   1  16
BRANCH  12  23
ATOM     23  O   UNL     1       1.553   6.083 -22.965  0.00  0.00    -0.501 OA
ATOM     24  H   UNL     1       1.619   6.790 -22.354  0.00  0.00    +0.292 HD
ENDBRANCH  12  23
TORSDOF 4
ENDMDL
