MODEL 1
REMARK VINA RESULT:    -5.602      0.000      0.000
REMARK INTER + INTRA:          -6.514
REMARK INTER:                  -6.421
REMARK INTRA:                  -0.093
REMARK UNBOUND:                -0.093
REMARK  Name = ZINC000014455311
REMARK  4 active torsions:
REMARK  status: ('A' for Active; 'I' for Inactive)
REMARK    1  A    between atoms: C_1  and  O_2
REMARK    2  A    between atoms: O_2  and  C_3
REMARK    3  A    between atoms: C_5  and  C_6
REMARK    4  A    between atoms: C_6  and  O_7
REMARK                            x       y       z     vdW  Elec       q    Type
REMARK                         _______ _______ _______ _____ _____    ______ ____
ROOT
ATOM      1  C   UNL     1      -4.322   3.588 -24.103  0.00  0.00    +0.130 A 
ATOM      2  C   UNL     1      -3.238   3.208 -23.494  0.00  0.00    +0.090 A 
ATOM      3  C   UNL     1      -2.169   2.933 -24.180  0.00  0.00    +0.138 A 
ATOM      4  O   UNL     1      -2.183   3.039 -25.476  0.00  0.00    -0.425 OA
ATOM      5  C   UNL     1      -3.267   3.419 -26.085  0.00  0.00    +0.340 A 
ATOM      6  O   UNL     1      -3.281   3.525 -27.381  0.00  0.00    -0.245 OA
ATOM      7  C   UNL     1      -4.336   3.694 -25.399  0.00  0.00    +0.137 A 
ENDROOT
BRANCH   1   9
ATOM      8  C   UNL     1      -5.561   3.335 -22.241  0.00  0.00    +0.277 C 
ATOM      9  O   UNL     1      -5.391   3.862 -23.417  0.00  0.00    -0.495 OA
ENDBRANCH   1   9
BRANCH   3  10
ATOM     10  C   UNL     1      -1.085   2.553 -23.571  0.00  0.00    +0.230 C 
BRANCH  10  11
ATOM     11  O   UNL     1      -0.064   2.139 -24.260  0.00  0.00    -0.387 OA
ATOM     12  H   UNL     1       0.148   1.226 -24.007  0.00  0.00    +0.210 HD
ENDBRANCH  10  11
ENDBRANCH   3  10
TORSDOF 3
ENDMDL
MODEL 2
REMARK VINA RESULT:    -5.521      1.928      4.048
REMARK INTER + INTRA:          -6.421
REMARK INTER:                  -6.333
REMARK INTRA:                  -0.088
REMARK UNBOUND:                -0.093
REMARK  Name = ZINC000014455311
REMARK  4 active torsions:
REMARK  status: ('A' for Active; 'I' for Inactive)
REMARK    1  A    between atoms: C_1  and  O_2
REMARK    2  A    between atoms: O_2  and  C_3
REMARK    3  A    between atoms: C_5  and  C_6
REMARK    4  A    between atoms: C_6  and  O_7
REMARK                            x       y       z     vdW  Elec       q    Type
REMARK                         _______ _______ _______ _____ _____    ______ ____
ROOT
ATOM      1  C   UNL     1      -2.820   2.997 -21.807  0.00  0.00    +0.130 A 
ATOM      2  C   UNL     1      -2.582   3.493 -22.986  0.00  0.00    +0.090 A 
ATOM      3  C   UNL     1      -3.569   3.810 -23.769  0.00  0.00    +0.138 A 
ATOM      4  O   UNL     1      -4.795   3.632 -23.374  0.00  0.00    -0.425 OA
ATOM      5  C   UNL     1      -5.033   3.137 -22.196  0.00  0.00    +0.340 A 
ATOM      6  O   UNL     1      -6.259   2.959 -21.801  0.00  0.00    -0.245 OA
ATOM      7  C   UNL     1      -4.046   2.820 -21.413  0.00  0.00    +0.137 A 
ENDROOT
BRANCH   1   9
ATOM      8  C   UNL     1      -0.849   1.961 -21.478  0.00  0.00    +0.277 C 
ATOM      9  O   UNL     1      -1.832   2.679 -21.024  0.00  0.00    -0.495 OA
ENDBRANCH   1   9
BRANCH   3  10
ATOM     10  C   UNL     1      -3.331   4.306 -24.947  0.00  0.00    +0.230 C 
BRANCH  10  11
ATOM     11  O   UNL     1      -4.098   5.239 -25.426  0.00  0.00    -0.387 OA
ATOM     12  H   UNL     1      -4.200   5.945 -24.768  0.00  0.00    +0.210 HD
ENDBRANCH  10  11
ENDBRANCH   3  10
TORSDOF 3
ENDMDL
MODEL 3
REMARK VINA RESULT:    -5.440      2.104      3.524
REMARK INTER + INTRA:          -6.328
REMARK INTER:                  -6.237
REMARK INTRA:                  -0.091
REMARK UNBOUND:                -0.093
REMARK  Name = ZINC000014455311
REMARK  4 active torsions:
REMARK  status: ('A' for Active; 'I' for Inactive)
REMARK    1  A    between atoms: C_1  and  O_2
REMARK    2  A    between atoms: O_2  and  C_3
REMARK    3  A    between atoms: C_5  and  C_6
REMARK    4  A    between atoms: C_6  and  O_7
REMARK                            x       y       z     vdW  Elec       q    Type
REMARK                         _______ _______ _______ _____ _____    ______ ____
ROOT
ATOM      1  C   UNL     1      -4.115   3.445 -22.816  0.00  0.00    +0.130 A 
ATOM      2  C   UNL     1      -3.028   2.941 -23.322  0.00  0.00    +0.090 A 
ATOM      3  C   UNL     1      -2.023   2.656 -22.549  0.00  0.00    +0.138 A 
ATOM      4  O   UNL     1      -2.104   2.874 -21.271  0.00  0.00    -0.425 OA
ATOM      5  C   UNL     1      -3.190   3.379 -20.765  0.00  0.00    +0.340 A 
ATOM      6  O   UNL     1      -3.271   3.597 -19.486  0.00  0.00    -0.245 OA
ATOM      7  C   UNL     1      -4.195   3.664 -21.537  0.00  0.00    +0.137 A 
ENDROOT
BRANCH   1   9
ATOM      8  C   UNL     1      -4.935   3.880 -24.867  0.00  0.00    +0.277 C 
ATOM      9  O   UNL     1      -5.120   3.731 -23.589  0.00  0.00    -0.495 OA
ENDBRANCH   1   9
BRANCH   3  10
ATOM     10  C   UNL     1      -0.937   2.152 -23.056  0.00  0.00    +0.230 C 
BRANCH  10  11
ATOM     11  O   UNL     1      -0.755   2.161 -24.342  0.00  0.00    -0.387 OA
ATOM     12  H   UNL     1      -0.410   1.299 -24.627  0.00  0.00    +0.210 HD
ENDBRANCH  10  11
ENDBRANCH   3  10
TORSDOF 3
ENDMDL
MODEL 4
REMARK VINA RESULT:    -5.394      0.981      3.002
REMARK INTER + INTRA:          -6.276
REMARK INTER:                  -6.191
REMARK INTRA:                  -0.085
REMARK UNBOUND:                -0.093
REMARK  Name = ZINC000014455311
REMARK  4 active torsions:
REMARK  status: ('A' for Active; 'I' for Inactive)
REMARK    1  A    between atoms: C_1  and  O_2
REMARK    2  A    between atoms: O_2  and  C_3
REMARK    3  A    between atoms: C_5  and  C_6
REMARK    4  A    between atoms: C_6  and  O_7
REMARK                            x       y       z     vdW  Elec       q    Type
REMARK                         _______ _______ _______ _____ _____    ______ ____
ROOT
ATOM      1  C   UNL     1      -3.468   3.215 -22.946  0.00  0.00    +0.130 A 
ATOM      2  C   UNL     1      -3.834   3.470 -24.168  0.00  0.00    +0.090 A 
ATOM      3  C   UNL     1      -3.026   3.216 -25.154  0.00  0.00    +0.138 A 
ATOM      4  O   UNL     1      -1.853   2.708 -24.919  0.00  0.00    -0.425 OA
ATOM      5  C   UNL     1      -1.487   2.453 -23.698  0.00  0.00    +0.340 A 
ATOM      6  O   UNL     1      -0.314   1.944 -23.463  0.00  0.00    -0.245 OA
ATOM      7  C   UNL     1      -2.295   2.706 -22.712  0.00  0.00    +0.137 A 
ENDROOT
BRANCH   1   9
ATOM      8  C   UNL     1      -5.556   3.295 -22.107  0.00  0.00    +0.277 C 
ATOM      9  O   UNL     1      -4.276   3.468 -21.960  0.00  0.00    -0.495 OA
ENDBRANCH   1   9
BRANCH   3  10
ATOM     10  C   UNL     1      -3.392   3.471 -26.375  0.00  0.00    +0.230 C 
BRANCH  10  11
ATOM     11  O   UNL     1      -4.540   3.048 -26.811  0.00  0.00    -0.387 OA
ATOM     12  H   UNL     1      -4.423   2.194 -27.257  0.00  0.00    +0.210 HD
ENDBRANCH  10  11
ENDBRANCH   3  10
TORSDOF 3
ENDMDL
MODEL 5
REMARK VINA RESULT:    -5.346      1.601      3.166
REMARK INTER + INTRA:          -6.220
REMARK INTER:                  -6.130
REMARK INTRA:                  -0.091
REMARK UNBOUND:                -0.093
REMARK  Name = ZINC000014455311
REMARK  4 active torsions:
REMARK  status: ('A' for Active; 'I' for Inactive)
REMARK    1  A    between atoms: C_1  and  O_2
REMARK    2  A    between atoms: O_2  and  C_3
REMARK    3  A    between atoms: C_5  and  C_6
REMARK    4  A    between atoms: C_6  and  O_7
REMARK                            x       y       z     vdW  Elec       q    Type
REMARK                         _______ _______ _______ _____ _____    ______ ____
ROOT
ATOM      1  C   UNL     1      -3.264   3.079 -22.226  0.00  0.00    +0.130 A 
ATOM      2  C   UNL     1      -3.128   3.406 -23.478  0.00  0.00    +0.090 A 
ATOM      3  C   UNL     1      -2.077   3.024 -24.139  0.00  0.00    +0.138 A 
ATOM      4  O   UNL     1      -1.160   2.317 -23.549  0.00  0.00    -0.425 OA
ATOM      5  C   UNL     1      -1.294   1.990 -22.299  0.00  0.00    +0.340 A 
ATOM      6  O   UNL     1      -0.377   1.282 -21.709  0.00  0.00    -0.245 OA
ATOM      7  C   UNL     1      -2.346   2.371 -21.637  0.00  0.00    +0.137 A 
ENDROOT
BRANCH   1   9
ATOM      8  C   UNL     1      -5.500   3.281 -22.069  0.00  0.00    +0.277 C 
ATOM      9  O   UNL     1      -4.315   3.461 -21.565  0.00  0.00    -0.495 OA
ENDBRANCH   1   9
BRANCH   3  10
ATOM     10  C   UNL     1      -1.942   3.351 -25.390  0.00  0.00    +0.230 C 
BRANCH  10  11
ATOM     11  O   UNL     1      -0.767   3.331 -25.944  0.00  0.00    -0.387 OA
ATOM     12  H   UNL     1      -0.582   2.439 -26.281  0.00  0.00    +0.210 HD
ENDBRANCH  10  11
ENDBRANCH   3  10
TORSDOF 3
ENDMDL
MODEL 6
REMARK VINA RESULT:    -5.217      1.651      4.011
REMARK INTER + INTRA:          -6.072
REMARK INTER:                  -5.980
REMARK INTRA:                  -0.093
REMARK UNBOUND:                -0.093
REMARK  Name = ZINC000014455311
REMARK  4 active torsions:
REMARK  status: ('A' for Active; 'I' for Inactive)
REMARK    1  A    between atoms: C_1  and  O_2
REMARK    2  A    between atoms: O_2  and  C_3
REMARK    3  A    between atoms: C_5  and  C_6
REMARK    4  A    between atoms: C_6  and  O_7
REMARK                            x       y       z     vdW  Elec       q    Type
REMARK                         _______ _______ _______ _____ _____    ______ ____
ROOT
ATOM      1  C   UNL     1      -1.706   2.381 -22.050  0.00  0.00    +0.130 A 
ATOM      2  C   UNL     1      -2.910   2.631 -21.625  0.00  0.00    +0.090 A 
ATOM      3  C   UNL     1      -3.826   3.022 -22.460  0.00  0.00    +0.138 A 
ATOM      4  O   UNL     1      -3.539   3.163 -23.720  0.00  0.00    -0.425 OA
ATOM      5  C   UNL     1      -2.336   2.913 -24.145  0.00  0.00    +0.340 A 
ATOM      6  O   UNL     1      -2.048   3.055 -25.405  0.00  0.00    -0.245 OA
ATOM      7  C   UNL     1      -1.420   2.523 -23.310  0.00  0.00    +0.137 A 
ENDROOT
BRANCH   1   9
ATOM      8  C   UNL     1       0.297   1.431 -21.657  0.00  0.00    +0.277 C 
ATOM      9  O   UNL     1      -0.790   1.990 -21.215  0.00  0.00    -0.495 OA
ENDBRANCH   1   9
BRANCH   3  10
ATOM     10  C   UNL     1      -5.029   3.271 -22.035  0.00  0.00    +0.230 C 
BRANCH  10  11
ATOM     11  O   UNL     1      -5.935   3.697 -22.864  0.00  0.00    -0.387 OA
ATOM     12  H   UNL     1      -6.050   3.050 -23.578  0.00  0.00    +0.210 HD
ENDBRANCH  10  11
ENDBRANCH   3  10
TORSDOF 3
ENDMDL
MODEL 7
REMARK VINA RESULT:    -5.180      2.618      4.536
REMARK INTER + INTRA:          -6.030
REMARK INTER:                  -5.948
REMARK INTRA:                  -0.081
REMARK UNBOUND:                -0.093
REMARK  Name = ZINC000014455311
REMARK  4 active torsions:
REMARK  status: ('A' for Active; 'I' for Inactive)
REMARK    1  A    between atoms: C_1  and  O_2
REMARK    2  A    between atoms: O_2  and  C_3
REMARK    3  A    between atoms: C_5  and  C_6
REMARK    4  A    between atoms: C_6  and  O_7
REMARK                            x       y       z     vdW  Elec       q    Type
REMARK                         _______ _______ _______ _____ _____    ______ ____
ROOT
ATOM      1  C   UNL     1      -0.959   2.390 -22.953  0.00  0.00    +0.130 A 
ATOM      2  C   UNL     1      -0.385   2.808 -24.042  0.00  0.00    +0.090 A 
ATOM      3  C   UNL     1       0.895   2.655 -24.203  0.00  0.00    +0.138 A 
ATOM      4  O   UNL     1       1.603   2.083 -23.274  0.00  0.00    -0.425 OA
ATOM      5  C   UNL     1       1.030   1.664 -22.185  0.00  0.00    +0.340 A 
ATOM      6  O   UNL     1       1.737   1.093 -21.256  0.00  0.00    -0.245 OA
ATOM      7  C   UNL     1      -0.251   1.818 -22.024  0.00  0.00    +0.137 A 
ENDROOT
BRANCH   1   9
ATOM      8  C   UNL     1      -2.831   3.600 -23.264  0.00  0.00    +0.277 C 
ATOM      9  O   UNL     1      -2.240   2.543 -22.792  0.00  0.00    -0.495 OA
ENDBRANCH   1   9
BRANCH   3  10
ATOM     10  C   UNL     1       1.468   3.073 -25.292  0.00  0.00    +0.230 C 
BRANCH  10  11
ATOM     11  O   UNL     1       1.452   2.333 -26.360  0.00  0.00    -0.387 OA
ATOM     12  H   UNL     1       1.621   2.886 -27.139  0.00  0.00    +0.210 HD
ENDBRANCH  10  11
ENDBRANCH   3  10
TORSDOF 3
ENDMDL
MODEL 8
REMARK VINA RESULT:    -5.175      1.406      3.748
REMARK INTER + INTRA:          -6.025
REMARK INTER:                  -5.932
REMARK INTRA:                  -0.093
REMARK UNBOUND:                -0.093
REMARK  Name = ZINC000014455311
REMARK  4 active torsions:
REMARK  status: ('A' for Active; 'I' for Inactive)
REMARK    1  A    between atoms: C_1  and  O_2
REMARK    2  A    between atoms: O_2  and  C_3
REMARK    3  A    between atoms: C_5  and  C_6
REMARK    4  A    between atoms: C_6  and  O_7
REMARK                            x       y       z     vdW  Elec       q    Type
REMARK                         _______ _______ _______ _____ _____    ______ ____
ROOT
ATOM      1  C   UNL     1      -2.056   3.297 -23.612  0.00  0.00    +0.130 A 
ATOM      2  C   UNL     1      -2.922   3.024 -22.681  0.00  0.00    +0.090 A 
ATOM      3  C   UNL     1      -4.163   3.384 -22.821  0.00  0.00    +0.138 A 
ATOM      4  O   UNL     1      -4.538   4.017 -23.893  0.00  0.00    -0.425 OA
ATOM      5  C   UNL     1      -3.673   4.290 -24.824  0.00  0.00    +0.340 A 
ATOM      6  O   UNL     1      -4.049   4.923 -25.895  0.00  0.00    -0.245 OA
ATOM      7  C   UNL     1      -2.432   3.930 -24.683  0.00  0.00    +0.137 A 
ENDROOT
BRANCH   1   9
ATOM      8  C   UNL     1       0.045   3.188 -24.413  0.00  0.00    +0.277 C 
ATOM      9  O   UNL     1      -0.815   2.937 -23.471  0.00  0.00    -0.495 OA
ENDBRANCH   1   9
BRANCH   3  10
ATOM     10  C   UNL     1      -5.028   3.112 -21.890  0.00  0.00    +0.230 C 
BRANCH  10  11
ATOM     11  O   UNL     1      -6.277   3.432 -22.050  0.00  0.00    -0.387 OA
ATOM     12  H   UNL     1      -6.806   3.040 -21.337  0.00  0.00    +0.210 HD
ENDBRANCH  10  11
ENDBRANCH   3  10
TORSDOF 3
ENDMDL
MODEL 9
REMARK VINA RESULT:    -5.174      1.948      3.599
REMARK INTER + INTRA:          -6.023
REMARK INTER:                  -5.939
REMARK INTRA:                  -0.084
REMARK UNBOUND:                -0.093
REMARK  Name = ZINC000014455311
REMARK  4 active torsions:
REMARK  status: ('A' for Active; 'I' for Inactive)
REMARK    1  A    between atoms: C_1  and  O_2
REMARK    2  A    between atoms: O_2  and  C_3
REMARK    3  A    between atoms: C_5  and  C_6
REMARK    4  A    between atoms: C_6  and  O_7
REMARK                            x       y       z     vdW  Elec       q    Type
REMARK                         _______ _______ _______ _____ _____    ______ ____
ROOT
ATOM      1  C   UNL     1      -3.306   3.213 -24.071  0.00  0.00    +0.130 A 
ATOM      2  C   UNL     1      -3.797   3.352 -22.875  0.00  0.00    +0.090 A 
ATOM      3  C   UNL     1      -3.108   2.972 -21.841  0.00  0.00    +0.138 A 
ATOM      4  O   UNL     1      -1.928   2.452 -22.002  0.00  0.00    -0.425 OA
ATOM      5  C   UNL     1      -1.436   2.313 -23.197  0.00  0.00    +0.340 A 
ATOM      6  O   UNL     1      -0.256   1.793 -23.358  0.00  0.00    -0.245 OA
ATOM      7  C   UNL     1      -2.126   2.693 -24.231  0.00  0.00    +0.137 A 
ENDROOT
BRANCH   1   9
ATOM      8  C   UNL     1      -3.529   3.401 -26.303  0.00  0.00    +0.277 C 
ATOM      9  O   UNL     1      -3.996   3.593 -25.105  0.00  0.00    -0.495 OA
ENDBRANCH   1   9
BRANCH   3  10
ATOM     10  C   UNL     1      -3.599   3.112 -20.645  0.00  0.00    +0.230 C 
BRANCH  10  11
ATOM     11  O   UNL     1      -3.168   4.063 -19.873  0.00  0.00    -0.387 OA
ATOM     12  H   UNL     1      -3.341   3.832 -18.946  0.00  0.00    +0.210 HD
ENDBRANCH  10  11
ENDBRANCH   3  10
TORSDOF 3
ENDMDL
