MODEL 1
REMARK VINA RESULT:    -6.104      0.000      0.000
REMARK INTER + INTRA:          -7.479
REMARK INTER:                  -7.539
REMARK INTRA:                   0.059
REMARK UNBOUND:                 0.052
REMARK  Name = ZINC000006731693
REMARK  5 active torsions:
REMARK  status: ('A' for Active; 'I' for Inactive)
REMARK    1  A    between atoms: N_1  and  CA_2
REMARK    2  A    between atoms: CA_2  and  C_3
REMARK    3  A    between atoms: CA_2  and  CB_5
REMARK    4  A    between atoms: C_3  and  O_4
REMARK    5  A    between atoms: CB_5  and  CG_6
REMARK                            x       y       z     vdW  Elec       q    Type
REMARK                         _______ _______ _______ _____ _____    ______ ____
ROOT
ATOM      1  CA  PHE A   1      -3.697   3.560 -25.872  0.00  0.00    +0.091 C 
ENDROOT
BRANCH   1   2
ATOM      2  N   PHE A   1      -4.818   3.021 -26.250  0.00  0.00    +0.223 N 
ATOM      3  H1  PHE A   1      -5.184   3.527 -27.056  0.00  0.00    +0.200 HD
ATOM      4  H2  PHE A   1      -4.659   2.046 -26.503  0.00  0.00    +0.200 HD
ATOM      5  H3  PHE A   1      -5.492   3.067 -25.485  0.00  0.00    +0.200 HD
ENDBRANCH   1   2
BRANCH   1   6
ATOM      6  CB  PHE A   1      -3.649   4.260 -24.778  0.00  0.00    +0.091 C 
BRANCH   6   7
ATOM      7  CG  PHE A   1      -3.979   3.718 -23.643  0.00  0.00    -0.042 A 
ATOM      8  CD2 PHE A   1      -5.216   3.751 -23.243  0.00  0.00    +0.004 A 
ATOM      9  CE2 PHE A   1      -5.546   3.208 -22.110  0.00  0.00    +0.000 A 
ATOM     10  CZ  PHE A   1      -4.640   2.633 -21.375  0.00  0.00    +0.000 A 
ATOM     11  CE1 PHE A   1      -3.404   2.600 -21.776  0.00  0.00    +0.000 A 
ATOM     12  CD1 PHE A   1      -3.073   3.143 -22.910  0.00  0.00    +0.004 A 
ENDBRANCH   6   7
ENDBRANCH   1   6
BRANCH   1  13
ATOM     13  C   PHE A   1      -2.624   3.399 -26.588  0.00  0.00    +0.210 C 
BRANCH  13  14
ATOM     14  O   PHE A   1      -1.457   3.384 -26.015  0.00  0.00    -0.389 OA
ATOM     15  H   PHE A   1      -0.841   3.936 -26.522  0.00  0.00    +0.210 HD
ENDBRANCH  13  14
ENDBRANCH   1  13
TORSDOF 5
ENDMDL
MODEL 2
REMARK VINA RESULT:    -5.994      1.918      2.482
REMARK INTER + INTRA:          -7.344
REMARK INTER:                  -7.321
REMARK INTRA:                  -0.022
REMARK UNBOUND:                 0.052
REMARK  Name = ZINC000006731693
REMARK  5 active torsions:
REMARK  status: ('A' for Active; 'I' for Inactive)
REMARK    1  A    between atoms: N_1  and  CA_2
REMARK    2  A    between atoms: CA_2  and  C_3
REMARK    3  A    between atoms: CA_2  and  CB_5
REMARK    4  A    between atoms: C_3  and  O_4
REMARK    5  A    between atoms: CB_5  and  CG_6
REMARK                            x       y       z     vdW  Elec       q    Type
REMARK                         _______ _______ _______ _____ _____    ______ ____
ROOT
ATOM      1  CA  PHE A   1      -1.618   2.892 -23.845  0.00  0.00    +0.091 C 
ENDROOT
BRANCH   1   2
ATOM      2  N   PHE A   1      -2.183   2.265 -24.833  0.00  0.00    +0.223 N 
ATOM      3  H1  PHE A   1      -1.791   2.595 -25.715  0.00  0.00    +0.200 HD
ATOM      4  H2  PHE A   1      -2.017   1.263 -24.741  0.00  0.00    +0.200 HD
ATOM      5  H3  PHE A   1      -3.188   2.444 -24.820  0.00  0.00    +0.200 HD
ENDBRANCH   1   2
BRANCH   1   6
ATOM      6  CB  PHE A   1      -2.298   3.753 -23.148  0.00  0.00    +0.091 C 
BRANCH   6   7
ATOM      7  CG  PHE A   1      -3.401   3.391 -22.564  0.00  0.00    -0.042 A 
ATOM      8  CD2 PHE A   1      -3.358   2.658 -21.491  0.00  0.00    +0.004 A 
ATOM      9  CE2 PHE A   1      -4.461   2.295 -20.907  0.00  0.00    +0.000 A 
ATOM     10  CZ  PHE A   1      -5.608   2.665 -21.396  0.00  0.00    +0.000 A 
ATOM     11  CE1 PHE A   1      -5.650   3.398 -22.469  0.00  0.00    +0.000 A 
ATOM     12  CD1 PHE A   1      -4.548   3.760 -23.053  0.00  0.00    +0.004 A 
ENDBRANCH   6   7
ENDBRANCH   1   6
BRANCH   1  13
ATOM     13  C   PHE A   1      -0.373   2.659 -23.554  0.00  0.00    +0.210 C 
BRANCH  13  14
ATOM     14  O   PHE A   1       0.437   2.216 -24.469  0.00  0.00    -0.389 OA
ATOM     15  H   PHE A   1       0.966   1.489 -24.109  0.00  0.00    +0.210 HD
ENDBRANCH  13  14
ENDBRANCH   1  13
TORSDOF 5
ENDMDL
MODEL 3
REMARK VINA RESULT:    -5.909      3.126      3.818
REMARK INTER + INTRA:          -7.238
REMARK INTER:                  -7.195
REMARK INTRA:                  -0.043
REMARK UNBOUND:                 0.052
REMARK  Name = ZINC000006731693
REMARK  5 active torsions:
REMARK  status: ('A' for Active; 'I' for Inactive)
REMARK    1  A    between atoms: N_1  and  CA_2
REMARK    2  A    between atoms: CA_2  and  C_3
REMARK    3  A    between atoms: CA_2  and  CB_5
REMARK    4  A    between atoms: C_3  and  O_4
REMARK    5  A    between atoms: CB_5  and  CG_6
REMARK                            x       y       z     vdW  Elec       q    Type
REMARK                         _______ _______ _______ _____ _____    ______ ____
ROOT
ATOM      1  CA  PHE A   1       0.465   3.389 -25.085  0.00  0.00    +0.091 C 
ENDROOT
BRANCH   1   2
ATOM      2  N   PHE A   1      -0.588   3.350 -25.846  0.00  0.00    +0.223 N 
ATOM      3  H1  PHE A   1      -1.398   3.070 -25.294  0.00  0.00    +0.200 HD
ATOM      4  H2  PHE A   1      -0.752   4.273 -26.248  0.00  0.00    +0.200 HD
ATOM      5  H3  PHE A   1      -0.439   2.675 -26.597  0.00  0.00    +0.200 HD
ENDBRANCH   1   2
BRANCH   1   6
ATOM      6  CB  PHE A   1       0.423   4.023 -23.951  0.00  0.00    +0.091 C 
BRANCH   6   7
ATOM      7  CG  PHE A   1      -0.406   3.643 -23.023  0.00  0.00    -0.042 A 
ATOM      8  CD2 PHE A   1      -0.224   2.508 -22.416  0.00  0.00    +0.004 A 
ATOM      9  CE2 PHE A   1      -1.052   2.128 -21.489  0.00  0.00    +0.000 A 
ATOM     10  CZ  PHE A   1      -2.062   2.883 -21.169  0.00  0.00    +0.000 A 
ATOM     11  CE1 PHE A   1      -2.242   4.017 -21.777  0.00  0.00    +0.000 A 
ATOM     12  CD1 PHE A   1      -1.415   4.398 -22.704  0.00  0.00    +0.004 A 
ENDBRANCH   6   7
ENDBRANCH   1   6
BRANCH   1  13
ATOM     13  C   PHE A   1       1.559   2.794 -25.456  0.00  0.00    +0.210 C 
BRANCH  13  14
ATOM     14  O   PHE A   1       1.570   2.068 -26.534  0.00  0.00    -0.389 OA
ATOM     15  H   PHE A   1       1.836   1.163 -26.311  0.00  0.00    +0.210 HD
ENDBRANCH  13  14
ENDBRANCH   1  13
TORSDOF 5
ENDMDL
MODEL 4
REMARK VINA RESULT:    -5.907      2.281      2.843
REMARK INTER + INTRA:          -7.237
REMARK INTER:                  -7.289
REMARK INTRA:                   0.051
REMARK UNBOUND:                 0.052
REMARK  Name = ZINC000006731693
REMARK  5 active torsions:
REMARK  status: ('A' for Active; 'I' for Inactive)
REMARK    1  A    between atoms: N_1  and  CA_2
REMARK    2  A    between atoms: CA_2  and  C_3
REMARK    3  A    between atoms: CA_2  and  CB_5
REMARK    4  A    between atoms: C_3  and  O_4
REMARK    5  A    between atoms: CB_5  and  CG_6
REMARK                            x       y       z     vdW  Elec       q    Type
REMARK                         _______ _______ _______ _____ _____    ______ ____
ROOT
ATOM      1  CA  PHE A   1      -0.679   3.450 -24.496  0.00  0.00    +0.091 C 
ENDROOT
BRANCH   1   2
ATOM      2  N   PHE A   1      -0.610   3.329 -25.789  0.00  0.00    +0.223 N 
ATOM      3  H1  PHE A   1      -1.190   2.546 -26.089  0.00  0.00    +0.200 HD
ATOM      4  H2  PHE A   1      -0.942   4.188 -26.229  0.00  0.00    +0.200 HD
ATOM      5  H3  PHE A   1       0.358   3.160 -26.063  0.00  0.00    +0.200 HD
ENDBRANCH   1   2
BRANCH   1   6
ATOM      6  CB  PHE A   1      -1.435   4.367 -23.969  0.00  0.00    +0.091 C 
BRANCH   6   7
ATOM      7  CG  PHE A   1      -2.720   4.184 -23.888  0.00  0.00    -0.042 A 
ATOM      8  CD2 PHE A   1      -3.494   4.578 -24.856  0.00  0.00    +0.004 A 
ATOM      9  CE2 PHE A   1      -4.778   4.395 -24.776  0.00  0.00    +0.000 A 
ATOM     10  CZ  PHE A   1      -5.289   3.818 -23.728  0.00  0.00    +0.000 A 
ATOM     11  CE1 PHE A   1      -4.514   3.423 -22.762  0.00  0.00    +0.000 A 
ATOM     12  CD1 PHE A   1      -3.230   3.606 -22.842  0.00  0.00    +0.004 A 
ENDBRANCH   6   7
ENDBRANCH   1   6
BRANCH   1  13
ATOM     13  C   PHE A   1       0.006   2.654 -23.731  0.00  0.00    +0.210 C 
BRANCH  13  14
ATOM     14  O   PHE A   1       0.887   1.852 -24.252  0.00  0.00    -0.389 OA
ATOM     15  H   PHE A   1       0.686   1.716 -25.190  0.00  0.00    +0.210 HD
ENDBRANCH  13  14
ENDBRANCH   1  13
TORSDOF 5
ENDMDL
MODEL 5
REMARK VINA RESULT:    -5.655      2.658      2.957
REMARK INTER + INTRA:          -6.925
REMARK INTER:                  -6.870
REMARK INTRA:                  -0.055
REMARK UNBOUND:                 0.052
REMARK  Name = ZINC000006731693
REMARK  5 active torsions:
REMARK  status: ('A' for Active; 'I' for Inactive)
REMARK    1  A    between atoms: N_1  and  CA_2
REMARK    2  A    between atoms: CA_2  and  C_3
REMARK    3  A    between atoms: CA_2  and  CB_5
REMARK    4  A    between atoms: C_3  and  O_4
REMARK    5  A    between atoms: CB_5  and  CG_6
REMARK                            x       y       z     vdW  Elec       q    Type
REMARK                         _______ _______ _______ _____ _____    ______ ____
ROOT
ATOM      1  CA  PHE A   1      -0.409   3.810 -23.831  0.00  0.00    +0.091 C 
ENDROOT
BRANCH   1   2
ATOM      2  N   PHE A   1      -0.356   2.640 -24.395  0.00  0.00    +0.223 N 
ATOM      3  H1  PHE A   1       0.613   2.321 -24.427  0.00  0.00    +0.200 HD
ATOM      4  H2  PHE A   1      -0.915   1.977 -23.857  0.00  0.00    +0.200 HD
ATOM      5  H3  PHE A   1      -0.724   2.702 -25.344  0.00  0.00    +0.200 HD
ENDBRANCH   1   2
BRANCH   1   6
ATOM      6  CB  PHE A   1      -1.554   4.405 -23.678  0.00  0.00    +0.091 C 
BRANCH   6   7
ATOM      7  CG  PHE A   1      -2.407   3.959 -22.804  0.00  0.00    -0.042 A 
ATOM      8  CD2 PHE A   1      -3.564   3.512 -23.194  0.00  0.00    +0.004 A 
ATOM      9  CE2 PHE A   1      -4.417   3.066 -22.321  0.00  0.00    +0.000 A 
ATOM     10  CZ  PHE A   1      -4.113   3.067 -21.056  0.00  0.00    +0.000 A 
ATOM     11  CE1 PHE A   1      -2.956   3.514 -20.666  0.00  0.00    +0.000 A 
ATOM     12  CD1 PHE A   1      -2.103   3.960 -21.540  0.00  0.00    +0.004 A 
ENDBRANCH   6   7
ENDBRANCH   1   6
BRANCH   1  13
ATOM     13  C   PHE A   1       0.682   4.385 -23.422  0.00  0.00    +0.210 C 
BRANCH  13  14
ATOM     14  O   PHE A   1       0.841   5.665 -23.581  0.00  0.00    -0.389 OA
ATOM     15  H   PHE A   1       1.191   5.840 -24.468  0.00  0.00    +0.210 HD
ENDBRANCH  13  14
ENDBRANCH   1  13
TORSDOF 5
ENDMDL
MODEL 6
REMARK VINA RESULT:    -5.520      3.196      4.466
REMARK INTER + INTRA:          -6.758
REMARK INTER:                  -6.747
REMARK INTRA:                  -0.011
REMARK UNBOUND:                 0.052
REMARK  Name = ZINC000006731693
REMARK  5 active torsions:
REMARK  status: ('A' for Active; 'I' for Inactive)
REMARK    1  A    between atoms: N_1  and  CA_2
REMARK    2  A    between atoms: CA_2  and  C_3
REMARK    3  A    between atoms: CA_2  and  CB_5
REMARK    4  A    between atoms: C_3  and  O_4
REMARK    5  A    between atoms: CB_5  and  CG_6
REMARK                            x       y       z     vdW  Elec       q    Type
REMARK                         _______ _______ _______ _____ _____    ______ ____
ROOT
ATOM      1  CA  PHE A   1      -4.024   3.077 -21.428  0.00  0.00    +0.091 C 
ENDROOT
BRANCH   1   2
ATOM      2  N   PHE A   1      -4.446   2.091 -20.693  0.00  0.00    +0.223 N 
ATOM      3  H1  PHE A   1      -3.682   1.750 -20.109  0.00  0.00    +0.200 HD
ATOM      4  H2  PHE A   1      -5.211   2.413 -20.099  0.00  0.00    +0.200 HD
ATOM      5  H3  PHE A   1      -4.778   1.336 -21.293  0.00  0.00    +0.200 HD
ENDBRANCH   1   2
BRANCH   1   6
ATOM      6  CB  PHE A   1      -2.963   3.741 -21.078  0.00  0.00    +0.091 C 
BRANCH   6   7
ATOM      7  CG  PHE A   1      -1.850   3.580 -21.730  0.00  0.00    -0.042 A 
ATOM      8  CD2 PHE A   1      -1.386   4.543 -22.470  0.00  0.00    +0.004 A 
ATOM      9  CE2 PHE A   1      -0.274   4.383 -23.123  0.00  0.00    +0.000 A 
ATOM     10  CZ  PHE A   1       0.376   3.259 -23.035  0.00  0.00    +0.000 A 
ATOM     11  CE1 PHE A   1      -0.088   2.297 -22.294  0.00  0.00    +0.000 A 
ATOM     12  CD1 PHE A   1      -1.201   2.457 -21.642  0.00  0.00    +0.004 A 
ENDBRANCH   6   7
ENDBRANCH   1   6
BRANCH   1  13
ATOM     13  C   PHE A   1      -4.662   3.398 -22.514  0.00  0.00    +0.210 C 
BRANCH  13  14
ATOM     14  O   PHE A   1      -5.911   3.752 -22.453  0.00  0.00    -0.389 OA
ATOM     15  H   PHE A   1      -6.303   3.711 -23.339  0.00  0.00    +0.210 HD
ENDBRANCH  13  14
ENDBRANCH   1  13
TORSDOF 5
ENDMDL
MODEL 7
REMARK VINA RESULT:    -5.498      2.451      3.445
REMARK INTER + INTRA:          -6.732
REMARK INTER:                  -6.742
REMARK INTRA:                   0.010
REMARK UNBOUND:                 0.052
REMARK  Name = ZINC000006731693
REMARK  5 active torsions:
REMARK  status: ('A' for Active; 'I' for Inactive)
REMARK    1  A    between atoms: N_1  and  CA_2
REMARK    2  A    between atoms: CA_2  and  C_3
REMARK    3  A    between atoms: CA_2  and  CB_5
REMARK    4  A    between atoms: C_3  and  O_4
REMARK    5  A    between atoms: CB_5  and  CG_6
REMARK                            x       y       z     vdW  Elec       q    Type
REMARK                         _______ _______ _______ _____ _____    ______ ____
ROOT
ATOM      1  CA  PHE A   1      -1.009   2.884 -22.327  0.00  0.00    +0.091 C 
ENDROOT
BRANCH   1   2
ATOM      2  N   PHE A   1      -1.251   1.848 -21.580  0.00  0.00    +0.223 N 
ATOM      3  H1  PHE A   1      -2.138   1.428 -21.858  0.00  0.00    +0.200 HD
ATOM      4  H2  PHE A   1      -0.501   1.166 -21.691  0.00  0.00    +0.200 HD
ATOM      5  H3  PHE A   1      -1.305   2.138 -20.603  0.00  0.00    +0.200 HD
ENDBRANCH   1   2
BRANCH   1   6
ATOM      6  CB  PHE A   1      -1.804   3.912 -22.290  0.00  0.00    +0.091 C 
BRANCH   6   7
ATOM      7  CG  PHE A   1      -2.835   3.966 -23.080  0.00  0.00    -0.042 A 
ATOM      8  CD2 PHE A   1      -3.999   3.572 -22.656  0.00  0.00    +0.004 A 
ATOM      9  CE2 PHE A   1      -5.031   3.626 -23.445  0.00  0.00    +0.000 A 
ATOM     10  CZ  PHE A   1      -4.898   4.073 -24.659  0.00  0.00    +0.000 A 
ATOM     11  CE1 PHE A   1      -3.733   4.466 -25.082  0.00  0.00    +0.000 A 
ATOM     12  CD1 PHE A   1      -2.702   4.413 -24.293  0.00  0.00    +0.004 A 
ENDBRANCH   6   7
ENDBRANCH   1   6
BRANCH   1  13
ATOM     13  C   PHE A   1       0.027   2.893 -23.111  0.00  0.00    +0.210 C 
BRANCH  13  14
ATOM     14  O   PHE A   1       0.150   1.987 -24.035  0.00  0.00    -0.389 OA
ATOM     15  H   PHE A   1      -0.509   2.141 -24.729  0.00  0.00    +0.210 HD
ENDBRANCH  13  14
ENDBRANCH   1  13
TORSDOF 5
ENDMDL
MODEL 8
REMARK VINA RESULT:    -5.443      2.805      4.412
REMARK INTER + INTRA:          -6.664
REMARK INTER:                  -6.614
REMARK INTRA:                  -0.051
REMARK UNBOUND:                 0.052
REMARK  Name = ZINC000006731693
REMARK  5 active torsions:
REMARK  status: ('A' for Active; 'I' for Inactive)
REMARK    1  A    between atoms: N_1  and  CA_2
REMARK    2  A    between atoms: CA_2  and  C_3
REMARK    3  A    between atoms: CA_2  and  CB_5
REMARK    4  A    between atoms: C_3  and  O_4
REMARK    5  A    between atoms: CB_5  and  CG_6
REMARK                            x       y       z     vdW  Elec       q    Type
REMARK                         _______ _______ _______ _____ _____    ______ ____
ROOT
ATOM      1  CA  PHE A   1      -2.296   3.109 -21.723  0.00  0.00    +0.091 C 
ENDROOT
BRANCH   1   2
ATOM      2  N   PHE A   1      -1.562   2.038 -21.793  0.00  0.00    +0.223 N 
ATOM      3  H1  PHE A   1      -0.706   2.246 -22.307  0.00  0.00    +0.200 HD
ATOM      4  H2  PHE A   1      -1.328   1.724 -20.852  0.00  0.00    +0.200 HD
ATOM      5  H3  PHE A   1      -2.078   1.304 -22.278  0.00  0.00    +0.200 HD
ENDBRANCH   1   2
BRANCH   1   6
ATOM      6  CB  PHE A   1      -2.177   4.039 -22.623  0.00  0.00    +0.091 C 
BRANCH   6   7
ATOM      7  CG  PHE A   1      -2.639   3.846 -23.823  0.00  0.00    -0.042 A 
ATOM      8  CD2 PHE A   1      -1.818   3.653 -24.812  0.00  0.00    +0.004 A 
ATOM      9  CE2 PHE A   1      -2.280   3.460 -26.011  0.00  0.00    +0.000 A 
ATOM     10  CZ  PHE A   1      -3.564   3.461 -26.222  0.00  0.00    +0.000 A 
ATOM     11  CE1 PHE A   1      -4.384   3.654 -25.232  0.00  0.00    +0.000 A 
ATOM     12  CD1 PHE A   1      -3.922   3.847 -24.033  0.00  0.00    +0.004 A 
ENDBRANCH   6   7
ENDBRANCH   1   6
BRANCH   1  13
ATOM     13  C   PHE A   1      -3.150   3.250 -20.753  0.00  0.00    +0.210 C 
BRANCH  13  14
ATOM     14  O   PHE A   1      -3.293   4.406 -20.176  0.00  0.00    -0.389 OA
ATOM     15  H   PHE A   1      -2.757   5.067 -20.640  0.00  0.00    +0.210 HD
ENDBRANCH  13  14
ENDBRANCH   1  13
TORSDOF 5
ENDMDL
MODEL 9
REMARK VINA RESULT:    -5.428      2.630      3.700
REMARK INTER + INTRA:          -6.645
REMARK INTER:                  -6.697
REMARK INTRA:                   0.052
REMARK UNBOUND:                 0.052
REMARK  Name = ZINC000006731693
REMARK  5 active torsions:
REMARK  status: ('A' for Active; 'I' for Inactive)
REMARK    1  A    between atoms: N_1  and  CA_2
REMARK    2  A    between atoms: CA_2  and  C_3
REMARK    3  A    between atoms: CA_2  and  CB_5
REMARK    4  A    between atoms: C_3  and  O_4
REMARK    5  A    between atoms: CB_5  and  CG_6
REMARK                            x       y       z     vdW  Elec       q    Type
REMARK                         _______ _______ _______ _____ _____    ______ ____
ROOT
ATOM      1  CA  PHE A   1      -4.487   3.689 -23.633  0.00  0.00    +0.091 C 
ENDROOT
BRANCH   1   2
ATOM      2  N   PHE A   1      -5.421   3.748 -22.731  0.00  0.00    +0.223 N 
ATOM      3  H1  PHE A   1      -5.195   3.115 -21.964  0.00  0.00    +0.200 HD
ATOM      4  H2  PHE A   1      -5.491   4.702 -22.376  0.00  0.00    +0.200 HD
ATOM      5  H3  PHE A   1      -6.312   3.474 -23.145  0.00  0.00    +0.200 HD
ENDBRANCH   1   2
BRANCH   1   6
ATOM      6  CB  PHE A   1      -3.404   3.007 -23.403  0.00  0.00    +0.091 C 
BRANCH   6   7
ATOM      7  CG  PHE A   1      -2.240   3.573 -23.529  0.00  0.00    -0.042 A 
ATOM      8  CD2 PHE A   1      -1.821   4.404 -22.621  0.00  0.00    +0.004 A 
ATOM      9  CE2 PHE A   1      -0.658   4.970 -22.746  0.00  0.00    +0.000 A 
ATOM     10  CZ  PHE A   1       0.087   4.705 -23.780  0.00  0.00    +0.000 A 
ATOM     11  CE1 PHE A   1      -0.334   3.874 -24.687  0.00  0.00    +0.000 A 
ATOM     12  CD1 PHE A   1      -1.497   3.308 -24.562  0.00  0.00    +0.004 A 
ENDBRANCH   6   7
ENDBRANCH   1   6
BRANCH   1  13
ATOM     13  C   PHE A   1      -4.635   4.310 -24.765  0.00  0.00    +0.210 C 
BRANCH  13  14
ATOM     14  O   PHE A   1      -5.214   5.473 -24.797  0.00  0.00    -0.389 OA
ATOM     15  H   PHE A   1      -6.007   5.425 -25.352  0.00  0.00    +0.210 HD
ENDBRANCH  13  14
ENDBRANCH   1  13
TORSDOF 5
ENDMDL
