MODEL 1
REMARK VINA RESULT:    -8.963      0.000      0.000
REMARK INTER + INTRA:         -11.274
REMARK INTER:                 -11.162
REMARK INTRA:                  -0.113
REMARK UNBOUND:                 0.047
REMARK  Name = ZINC000004104806
REMARK  8 active torsions:
REMARK  status: ('A' for Active; 'I' for Inactive)
REMARK    1  A    between atoms: C_1  and  O_2
REMARK    2  A    between atoms: O_2  and  C_3
REMARK    3  A    between atoms: C_4  and  O_5
REMARK    4  A    between atoms: C_9  and  O_10
REMARK    5  A    between atoms: C_13  and  C_14
REMARK    6  A    between atoms: C_14  and  O_15
REMARK    7  A    between atoms: C_16  and  O_17
REMARK    8  A    between atoms: C_18  and  O_19
REMARK                            x       y       z     vdW  Elec       q    Type
REMARK                         _______ _______ _______ _____ _____    ______ ____
ROOT
ATOM      1  C   UNL     1      -2.740   3.751 -25.175  0.00  0.00    +0.203 A 
ATOM      2  C   UNL     1      -3.677   3.913 -24.288  0.00  0.00    +0.163 A 
ATOM      3  C   UNL     1      -3.467   3.574 -23.051  0.00  0.00    +0.064 A 
ATOM      4  C   UNL     1      -2.319   3.073 -22.701  0.00  0.00    +0.072 A 
ATOM      5  C   UNL     1      -1.382   2.911 -23.587  0.00  0.00    +0.044 A 
ATOM      6  C   UNL     1      -0.235   2.411 -23.236  0.00  0.00    +0.196 C 
ATOM      7  O   UNL     1       0.702   2.249 -24.122  0.00  0.00    -0.360 OA
ATOM      8  C   UNL     1       1.849   1.748 -23.771  0.00  0.00    +0.175 C 
ATOM      9  C   UNL     1       2.060   1.409 -22.534  0.00  0.00    +0.178 C 
ATOM     10  C   UNL     1       1.123   1.571 -21.648  0.00  0.00    +0.189 C 
ATOM     11  C   UNL     1      -0.025   2.072 -21.999  0.00  0.00    +0.241 C 
ATOM     12  O   UNL     1      -0.962   2.234 -21.112  0.00  0.00    -0.452 OA
ATOM     13  C   UNL     1      -2.109   2.734 -21.463  0.00  0.00    +0.340 C 
ATOM     14  O   UNL     1      -3.046   2.896 -20.577  0.00  0.00    -0.245 OA
ATOM     15  C   UNL     1      -1.593   3.250 -24.824  0.00  0.00    +0.169 A 
ENDROOT
BRANCH   1  17
ATOM     16  C   UNL     1      -3.555   3.267 -27.218  0.00  0.00    +0.277 C 
ATOM     17  O   UNL     1      -2.950   4.090 -26.412  0.00  0.00    -0.489 OA
ENDBRANCH   1  17
BRANCH  10  18
ATOM     18  O   UNL     1       1.332   1.232 -20.410  0.00  0.00    -0.385 OA
ATOM     19  H   UNL     1       1.333   0.265 -20.336  0.00  0.00    +0.210 HD
ENDBRANCH  10  18
BRANCH   9  20
ATOM     20  O   UNL     1       3.207   0.909 -22.184  0.00  0.00    -0.386 OA
ATOM     21  H   UNL     1       3.777   1.615 -21.842  0.00  0.00    +0.210 HD
ENDBRANCH   9  20
BRANCH  15  22
ATOM     22  O   UNL     1      -0.655   3.089 -25.711  0.00  0.00    -0.503 OA
ATOM     23  H   UNL     1      -0.729   2.410 -26.353  0.00  0.00    +0.292 HD
ENDBRANCH  15  22
BRANCH   2  24
ATOM     24  O   UNL     1      -4.824   4.414 -24.639  0.00  0.00    -0.503 OA
ATOM     25  H   UNL     1      -5.270   4.081 -25.393  0.00  0.00    +0.292 HD
ENDBRANCH   2  24
BRANCH   8  26
ATOM     26  C   UNL     1       2.786   1.586 -24.658  0.00  0.00    +0.190 C 
BRANCH  26  27
ATOM     27  O   UNL     1       3.064   0.396 -25.101  0.00  0.00    -0.392 OA
ATOM     28  H   UNL     1       2.691  -0.268 -24.499  0.00  0.00    +0.210 HD
ENDBRANCH  26  27
ENDBRANCH   8  26
TORSDOF 7
ENDMDL
MODEL 2
REMARK VINA RESULT:    -8.740      1.282      5.433
REMARK INTER + INTRA:         -10.992
REMARK INTER:                 -10.912
REMARK INTRA:                  -0.081
REMARK UNBOUND:                 0.047
REMARK  Name = ZINC000004104806
REMARK  8 active torsions:
REMARK  status: ('A' for Active; 'I' for Inactive)
REMARK    1  A    between atoms: C_1  and  O_2
REMARK    2  A    between atoms: O_2  and  C_3
REMARK    3  A    between atoms: C_4  and  O_5
REMARK    4  A    between atoms: C_9  and  O_10
REMARK    5  A    between atoms: C_13  and  C_14
REMARK    6  A    between atoms: C_14  and  O_15
REMARK    7  A    between atoms: C_16  and  O_17
REMARK    8  A    between atoms: C_18  and  O_19
REMARK                            x       y       z     vdW  Elec       q    Type
REMARK                         _______ _______ _______ _____ _____    ______ ____
ROOT
ATOM      1  C   UNL     1       0.547   1.809 -22.693  0.00  0.00    +0.203 A 
ATOM      2  C   UNL     1       0.332   1.698 -21.416  0.00  0.00    +0.163 A 
ATOM      3  C   UNL     1      -0.819   2.037 -20.919  0.00  0.00    +0.064 A 
ATOM      4  C   UNL     1      -1.757   2.488 -21.699  0.00  0.00    +0.072 A 
ATOM      5  C   UNL     1      -1.542   2.600 -22.976  0.00  0.00    +0.044 A 
ATOM      6  C   UNL     1      -2.479   3.051 -23.756  0.00  0.00    +0.196 C 
ATOM      7  O   UNL     1      -2.265   3.163 -25.033  0.00  0.00    -0.360 OA
ATOM      8  C   UNL     1      -3.202   3.614 -25.812  0.00  0.00    +0.175 C 
ATOM      9  C   UNL     1      -4.354   3.953 -25.315  0.00  0.00    +0.178 C 
ATOM     10  C   UNL     1      -4.568   3.841 -24.038  0.00  0.00    +0.189 C 
ATOM     11  C   UNL     1      -3.631   3.390 -23.258  0.00  0.00    +0.241 C 
ATOM     12  O   UNL     1      -3.846   3.279 -21.980  0.00  0.00    -0.452 OA
ATOM     13  C   UNL     1      -2.909   2.828 -21.201  0.00  0.00    +0.340 C 
ATOM     14  O   UNL     1      -3.124   2.716 -19.924  0.00  0.00    -0.245 OA
ATOM     15  C   UNL     1      -0.390   2.261 -23.473  0.00  0.00    +0.169 A 
ENDROOT
BRANCH   1  17
ATOM     16  C   UNL     1       2.654   2.348 -23.276  0.00  0.00    +0.277 C 
ATOM     17  O   UNL     1       1.699   1.470 -23.191  0.00  0.00    -0.489 OA
ENDBRANCH   1  17
BRANCH  10  18
ATOM     18  O   UNL     1      -5.721   4.181 -23.540  0.00  0.00    -0.385 OA
ATOM     19  H   UNL     1      -6.310   4.466 -24.256  0.00  0.00    +0.210 HD
ENDBRANCH  10  18
BRANCH   9  20
ATOM     20  O   UNL     1      -5.291   4.404 -26.095  0.00  0.00    -0.386 OA
ATOM     21  H   UNL     1      -4.937   5.120 -26.645  0.00  0.00    +0.210 HD
ENDBRANCH   9  20
BRANCH  15  22
ATOM     22  O   UNL     1      -0.175   2.372 -24.751  0.00  0.00    -0.503 OA
ATOM     23  H   UNL     1      -0.822   2.079 -25.362  0.00  0.00    +0.292 HD
ENDBRANCH  15  22
BRANCH   2  24
ATOM     24  O   UNL     1       1.270   1.247 -20.636  0.00  0.00    -0.503 OA
ATOM     25  H   UNL     1       2.165   1.468 -20.803  0.00  0.00    +0.292 HD
ENDBRANCH   2  24
BRANCH   8  26
ATOM     26  C   UNL     1      -2.987   3.725 -27.090  0.00  0.00    +0.190 C 
BRANCH  26  27
ATOM     27  O   UNL     1      -3.784   3.142 -27.936  0.00  0.00    -0.392 OA
ATOM     28  H   UNL     1      -3.838   2.196 -27.730  0.00  0.00    +0.210 HD
ENDBRANCH  26  27
ENDBRANCH   8  26
TORSDOF 7
ENDMDL
MODEL 3
REMARK VINA RESULT:    -8.431      1.329      3.731
REMARK INTER + INTRA:         -10.602
REMARK INTER:                 -10.624
REMARK INTRA:                   0.021
REMARK UNBOUND:                 0.047
REMARK  Name = ZINC000004104806
REMARK  8 active torsions:
REMARK  status: ('A' for Active; 'I' for Inactive)
REMARK    1  A    between atoms: C_1  and  O_2
REMARK    2  A    between atoms: O_2  and  C_3
REMARK    3  A    between atoms: C_4  and  O_5
REMARK    4  A    between atoms: C_9  and  O_10
REMARK    5  A    between atoms: C_13  and  C_14
REMARK    6  A    between atoms: C_14  and  O_15
REMARK    7  A    between atoms: C_16  and  O_17
REMARK    8  A    between atoms: C_18  and  O_19
REMARK                            x       y       z     vdW  Elec       q    Type
REMARK                         _______ _______ _______ _____ _____    ______ ____
ROOT
ATOM      1  C   UNL     1      -3.283   2.958 -21.736  0.00  0.00    +0.203 A 
ATOM      2  C   UNL     1      -4.124   3.312 -22.661  0.00  0.00    +0.163 A 
ATOM      3  C   UNL     1      -3.715   3.470 -23.885  0.00  0.00    +0.064 A 
ATOM      4  C   UNL     1      -2.466   3.273 -24.183  0.00  0.00    +0.072 A 
ATOM      5  C   UNL     1      -1.624   2.918 -23.258  0.00  0.00    +0.044 A 
ATOM      6  C   UNL     1      -0.374   2.722 -23.556  0.00  0.00    +0.196 C 
ATOM      7  O   UNL     1       0.467   2.367 -22.631  0.00  0.00    -0.360 OA
ATOM      8  C   UNL     1       1.717   2.171 -22.930  0.00  0.00    +0.175 C 
ATOM      9  C   UNL     1       2.125   2.328 -24.153  0.00  0.00    +0.178 C 
ATOM     10  C   UNL     1       1.284   2.682 -25.078  0.00  0.00    +0.189 C 
ATOM     11  C   UNL     1       0.034   2.879 -24.780  0.00  0.00    +0.241 C 
ATOM     12  O   UNL     1      -0.807   3.234 -25.706  0.00  0.00    -0.452 OA
ATOM     13  C   UNL     1      -2.057   3.431 -25.408  0.00  0.00    +0.340 C 
ATOM     14  O   UNL     1      -2.898   3.785 -26.333  0.00  0.00    -0.245 OA
ATOM     15  C   UNL     1      -2.033   2.761 -22.034  0.00  0.00    +0.169 A 
ENDROOT
BRANCH   1  17
ATOM     16  C   UNL     1      -3.321   3.639 -19.590  0.00  0.00    +0.277 C 
ATOM     17  O   UNL     1      -3.691   2.800 -20.511  0.00  0.00    -0.489 OA
ENDBRANCH   1  17
BRANCH  10  18
ATOM     18  O   UNL     1       1.693   2.840 -26.303  0.00  0.00    -0.385 OA
ATOM     19  H   UNL     1       1.887   1.973 -26.692  0.00  0.00    +0.210 HD
ENDBRANCH  10  18
BRANCH   9  20
ATOM     20  O   UNL     1       3.375   2.131 -24.452  0.00  0.00    -0.386 OA
ATOM     21  H   UNL     1       3.855   2.973 -24.407  0.00  0.00    +0.210 HD
ENDBRANCH   9  20
BRANCH  15  22
ATOM     22  O   UNL     1      -1.191   2.406 -21.108  0.00  0.00    -0.503 OA
ATOM     23  H   UNL     1      -0.470   2.964 -20.892  0.00  0.00    +0.292 HD
ENDBRANCH  15  22
BRANCH   2  24
ATOM     24  O   UNL     1      -5.374   3.509 -22.363  0.00  0.00    -0.503 OA
ATOM     25  H   UNL     1      -5.656   4.349 -22.057  0.00  0.00    +0.292 HD
ENDBRANCH   2  24
BRANCH   8  26
ATOM     26  C   UNL     1       2.558   1.816 -22.004  0.00  0.00    +0.190 C 
BRANCH  26  27
ATOM     27  O   UNL     1       3.480   2.645 -21.612  0.00  0.00    -0.392 OA
ATOM     28  H   UNL     1       4.153   2.731 -22.305  0.00  0.00    +0.210 HD
ENDBRANCH  26  27
ENDBRANCH   8  26
TORSDOF 7
ENDMDL
MODEL 4
REMARK VINA RESULT:    -8.425      1.934      4.242
REMARK INTER + INTRA:         -10.595
REMARK INTER:                 -10.743
REMARK INTRA:                   0.148
REMARK UNBOUND:                 0.047
REMARK  Name = ZINC000004104806
REMARK  8 active torsions:
REMARK  status: ('A' for Active; 'I' for Inactive)
REMARK    1  A    between atoms: C_1  and  O_2
REMARK    2  A    between atoms: O_2  and  C_3
REMARK    3  A    between atoms: C_4  and  O_5
REMARK    4  A    between atoms: C_9  and  O_10
REMARK    5  A    between atoms: C_13  and  C_14
REMARK    6  A    between atoms: C_14  and  O_15
REMARK    7  A    between atoms: C_16  and  O_17
REMARK    8  A    between atoms: C_18  and  O_19
REMARK                            x       y       z     vdW  Elec       q    Type
REMARK                         _______ _______ _______ _____ _____    ______ ____
ROOT
ATOM      1  C   UNL     1      -1.167   2.468 -22.291  0.00  0.00    +0.203 A 
ATOM      2  C   UNL     1      -1.507   3.195 -23.313  0.00  0.00    +0.163 A 
ATOM      3  C   UNL     1      -0.607   3.569 -24.172  0.00  0.00    +0.064 A 
ATOM      4  C   UNL     1       0.634   3.215 -24.009  0.00  0.00    +0.072 A 
ATOM      5  C   UNL     1       0.974   2.488 -22.987  0.00  0.00    +0.044 A 
ATOM      6  C   UNL     1       2.214   2.135 -22.824  0.00  0.00    +0.196 C 
ATOM      7  O   UNL     1       2.554   1.408 -21.802  0.00  0.00    -0.360 OA
ATOM      8  C   UNL     1       3.794   1.054 -21.639  0.00  0.00    +0.175 C 
ATOM      9  C   UNL     1       4.695   1.428 -22.498  0.00  0.00    +0.178 C 
ATOM     10  C   UNL     1       4.355   2.155 -23.520  0.00  0.00    +0.189 C 
ATOM     11  C   UNL     1       3.115   2.508 -23.683  0.00  0.00    +0.241 C 
ATOM     12  O   UNL     1       2.775   3.236 -24.706  0.00  0.00    -0.452 OA
ATOM     13  C   UNL     1       1.535   3.589 -24.869  0.00  0.00    +0.340 C 
ATOM     14  O   UNL     1       1.195   4.317 -25.892  0.00  0.00    -0.245 OA
ATOM     15  C   UNL     1       0.073   2.114 -22.128  0.00  0.00    +0.169 A 
ENDROOT
BRANCH   1  17
ATOM     16  C   UNL     1      -2.608   2.967 -20.634  0.00  0.00    +0.277 C 
ATOM     17  O   UNL     1      -2.068   2.093 -21.431  0.00  0.00    -0.489 OA
ENDBRANCH   1  17
BRANCH  10  18
ATOM     18  O   UNL     1       5.256   2.529 -24.380  0.00  0.00    -0.385 OA
ATOM     19  H   UNL     1       6.049   1.980 -24.276  0.00  0.00    +0.210 HD
ENDBRANCH  10  18
BRANCH   9  20
ATOM     20  O   UNL     1       5.935   1.075 -22.335  0.00  0.00    -0.386 OA
ATOM     21  H   UNL     1       6.488   1.519 -22.997  0.00  0.00    +0.210 HD
ENDBRANCH   9  20
BRANCH  15  22
ATOM     22  O   UNL     1       0.413   1.387 -21.105  0.00  0.00    -0.503 OA
ATOM     23  H   UNL     1      -0.152   0.699 -20.811  0.00  0.00    +0.292 HD
ENDBRANCH  15  22
BRANCH   2  24
ATOM     24  O   UNL     1      -2.747   3.548 -23.476  0.00  0.00    -0.503 OA
ATOM     25  H   UNL     1      -3.389   3.316 -22.834  0.00  0.00    +0.292 HD
ENDBRANCH   2  24
BRANCH   8  26
ATOM     26  C   UNL     1       4.134   0.327 -20.616  0.00  0.00    +0.190 C 
BRANCH  26  27
ATOM     27  O   UNL     1       5.131   0.689 -19.863  0.00  0.00    -0.392 OA
ATOM     28  H   UNL     1       4.802   0.917 -18.980  0.00  0.00    +0.210 HD
ENDBRANCH  26  27
ENDBRANCH   8  26
TORSDOF 7
ENDMDL
MODEL 5
REMARK VINA RESULT:    -8.340      1.389      6.197
REMARK INTER + INTRA:         -10.488
REMARK INTER:                 -10.402
REMARK INTRA:                  -0.086
REMARK UNBOUND:                 0.047
REMARK  Name = ZINC000004104806
REMARK  8 active torsions:
REMARK  status: ('A' for Active; 'I' for Inactive)
REMARK    1  A    between atoms: C_1  and  O_2
REMARK    2  A    between atoms: O_2  and  C_3
REMARK    3  A    between atoms: C_4  and  O_5
REMARK    4  A    between atoms: C_9  and  O_10
REMARK    5  A    between atoms: C_13  and  C_14
REMARK    6  A    between atoms: C_14  and  O_15
REMARK    7  A    between atoms: C_16  and  O_17
REMARK    8  A    between atoms: C_18  and  O_19
REMARK                            x       y       z     vdW  Elec       q    Type
REMARK                         _______ _______ _______ _____ _____    ______ ____
ROOT
ATOM      1  C   UNL     1       2.192   1.107 -22.479  0.00  0.00    +0.203 A 
ATOM      2  C   UNL     1       2.898   1.515 -23.491  0.00  0.00    +0.163 A 
ATOM      3  C   UNL     1       2.369   2.309 -24.373  0.00  0.00    +0.064 A 
ATOM      4  C   UNL     1       1.134   2.695 -24.244  0.00  0.00    +0.072 A 
ATOM      5  C   UNL     1       0.428   2.287 -23.232  0.00  0.00    +0.044 A 
ATOM      6  C   UNL     1      -0.806   2.672 -23.102  0.00  0.00    +0.196 C 
ATOM      7  O   UNL     1      -1.512   2.264 -22.090  0.00  0.00    -0.360 OA
ATOM      8  C   UNL     1      -2.747   2.650 -21.961  0.00  0.00    +0.175 C 
ATOM      9  C   UNL     1      -3.276   3.444 -22.843  0.00  0.00    +0.178 C 
ATOM     10  C   UNL     1      -2.570   3.852 -23.856  0.00  0.00    +0.189 C 
ATOM     11  C   UNL     1      -1.335   3.466 -23.985  0.00  0.00    +0.241 C 
ATOM     12  O   UNL     1      -0.629   3.875 -24.998  0.00  0.00    -0.452 OA
ATOM     13  C   UNL     1       0.606   3.490 -25.127  0.00  0.00    +0.340 C 
ATOM     14  O   UNL     1       1.312   3.898 -26.139  0.00  0.00    -0.245 OA
ATOM     15  C   UNL     1       0.957   1.493 -22.349  0.00  0.00    +0.169 A 
ENDROOT
BRANCH   1  17
ATOM     16  C   UNL     1       3.500   0.793 -20.673  0.00  0.00    +0.277 C 
ATOM     17  O   UNL     1       2.720   0.312 -21.595  0.00  0.00    -0.489 OA
ENDBRANCH   1  17
BRANCH  10  18
ATOM     18  O   UNL     1      -3.098   4.647 -24.739  0.00  0.00    -0.385 OA
ATOM     19  H   UNL     1      -3.450   5.434 -24.295  0.00  0.00    +0.210 HD
ENDBRANCH  10  18
BRANCH   9  20
ATOM     20  O   UNL     1      -4.510   3.829 -22.714  0.00  0.00    -0.386 OA
ATOM     21  H   UNL     1      -5.092   3.219 -23.193  0.00  0.00    +0.210 HD
ENDBRANCH   9  20
BRANCH  15  22
ATOM     22  O   UNL     1       0.251   1.084 -21.336  0.00  0.00    -0.503 OA
ATOM     23  H   UNL     1      -0.583   0.680 -21.479  0.00  0.00    +0.292 HD
ENDBRANCH  15  22
BRANCH   2  24
ATOM     24  O   UNL     1       4.132   1.129 -23.620  0.00  0.00    -0.503 OA
ATOM     25  H   UNL     1       4.406   0.307 -23.264  0.00  0.00    +0.292 HD
ENDBRANCH   2  24
BRANCH   8  26
ATOM     26  C   UNL     1      -3.453   2.241 -20.949  0.00  0.00    +0.190 C 
BRANCH  26  27
ATOM     27  O   UNL     1      -3.662   3.034 -19.939  0.00  0.00    -0.392 OA
ATOM     28  H   UNL     1      -2.958   3.700 -19.900  0.00  0.00    +0.210 HD
ENDBRANCH  26  27
ENDBRANCH   8  26
TORSDOF 7
ENDMDL
MODEL 6
REMARK VINA RESULT:    -7.934      1.235      5.206
REMARK INTER + INTRA:          -9.974
REMARK INTER:                  -9.855
REMARK INTRA:                  -0.119
REMARK UNBOUND:                 0.047
REMARK  Name = ZINC000004104806
REMARK  8 active torsions:
REMARK  status: ('A' for Active; 'I' for Inactive)
REMARK    1  A    between atoms: C_1  and  O_2
REMARK    2  A    between atoms: O_2  and  C_3
REMARK    3  A    between atoms: C_4  and  O_5
REMARK    4  A    between atoms: C_9  and  O_10
REMARK    5  A    between atoms: C_13  and  C_14
REMARK    6  A    between atoms: C_14  and  O_15
REMARK    7  A    between atoms: C_16  and  O_17
REMARK    8  A    between atoms: C_18  and  O_19
REMARK                            x       y       z     vdW  Elec       q    Type
REMARK                         _______ _______ _______ _____ _____    ______ ____
ROOT
ATOM      1  C   UNL     1       1.431   2.360 -24.689  0.00  0.00    +0.203 A 
ATOM      2  C   UNL     1       2.111   1.888 -23.687  0.00  0.00    +0.163 A 
ATOM      3  C   UNL     1       1.534   1.715 -22.535  0.00  0.00    +0.064 A 
ATOM      4  C   UNL     1       0.278   2.014 -22.385  0.00  0.00    +0.072 A 
ATOM      5  C   UNL     1      -0.402   2.486 -23.387  0.00  0.00    +0.044 A 
ATOM      6  C   UNL     1      -1.658   2.786 -23.237  0.00  0.00    +0.196 C 
ATOM      7  O   UNL     1      -2.338   3.258 -24.239  0.00  0.00    -0.360 OA
ATOM      8  C   UNL     1      -3.594   3.557 -24.089  0.00  0.00    +0.175 C 
ATOM      9  C   UNL     1      -4.170   3.384 -22.937  0.00  0.00    +0.178 C 
ATOM     10  C   UNL     1      -3.490   2.912 -21.935  0.00  0.00    +0.189 C 
ATOM     11  C   UNL     1      -2.234   2.613 -22.085  0.00  0.00    +0.241 C 
ATOM     12  O   UNL     1      -1.554   2.140 -21.082  0.00  0.00    -0.452 OA
ATOM     13  C   UNL     1      -0.298   1.841 -21.232  0.00  0.00    +0.340 C 
ATOM     14  O   UNL     1       0.382   1.369 -20.230  0.00  0.00    -0.245 OA
ATOM     15  C   UNL     1       0.174   2.659 -24.539  0.00  0.00    +0.169 A 
ENDROOT
BRANCH   1  17
ATOM     16  C   UNL     1       2.047   1.558 -26.701  0.00  0.00    +0.277 C 
ATOM     17  O   UNL     1       2.007   2.533 -25.842  0.00  0.00    -0.489 OA
ENDBRANCH   1  17
BRANCH  10  18
ATOM     18  O   UNL     1      -4.066   2.739 -20.782  0.00  0.00    -0.385 OA
ATOM     19  H   UNL     1      -3.399   2.494 -20.121  0.00  0.00    +0.210 HD
ENDBRANCH  10  18
BRANCH   9  20
ATOM     20  O   UNL     1      -5.426   3.683 -22.787  0.00  0.00    -0.386 OA
ATOM     21  H   UNL     1      -5.505   4.488 -22.252  0.00  0.00    +0.210 HD
ENDBRANCH   9  20
BRANCH  15  22
ATOM     22  O   UNL     1      -0.506   3.132 -25.542  0.00  0.00    -0.503 OA
ATOM     23  H   UNL     1      -0.059   3.499 -26.280  0.00  0.00    +0.292 HD
ENDBRANCH  15  22
BRANCH   2  24
ATOM     24  O   UNL     1       3.367   1.589 -23.837  0.00  0.00    -0.503 OA
ATOM     25  H   UNL     1       4.003   1.924 -23.236  0.00  0.00    +0.292 HD
ENDBRANCH   2  24
BRANCH   8  26
ATOM     26  C   UNL     1      -4.274   4.029 -25.091  0.00  0.00    +0.190 C 
BRANCH  26  27
ATOM     27  O   UNL     1      -4.489   5.308 -25.187  0.00  0.00    -0.392 OA
ATOM     28  H   UNL     1      -3.930   5.678 -25.888  0.00  0.00    +0.210 HD
ENDBRANCH  26  27
ENDBRANCH   8  26
TORSDOF 7
ENDMDL
MODEL 7
REMARK VINA RESULT:    -7.765      2.887      6.484
REMARK INTER + INTRA:          -9.761
REMARK INTER:                  -9.822
REMARK INTRA:                   0.061
REMARK UNBOUND:                 0.047
REMARK  Name = ZINC000004104806
REMARK  8 active torsions:
REMARK  status: ('A' for Active; 'I' for Inactive)
REMARK    1  A    between atoms: C_1  and  O_2
REMARK    2  A    between atoms: O_2  and  C_3
REMARK    3  A    between atoms: C_4  and  O_5
REMARK    4  A    between atoms: C_9  and  O_10
REMARK    5  A    between atoms: C_13  and  C_14
REMARK    6  A    between atoms: C_14  and  O_15
REMARK    7  A    between atoms: C_16  and  O_17
REMARK    8  A    between atoms: C_18  and  O_19
REMARK                            x       y       z     vdW  Elec       q    Type
REMARK                         _______ _______ _______ _____ _____    ______ ____
ROOT
ATOM      1  C   UNL     1       5.246   3.836 -22.786  0.00  0.00    +0.203 A 
ATOM      2  C   UNL     1       5.882   2.870 -22.193  0.00  0.00    +0.163 A 
ATOM      3  C   UNL     1       5.222   1.870 -21.690  0.00  0.00    +0.064 A 
ATOM      4  C   UNL     1       3.925   1.836 -21.779  0.00  0.00    +0.072 A 
ATOM      5  C   UNL     1       3.289   2.802 -22.371  0.00  0.00    +0.044 A 
ATOM      6  C   UNL     1       1.993   2.769 -22.460  0.00  0.00    +0.196 C 
ATOM      7  O   UNL     1       1.356   3.735 -23.053  0.00  0.00    -0.360 OA
ATOM      8  C   UNL     1       0.060   3.701 -23.142  0.00  0.00    +0.175 C 
ATOM      9  C   UNL     1      -0.600   2.701 -22.638  0.00  0.00    +0.178 C 
ATOM     10  C   UNL     1       0.036   1.735 -22.046  0.00  0.00    +0.189 C 
ATOM     11  C   UNL     1       1.332   1.769 -21.957  0.00  0.00    +0.241 C 
ATOM     12  O   UNL     1       1.969   0.802 -21.364  0.00  0.00    -0.452 OA
ATOM     13  C   UNL     1       3.265   0.836 -21.275  0.00  0.00    +0.340 C 
ATOM     14  O   UNL     1       3.902  -0.131 -20.682  0.00  0.00    -0.245 OA
ATOM     15  C   UNL     1       3.949   3.802 -22.875  0.00  0.00    +0.169 A 
ENDROOT
BRANCH   1  17
ATOM     16  C   UNL     1       6.272   5.823 -22.527  0.00  0.00    +0.277 C 
ATOM     17  O   UNL     1       5.906   4.836 -23.290  0.00  0.00    -0.489 OA
ENDBRANCH   1  17
BRANCH  10  18
ATOM     18  O   UNL     1      -0.624   0.734 -21.542  0.00  0.00    -0.385 OA
ATOM     19  H   UNL     1      -1.387   0.533 -22.107  0.00  0.00    +0.210 HD
ENDBRANCH  10  18
BRANCH   9  20
ATOM     20  O   UNL     1      -1.897   2.667 -22.727  0.00  0.00    -0.386 OA
ATOM     21  H   UNL     1      -2.166   1.879 -23.224  0.00  0.00    +0.210 HD
ENDBRANCH   9  20
BRANCH  15  22
ATOM     22  O   UNL     1       3.313   4.769 -23.468  0.00  0.00    -0.503 OA
ATOM     23  H   UNL     1       2.955   5.473 -22.964  0.00  0.00    +0.292 HD
ENDBRANCH  15  22
BRANCH   2  24
ATOM     24  O   UNL     1       7.179   2.903 -22.104  0.00  0.00    -0.503 OA
ATOM     25  H   UNL     1       7.690   3.218 -22.824  0.00  0.00    +0.292 HD
ENDBRANCH   2  24
BRANCH   8  26
ATOM     26  C   UNL     1      -0.577   4.667 -23.735  0.00  0.00    +0.190 C 
BRANCH  26  27
ATOM     27  O   UNL     1      -0.319   5.903 -23.423  0.00  0.00    -0.392 OA
ATOM     28  H   UNL     1       0.587   6.121 -23.691  0.00  0.00    +0.210 HD
ENDBRANCH  26  27
ENDBRANCH   8  26
TORSDOF 7
ENDMDL
MODEL 8
REMARK VINA RESULT:    -7.578      3.706      5.529
REMARK INTER + INTRA:          -9.525
REMARK INTER:                  -9.438
REMARK INTRA:                  -0.086
REMARK UNBOUND:                 0.047
REMARK  Name = ZINC000004104806
REMARK  8 active torsions:
REMARK  status: ('A' for Active; 'I' for Inactive)
REMARK    1  A    between atoms: C_1  and  O_2
REMARK    2  A    between atoms: O_2  and  C_3
REMARK    3  A    between atoms: C_4  and  O_5
REMARK    4  A    between atoms: C_9  and  O_10
REMARK    5  A    between atoms: C_13  and  C_14
REMARK    6  A    between atoms: C_14  and  O_15
REMARK    7  A    between atoms: C_16  and  O_17
REMARK    8  A    between atoms: C_18  and  O_19
REMARK                            x       y       z     vdW  Elec       q    Type
REMARK                         _______ _______ _______ _____ _____    ______ ____
ROOT
ATOM      1  C   UNL     1       0.746   4.442 -23.916  0.00  0.00    +0.203 A 
ATOM      2  C   UNL     1       0.438   3.281 -24.411  0.00  0.00    +0.163 A 
ATOM      3  C   UNL     1       1.350   2.362 -24.529  0.00  0.00    +0.064 A 
ATOM      4  C   UNL     1       2.570   2.605 -24.151  0.00  0.00    +0.072 A 
ATOM      5  C   UNL     1       2.878   3.766 -23.656  0.00  0.00    +0.044 A 
ATOM      6  C   UNL     1       4.098   4.009 -23.278  0.00  0.00    +0.196 C 
ATOM      7  O   UNL     1       4.406   5.171 -22.783  0.00  0.00    -0.360 OA
ATOM      8  C   UNL     1       5.626   5.413 -22.406  0.00  0.00    +0.175 C 
ATOM      9  C   UNL     1       6.538   4.495 -22.523  0.00  0.00    +0.178 C 
ATOM     10  C   UNL     1       6.230   3.333 -23.019  0.00  0.00    +0.189 C 
ATOM     11  C   UNL     1       5.010   3.090 -23.396  0.00  0.00    +0.241 C 
ATOM     12  O   UNL     1       4.702   1.928 -23.892  0.00  0.00    -0.452 OA
ATOM     13  C   UNL     1       3.482   1.685 -24.269  0.00  0.00    +0.340 C 
ATOM     14  O   UNL     1       3.173   0.524 -24.765  0.00  0.00    -0.245 OA
ATOM     15  C   UNL     1       1.966   4.685 -23.538  0.00  0.00    +0.169 A 
ENDROOT
BRANCH   1  17
ATOM     16  C   UNL     1      -1.003   5.323 -22.804  0.00  0.00    +0.277 C 
ATOM     17  O   UNL     1      -0.166   5.362 -23.798  0.00  0.00    -0.489 OA
ENDBRANCH   1  17
BRANCH  10  18
ATOM     18  O   UNL     1       7.142   2.414 -23.137  0.00  0.00    -0.385 OA
ATOM     19  H   UNL     1       7.628   2.546 -23.966  0.00  0.00    +0.210 HD
ENDBRANCH  10  18
BRANCH   9  20
ATOM     20  O   UNL     1       7.758   4.737 -22.146  0.00  0.00    -0.386 OA
ATOM     21  H   UNL     1       8.216   5.241 -22.836  0.00  0.00    +0.210 HD
ENDBRANCH   9  20
BRANCH  15  22
ATOM     22  O   UNL     1       2.274   5.848 -23.043  0.00  0.00    -0.503 OA
ATOM     23  H   UNL     1       2.779   5.902 -22.255  0.00  0.00    +0.292 HD
ENDBRANCH  15  22
BRANCH   2  24
ATOM     24  O   UNL     1      -0.782   3.038 -24.789  0.00  0.00    -0.503 OA
ATOM     25  H   UNL     1      -0.956   2.775 -25.671  0.00  0.00    +0.292 HD
ENDBRANCH   2  24
BRANCH   8  26
ATOM     26  C   UNL     1       5.935   6.575 -21.910  0.00  0.00    +0.190 C 
BRANCH  26  27
ATOM     27  O   UNL     1       6.087   6.715 -20.626  0.00  0.00    -0.392 OA
ATOM     28  H   UNL     1       5.220   6.678 -20.192  0.00  0.00    +0.210 HD
ENDBRANCH  26  27
ENDBRANCH   8  26
TORSDOF 7
ENDMDL
MODEL 9
REMARK VINA RESULT:    -7.475      1.574      5.922
REMARK INTER + INTRA:          -9.395
REMARK INTER:                  -9.442
REMARK INTRA:                   0.047
REMARK UNBOUND:                 0.047
REMARK  Name = ZINC000004104806
REMARK  8 active torsions:
REMARK  status: ('A' for Active; 'I' for Inactive)
REMARK    1  A    between atoms: C_1  and  O_2
REMARK    2  A    between atoms: O_2  and  C_3
REMARK    3  A    between atoms: C_4  and  O_5
REMARK    4  A    between atoms: C_9  and  O_10
REMARK    5  A    between atoms: C_13  and  C_14
REMARK    6  A    between atoms: C_14  and  O_15
REMARK    7  A    between atoms: C_16  and  O_17
REMARK    8  A    between atoms: C_18  and  O_19
REMARK                            x       y       z     vdW  Elec       q    Type
REMARK                         _______ _______ _______ _____ _____    ______ ____
ROOT
ATOM      1  C   UNL     1       0.776   2.954 -23.849  0.00  0.00    +0.203 A 
ATOM      2  C   UNL     1       0.845   3.111 -25.137  0.00  0.00    +0.163 A 
ATOM      3  C   UNL     1      -0.239   3.321 -25.824  0.00  0.00    +0.064 A 
ATOM      4  C   UNL     1      -1.390   3.372 -25.223  0.00  0.00    +0.072 A 
ATOM      5  C   UNL     1      -1.458   3.215 -23.935  0.00  0.00    +0.044 A 
ATOM      6  C   UNL     1      -2.610   3.267 -23.334  0.00  0.00    +0.196 C 
ATOM      7  O   UNL     1      -2.678   3.109 -22.045  0.00  0.00    -0.360 OA
ATOM      8  C   UNL     1      -3.830   3.161 -21.444  0.00  0.00    +0.175 C 
ATOM      9  C   UNL     1      -4.913   3.370 -22.131  0.00  0.00    +0.178 C 
ATOM     10  C   UNL     1      -4.844   3.528 -23.420  0.00  0.00    +0.189 C 
ATOM     11  C   UNL     1      -3.693   3.476 -24.021  0.00  0.00    +0.241 C 
ATOM     12  O   UNL     1      -3.625   3.634 -25.310  0.00  0.00    -0.452 OA
ATOM     13  C   UNL     1      -2.474   3.582 -25.911  0.00  0.00    +0.340 C 
ATOM     14  O   UNL     1      -2.405   3.739 -27.200  0.00  0.00    -0.245 OA
ATOM     15  C   UNL     1      -0.375   3.006 -23.248  0.00  0.00    +0.169 A 
ENDROOT
BRANCH   1  17
ATOM     16  C   UNL     1       2.268   1.529 -22.946  0.00  0.00    +0.277 C 
ATOM     17  O   UNL     1       1.860   2.744 -23.161  0.00  0.00    -0.489 OA
ENDBRANCH   1  17
BRANCH  10  18
ATOM     18  O   UNL     1      -5.928   3.737 -24.108  0.00  0.00    -0.385 OA
ATOM     19  H   UNL     1      -6.221   4.653 -23.977  0.00  0.00    +0.210 HD
ENDBRANCH  10  18
BRANCH   9  20
ATOM     20  O   UNL     1      -6.064   3.422 -21.530  0.00  0.00    -0.386 OA
ATOM     21  H   UNL     1      -5.969   3.096 -20.621  0.00  0.00    +0.210 HD
ENDBRANCH   9  20
BRANCH  15  22
ATOM     22  O   UNL     1      -0.443   2.848 -21.958  0.00  0.00    -0.503 OA
ATOM     23  H   UNL     1       0.082   2.196 -21.538  0.00  0.00    +0.292 HD
ENDBRANCH  15  22
BRANCH   2  24
ATOM     24  O   UNL     1       1.996   3.059 -25.738  0.00  0.00    -0.503 OA
ATOM     25  H   UNL     1       2.261   2.274 -26.176  0.00  0.00    +0.292 HD
ENDBRANCH   2  24
BRANCH   8  26
ATOM     26  C   UNL     1      -3.898   3.003 -20.156  0.00  0.00    +0.190 C 
BRANCH  26  27
ATOM     27  O   UNL     1      -3.231   3.794 -19.367  0.00  0.00    -0.392 OA
ATOM     28  H   UNL     1      -3.761   3.987 -18.579  0.00  0.00    +0.210 HD
ENDBRANCH  26  27
ENDBRANCH   8  26
TORSDOF 7
ENDMDL
