MODEL 1
REMARK VINA RESULT:   -11.102      0.000      0.000
REMARK INTER + INTRA:         -11.751
REMARK INTER:                 -11.751
REMARK INTRA:                   0.000
REMARK UNBOUND:                 0.000
REMARK  Name = ZINC000013651794
REMARK  3 active torsions:
REMARK  status: ('A' for Active; 'I' for Inactive)
REMARK    1  A    between atoms: C_1  and  C_2
REMARK    2  A    between atoms: C_10  and  O_11
REMARK    3  A    between atoms: C_20  and  O_21
REMARK                            x       y       z     vdW  Elec       q    Type
REMARK                         _______ _______ _______ _____ _____    ______ ____
ROOT
ATOM      1  C   UNL     1      -4.565   3.058 -21.822  0.00  0.00    +0.014 C 
ATOM      2  C   UNL     1      -3.837   3.303 -22.871  0.00  0.00    -0.003 C 
ATOM      3  C   UNL     1      -3.177   2.784 -21.879  0.00  0.00    +0.010 C 
ATOM      4  C   UNL     1      -1.902   2.557 -21.995  0.00  0.00    +0.009 C 
ATOM      5  C   UNL     1      -1.288   2.849 -23.103  0.00  0.00    +0.023 C 
ATOM      6  C   UNL     1      -0.013   2.622 -23.219  0.00  0.00    -0.040 A 
ATOM      7  C   UNL     1       0.648   2.103 -22.228  0.00  0.00    +0.023 A 
ATOM      8  C   UNL     1       1.923   1.876 -22.343  0.00  0.00    +0.060 A 
ATOM      9  C   UNL     1       2.536   2.169 -23.452  0.00  0.00    +0.131 A 
ATOM     10  C   UNL     1       1.876   2.687 -24.444  0.00  0.00    +0.050 A 
ATOM     11 BR   UNL     1       2.584   1.357 -21.351  0.00  0.00    -0.047 Br
ATOM     12  C   UNL     1       0.601   2.914 -24.327  0.00  0.00    -0.040 A 
ATOM     13  C   UNL     1      -0.060   3.433 -25.319  0.00  0.00    +0.036 C 
ATOM     14  C   UNL     1      -1.335   3.660 -25.204  0.00  0.00    +0.009 C 
ATOM     15  C   UNL     1      -1.949   3.368 -24.096  0.00  0.00    +0.000 C 
ATOM     16  C   UNL     1      -5.090   3.622 -23.009  0.00  0.00    +0.121 C 
ATOM     17  C   UNL     1      -5.250   4.111 -24.203  0.00  0.00    +0.032 C 
ATOM     18  C   UNL     1      -4.096   4.095 -24.802  0.00  0.00    +0.007 C 
ATOM     19  C   UNL     1      -3.223   3.595 -23.979  0.00  0.00    +0.001 C 
ENDROOT
BRANCH   9  20
ATOM     20  O   UNL     1       3.812   1.941 -23.567  0.00  0.00    -0.506 OA
ATOM     21  H   UNL     1       4.169   1.124 -23.283  0.00  0.00    +0.292 HD
ENDBRANCH   9  20
BRANCH  16  22
ATOM     22  O   UNL     1      -6.019   3.478 -22.112  0.00  0.00    -0.391 OA
ATOM     23  H   UNL     1      -6.862   3.276 -22.549  0.00  0.00    +0.210 HD
ENDBRANCH  16  22
TORSDOF 2
ENDMDL
MODEL 2
REMARK VINA RESULT:   -11.082      1.350      2.582
REMARK INTER + INTRA:         -11.730
REMARK INTER:                 -11.730
REMARK INTRA:                   0.000
REMARK UNBOUND:                 0.000
REMARK  Name = ZINC000013651794
REMARK  3 active torsions:
REMARK  status: ('A' for Active; 'I' for Inactive)
REMARK    1  A    between atoms: C_1  and  C_2
REMARK    2  A    between atoms: C_10  and  O_11
REMARK    3  A    between atoms: C_20  and  O_21
REMARK                            x       y       z     vdW  Elec       q    Type
REMARK                         _______ _______ _______ _____ _____    ______ ____
ROOT
ATOM      1  C   UNL     1      -3.641   4.203 -25.589  0.00  0.00    +0.014 C 
ATOM      2  C   UNL     1      -3.394   3.714 -24.411  0.00  0.00    -0.003 C 
ATOM      3  C   UNL     1      -2.363   3.732 -25.201  0.00  0.00    +0.010 C 
ATOM      4  C   UNL     1      -1.215   3.284 -24.785  0.00  0.00    +0.009 C 
ATOM      5  C   UNL     1      -1.099   2.818 -23.577  0.00  0.00    +0.023 C 
ATOM      6  C   UNL     1       0.047   2.370 -23.160  0.00  0.00    -0.040 A 
ATOM      7  C   UNL     1       1.078   2.388 -23.951  0.00  0.00    +0.023 A 
ATOM      8  C   UNL     1       2.226   1.941 -23.535  0.00  0.00    +0.060 A 
ATOM      9  C   UNL     1       2.341   1.474 -22.326  0.00  0.00    +0.131 A 
ATOM     10  C   UNL     1       1.310   1.456 -21.535  0.00  0.00    +0.050 A 
ATOM     11 BR   UNL     1       3.257   1.959 -24.326  0.00  0.00    -0.047 Br
ATOM     12  C   UNL     1       0.163   1.904 -21.952  0.00  0.00    -0.040 A 
ATOM     13  C   UNL     1      -0.869   1.886 -21.161  0.00  0.00    +0.036 C 
ATOM     14  C   UNL     1      -2.016   2.333 -21.577  0.00  0.00    +0.009 C 
ATOM     15  C   UNL     1      -2.131   2.799 -22.785  0.00  0.00    +0.000 C 
ATOM     16  C   UNL     1      -4.625   4.094 -24.579  0.00  0.00    +0.121 C 
ATOM     17  C   UNL     1      -5.271   3.862 -23.474  0.00  0.00    +0.032 C 
ATOM     18  C   UNL     1      -4.438   3.339 -22.624  0.00  0.00    +0.007 C 
ATOM     19  C   UNL     1      -3.278   3.247 -23.203  0.00  0.00    +0.001 C 
ENDROOT
BRANCH   9  20
ATOM     20  O   UNL     1       3.489   1.026 -21.910  0.00  0.00    -0.506 OA
ATOM     21  H   UNL     1       4.238   1.588 -21.909  0.00  0.00    +0.292 HD
ENDBRANCH   9  20
BRANCH  16  22
ATOM     22  O   UNL     1      -5.124   4.613 -25.661  0.00  0.00    -0.391 OA
ATOM     23  H   UNL     1      -4.719   5.481 -25.819  0.00  0.00    +0.210 HD
ENDBRANCH  16  22
TORSDOF 2
ENDMDL
MODEL 3
REMARK VINA RESULT:   -10.545      1.879      5.902
REMARK INTER + INTRA:         -11.162
REMARK INTER:                 -11.162
REMARK INTRA:                   0.000
REMARK UNBOUND:                 0.000
REMARK  Name = ZINC000013651794
REMARK  3 active torsions:
REMARK  status: ('A' for Active; 'I' for Inactive)
REMARK    1  A    between atoms: C_1  and  C_2
REMARK    2  A    between atoms: C_10  and  O_11
REMARK    3  A    between atoms: C_20  and  O_21
REMARK                            x       y       z     vdW  Elec       q    Type
REMARK                         _______ _______ _______ _____ _____    ______ ____
ROOT
ATOM      1  C   UNL     1       2.282   1.118 -21.659  0.00  0.00    +0.014 C 
ATOM      2  C   UNL     1       1.787   1.724 -22.697  0.00  0.00    -0.003 C 
ATOM      3  C   UNL     1       0.924   1.509 -21.749  0.00  0.00    +0.010 C 
ATOM      4  C   UNL     1      -0.310   1.893 -21.893  0.00  0.00    +0.009 C 
ATOM      5  C   UNL     1      -0.681   2.493 -22.985  0.00  0.00    +0.023 C 
ATOM      6  C   UNL     1      -1.914   2.878 -23.129  0.00  0.00    -0.040 A 
ATOM      7  C   UNL     1      -2.776   2.663 -22.182  0.00  0.00    +0.023 A 
ATOM      8  C   UNL     1      -4.010   3.047 -22.325  0.00  0.00    +0.060 A 
ATOM      9  C   UNL     1      -4.380   3.647 -23.418  0.00  0.00    +0.131 A 
ATOM     10  C   UNL     1      -3.518   3.862 -24.366  0.00  0.00    +0.050 A 
ATOM     11 BR   UNL     1      -4.873   2.832 -21.377  0.00  0.00    -0.047 Br
ATOM     12  C   UNL     1      -2.284   3.477 -24.222  0.00  0.00    -0.040 A 
ATOM     13  C   UNL     1      -1.421   3.692 -25.170  0.00  0.00    +0.036 C 
ATOM     14  C   UNL     1      -0.188   3.308 -25.026  0.00  0.00    +0.009 C 
ATOM     15  C   UNL     1       0.183   2.708 -23.934  0.00  0.00    +0.000 C 
ATOM     16  C   UNL     1       3.052   1.446 -22.801  0.00  0.00    +0.121 C 
ATOM     17  C   UNL     1       3.464   1.873 -23.958  0.00  0.00    +0.032 C 
ATOM     18  C   UNL     1       2.452   2.416 -24.569  0.00  0.00    +0.007 C 
ATOM     19  C   UNL     1       1.416   2.324 -23.789  0.00  0.00    +0.001 C 
ENDROOT
BRANCH   9  20
ATOM     20  O   UNL     1      -5.614   4.031 -23.562  0.00  0.00    -0.506 OA
ATOM     21  H   UNL     1      -6.069   3.856 -24.361  0.00  0.00    +0.292 HD
ENDBRANCH   9  20
BRANCH  16  22
ATOM     22  O   UNL     1       3.778   0.845 -21.906  0.00  0.00    -0.391 OA
ATOM     23  H   UNL     1       4.412   1.475 -21.528  0.00  0.00    +0.210 HD
ENDBRANCH  16  22
TORSDOF 2
ENDMDL
MODEL 4
REMARK VINA RESULT:   -10.470      2.004      6.408
REMARK INTER + INTRA:         -11.082
REMARK INTER:                 -11.082
REMARK INTRA:                   0.000
REMARK UNBOUND:                 0.000
REMARK  Name = ZINC000013651794
REMARK  3 active torsions:
REMARK  status: ('A' for Active; 'I' for Inactive)
REMARK    1  A    between atoms: C_1  and  C_2
REMARK    2  A    between atoms: C_10  and  O_11
REMARK    3  A    between atoms: C_20  and  O_21
REMARK                            x       y       z     vdW  Elec       q    Type
REMARK                         _______ _______ _______ _____ _____    ______ ____
ROOT
ATOM      1  C   UNL     1       2.744   2.350 -24.750  0.00  0.00    +0.014 C 
ATOM      2  C   UNL     1       2.023   2.140 -23.690  0.00  0.00    -0.003 C 
ATOM      3  C   UNL     1       1.369   2.680 -24.675  0.00  0.00    +0.010 C 
ATOM      4  C   UNL     1       0.106   2.959 -24.542  0.00  0.00    +0.009 C 
ATOM      5  C   UNL     1      -0.503   2.698 -23.424  0.00  0.00    +0.023 C 
ATOM      6  C   UNL     1      -1.766   2.976 -23.291  0.00  0.00    -0.040 A 
ATOM      7  C   UNL     1      -2.419   3.516 -24.276  0.00  0.00    +0.023 A 
ATOM      8  C   UNL     1      -3.682   3.796 -24.144  0.00  0.00    +0.060 A 
ATOM      9  C   UNL     1      -4.291   3.534 -23.024  0.00  0.00    +0.131 A 
ATOM     10  C   UNL     1      -3.638   2.994 -22.039  0.00  0.00    +0.050 A 
ATOM     11 BR   UNL     1      -4.336   4.336 -25.129  0.00  0.00    -0.047 Br
ATOM     12  C   UNL     1      -2.375   2.715 -22.172  0.00  0.00    -0.040 A 
ATOM     13  C   UNL     1      -1.721   2.175 -21.187  0.00  0.00    +0.036 C 
ATOM     14  C   UNL     1      -0.458   1.896 -21.320  0.00  0.00    +0.009 C 
ATOM     15  C   UNL     1       0.151   2.157 -22.438  0.00  0.00    +0.000 C 
ATOM     16  C   UNL     1       3.263   1.771 -23.568  0.00  0.00    +0.121 C 
ATOM     17  C   UNL     1       3.421   1.282 -22.373  0.00  0.00    +0.032 C 
ATOM     18  C   UNL     1       2.277   1.348 -21.758  0.00  0.00    +0.007 C 
ATOM     19  C   UNL     1       1.413   1.878 -22.571  0.00  0.00    +0.001 C 
ENDROOT
BRANCH   9  20
ATOM     20  O   UNL     1      -5.554   3.813 -22.892  0.00  0.00    -0.506 OA
ATOM     21  H   UNL     1      -6.002   4.288 -23.564  0.00  0.00    +0.292 HD
ENDBRANCH   9  20
BRANCH  16  22
ATOM     22  O   UNL     1       4.184   1.873 -24.479  0.00  0.00    -0.391 OA
ATOM     23  H   UNL     1       3.787   1.751 -25.356  0.00  0.00    +0.210 HD
ENDBRANCH  16  22
TORSDOF 2
ENDMDL
MODEL 5
REMARK VINA RESULT:    -9.208      2.437      4.096
REMARK INTER + INTRA:          -9.747
REMARK INTER:                  -9.747
REMARK INTRA:                   0.000
REMARK UNBOUND:                 0.000
REMARK  Name = ZINC000013651794
REMARK  3 active torsions:
REMARK  status: ('A' for Active; 'I' for Inactive)
REMARK    1  A    between atoms: C_1  and  C_2
REMARK    2  A    between atoms: C_10  and  O_11
REMARK    3  A    between atoms: C_20  and  O_21
REMARK                            x       y       z     vdW  Elec       q    Type
REMARK                         _______ _______ _______ _____ _____    ______ ____
ROOT
ATOM      1  C   UNL     1      -0.950   4.783 -23.608  0.00  0.00    +0.014 C 
ATOM      2  C   UNL     1      -0.422   3.700 -23.119  0.00  0.00    -0.003 C 
ATOM      3  C   UNL     1       0.448   4.567 -23.543  0.00  0.00    +0.010 C 
ATOM      4  C   UNL     1       1.719   4.309 -23.456  0.00  0.00    +0.009 C 
ATOM      5  C   UNL     1       2.120   3.184 -22.944  0.00  0.00    +0.023 C 
ATOM      6  C   UNL     1       3.391   2.925 -22.856  0.00  0.00    -0.040 A 
ATOM      7  C   UNL     1       4.261   3.791 -23.281  0.00  0.00    +0.023 A 
ATOM      8  C   UNL     1       5.532   3.534 -23.194  0.00  0.00    +0.060 A 
ATOM      9  C   UNL     1       5.933   2.407 -22.681  0.00  0.00    +0.131 A 
ATOM     10  C   UNL     1       5.062   1.540 -22.256  0.00  0.00    +0.050 A 
ATOM     11 BR   UNL     1       6.403   4.401 -23.618  0.00  0.00    -0.047 Br
ATOM     12  C   UNL     1       3.792   1.799 -22.344  0.00  0.00    -0.040 A 
ATOM     13  C   UNL     1       2.920   0.932 -21.919  0.00  0.00    +0.036 C 
ATOM     14  C   UNL     1       1.650   1.190 -22.006  0.00  0.00    +0.009 C 
ATOM     15  C   UNL     1       1.249   2.316 -22.519  0.00  0.00    +0.000 C 
ATOM     16  C   UNL     1      -1.722   3.714 -23.092  0.00  0.00    +0.121 C 
ATOM     17  C   UNL     1      -2.125   2.597 -22.563  0.00  0.00    +0.032 C 
ATOM     18  C   UNL     1      -1.073   1.892 -22.263  0.00  0.00    +0.007 C 
ATOM     19  C   UNL     1      -0.022   2.575 -22.606  0.00  0.00    +0.001 C 
ENDROOT
BRANCH   9  20
ATOM     20  O   UNL     1       7.204   2.149 -22.594  0.00  0.00    -0.506 OA
ATOM     21  H   UNL     1       7.492   1.299 -22.325  0.00  0.00    +0.292 HD
ENDBRANCH   9  20
BRANCH  16  22
ATOM     22  O   UNL     1      -2.485   4.676 -23.519  0.00  0.00    -0.391 OA
ATOM     23  H   UNL     1      -2.287   5.488 -23.026  0.00  0.00    +0.210 HD
ENDBRANCH  16  22
TORSDOF 2
ENDMDL
