MODEL 1
REMARK VINA RESULT:   -12.738      0.000      0.000
REMARK INTER + INTRA:         -13.110
REMARK INTER:                 -13.110
REMARK INTRA:                   0.000
REMARK UNBOUND:                 0.000
REMARK  Name = C[C@]1(O)CC[C@H]2[C@@H]3CC(=O)[C@H]4CC(=O)CC[C@]4(C)[C@H]3CC[C@@]21C ZINC000118913918
REMARK  4 active torsions:
REMARK  status: ('A' for Active; 'I' for Inactive)
REMARK    1  A    between atoms: C_1  and  C_2
REMARK    2  A    between atoms: C_2  and  O_3
REMARK    3  A    between atoms: C_17  and  C_18
REMARK    4  A    between atoms: C_22  and  C_23
REMARK                            x       y       z     vdW  Elec       q    Type
REMARK                         _______ _______ _______ _____ _____    ______ ____
ROOT
ATOM      1  C   UNL     1      -5.208   4.100 -24.076  0.00  0.00    +0.042 C 
ATOM      2  C   UNL     1      -4.971   3.556 -22.923  0.00  0.00    +0.069 C 
ATOM      3  C   UNL     1      -5.057   3.063 -21.721  0.00  0.00    +0.035 C 
ATOM      4  C   UNL     1      -3.874   2.649 -21.366  0.00  0.00    +0.007 C 
ATOM      5  C   UNL     1      -3.055   2.887 -22.351  0.00  0.00    +0.002 C 
ATOM      6  C   UNL     1      -1.783   2.666 -22.496  0.00  0.00    +0.003 C 
ATOM      7  C   UNL     1      -1.104   2.106 -21.534  0.00  0.00    +0.078 C 
ATOM      8  C   UNL     1       0.169   1.886 -21.684  0.00  0.00    +0.138 C 
ATOM      9  C   UNL     1       0.766   2.225 -22.790  0.00  0.00    +0.068 C 
ATOM     10  C   UNL     1       2.039   2.005 -22.937  0.00  0.00    +0.086 C 
ATOM     11  C   UNL     1       2.638   2.343 -24.045  0.00  0.00    +0.134 C 
ATOM     12  C   UNL     1       1.955   2.903 -25.003  0.00  0.00    +0.075 C 
ATOM     13  C   UNL     1       0.682   3.123 -24.855  0.00  0.00    +0.015 C 
ATOM     14  O   UNL     1       3.910   2.123 -24.192  0.00  0.00    -0.297 OA
ATOM     15  C   UNL     1       0.085   2.784 -23.749  0.00  0.00    -0.019 C 
ATOM     16  C   UNL     1      -0.593   3.343 -24.707  0.00  0.00    +0.012 C 
ATOM     17  O   UNL     1       0.850   1.327 -20.724  0.00  0.00    -0.297 OA
ATOM     18  C   UNL     1      -1.189   3.004 -23.600  0.00  0.00    -0.001 C 
ATOM     19  C   UNL     1      -1.867   3.563 -24.559  0.00  0.00    +0.005 C 
ATOM     20  C   UNL     1      -3.136   3.785 -24.418  0.00  0.00    +0.010 C 
ATOM     21  C   UNL     1      -3.728   3.446 -23.314  0.00  0.00    -0.000 C 
ATOM     22  C   UNL     1      -4.448   3.988 -24.210  0.00  0.00    +0.014 C 
ENDROOT
BRANCH   2  23
ATOM     23  O   UNL     1      -6.243   3.764 -22.749  0.00  0.00    -0.388 OA
ATOM     24  H   UNL     1      -6.447   3.749 -21.800  0.00  0.00    +0.210 HD
ENDBRANCH   2  23
TORSDOF 1
ENDMDL
MODEL 2
REMARK VINA RESULT:   -12.585      1.101      2.642
REMARK INTER + INTRA:         -12.953
REMARK INTER:                 -12.953
REMARK INTRA:                   0.000
REMARK UNBOUND:                 0.000
REMARK  Name = C[C@]1(O)CC[C@H]2[C@@H]3CC(=O)[C@H]4CC(=O)CC[C@]4(C)[C@H]3CC[C@@]21C ZINC000118913918
REMARK  4 active torsions:
REMARK  status: ('A' for Active; 'I' for Inactive)
REMARK    1  A    between atoms: C_1  and  C_2
REMARK    2  A    between atoms: C_2  and  O_3
REMARK    3  A    between atoms: C_17  and  C_18
REMARK    4  A    between atoms: C_22  and  C_23
REMARK                            x       y       z     vdW  Elec       q    Type
REMARK                         _______ _______ _______ _____ _____    ______ ____
ROOT
ATOM      1  C   UNL     1      -4.919   2.897 -21.377  0.00  0.00    +0.042 C 
ATOM      2  C   UNL     1      -4.679   3.387 -22.555  0.00  0.00    +0.069 C 
ATOM      3  C   UNL     1      -4.760   3.955 -23.723  0.00  0.00    +0.035 C 
ATOM      4  C   UNL     1      -3.583   3.911 -24.278  0.00  0.00    +0.007 C 
ATOM      5  C   UNL     1      -2.772   3.315 -23.451  0.00  0.00    +0.002 C 
ATOM      6  C   UNL     1      -1.508   3.027 -23.529  0.00  0.00    +0.003 C 
ATOM      7  C   UNL     1      -0.829   3.351 -24.594  0.00  0.00    +0.078 C 
ATOM      8  C   UNL     1       0.436   3.060 -24.668  0.00  0.00    +0.138 C 
ATOM      9  C   UNL     1       1.026   2.446 -23.683  0.00  0.00    +0.068 C 
ATOM     10  C   UNL     1       2.290   2.157 -23.760  0.00  0.00    +0.086 C 
ATOM     11  C   UNL     1       2.882   1.543 -22.773  0.00  0.00    +0.134 C 
ATOM     12  C   UNL     1       2.200   1.221 -21.711  0.00  0.00    +0.075 C 
ATOM     13  C   UNL     1       0.935   1.511 -21.635  0.00  0.00    +0.015 C 
ATOM     14  O   UNL     1       4.146   1.253 -22.850  0.00  0.00    -0.297 OA
ATOM     15  C   UNL     1       0.345   2.124 -22.621  0.00  0.00    -0.019 C 
ATOM     16  C   UNL     1      -0.333   1.801 -21.559  0.00  0.00    +0.012 C 
ATOM     17  O   UNL     1       1.116   3.382 -25.732  0.00  0.00    -0.297 OA
ATOM     18  C   UNL     1      -0.921   2.415 -22.545  0.00  0.00    -0.001 C 
ATOM     19  C   UNL     1      -1.599   2.092 -21.483  0.00  0.00    +0.005 C 
ATOM     20  C   UNL     1      -2.860   2.379 -21.402  0.00  0.00    +0.010 C 
ATOM     21  C   UNL     1      -3.445   2.990 -22.385  0.00  0.00    -0.000 C 
ATOM     22  C   UNL     1      -4.164   2.703 -21.378  0.00  0.00    +0.014 C 
ENDROOT
BRANCH   2  23
ATOM     23  O   UNL     1      -5.943   3.689 -22.505  0.00  0.00    -0.388 OA
ATOM     24  H   UNL     1      -6.347   3.537 -23.374  0.00  0.00    +0.210 HD
ENDBRANCH   2  23
TORSDOF 1
ENDMDL
MODEL 3
REMARK VINA RESULT:   -11.890      1.154      6.283
REMARK INTER + INTRA:         -12.237
REMARK INTER:                 -12.237
REMARK INTRA:                   0.000
REMARK UNBOUND:                 0.000
REMARK  Name = C[C@]1(O)CC[C@H]2[C@@H]3CC(=O)[C@H]4CC(=O)CC[C@]4(C)[C@H]3CC[C@@]21C ZINC000118913918
REMARK  4 active torsions:
REMARK  status: ('A' for Active; 'I' for Inactive)
REMARK    1  A    between atoms: C_1  and  C_2
REMARK    2  A    between atoms: C_2  and  O_3
REMARK    3  A    between atoms: C_17  and  C_18
REMARK    4  A    between atoms: C_22  and  C_23
REMARK                            x       y       z     vdW  Elec       q    Type
REMARK                         _______ _______ _______ _____ _____    ______ ____
ROOT
ATOM      1  C   UNL     1       2.799   1.366 -21.784  0.00  0.00    +0.042 C 
ATOM      2  C   UNL     1       2.623   1.877 -22.963  0.00  0.00    +0.069 C 
ATOM      3  C   UNL     1       2.772   2.332 -24.174  0.00  0.00    +0.035 C 
ATOM      4  C   UNL     1       1.612   2.750 -24.596  0.00  0.00    +0.007 C 
ATOM      5  C   UNL     1       0.745   2.553 -23.644  0.00  0.00    +0.002 C 
ATOM      6  C   UNL     1      -0.528   2.795 -23.564  0.00  0.00    +0.003 C 
ATOM      7  C   UNL     1      -1.155   3.334 -24.573  0.00  0.00    +0.078 C 
ATOM      8  C   UNL     1      -2.430   3.574 -24.489  0.00  0.00    +0.138 C 
ATOM      9  C   UNL     1      -3.082   3.277 -23.402  0.00  0.00    +0.068 C 
ATOM     10  C   UNL     1      -4.357   3.518 -23.321  0.00  0.00    +0.086 C 
ATOM     11  C   UNL     1      -5.011   3.222 -22.233  0.00  0.00    +0.134 C 
ATOM     12  C   UNL     1      -4.382   2.683 -21.227  0.00  0.00    +0.075 C 
ATOM     13  C   UNL     1      -3.106   2.442 -21.309  0.00  0.00    +0.015 C 
ATOM     14  O   UNL     1      -6.285   3.462 -22.152  0.00  0.00    -0.297 OA
ATOM     15  C   UNL     1      -2.454   2.739 -22.397  0.00  0.00    -0.019 C 
ATOM     16  C   UNL     1      -1.828   2.201 -21.391  0.00  0.00    +0.012 C 
ATOM     17  O   UNL     1      -3.058   4.113 -25.496  0.00  0.00    -0.297 OA
ATOM     18  C   UNL     1      -1.178   2.498 -22.479  0.00  0.00    -0.001 C 
ATOM     19  C   UNL     1      -0.552   1.960 -21.473  0.00  0.00    +0.005 C 
ATOM     20  C   UNL     1       0.719   1.718 -21.549  0.00  0.00    +0.010 C 
ATOM     21  C   UNL     1       1.365   2.015 -22.634  0.00  0.00    -0.000 C 
ATOM     22  C   UNL     1       2.035   1.492 -21.690  0.00  0.00    +0.014 C 
ENDROOT
BRANCH   2  23
ATOM     23  O   UNL     1       3.899   1.647 -23.072  0.00  0.00    -0.388 OA
ATOM     24  H   UNL     1       4.349   1.933 -22.261  0.00  0.00    +0.210 HD
ENDBRANCH   2  23
TORSDOF 1
ENDMDL
MODEL 4
REMARK VINA RESULT:   -10.989      1.927      2.961
REMARK INTER + INTRA:         -11.310
REMARK INTER:                 -11.310
REMARK INTRA:                   0.000
REMARK UNBOUND:                 0.000
REMARK  Name = C[C@]1(O)CC[C@H]2[C@@H]3CC(=O)[C@H]4CC(=O)CC[C@]4(C)[C@H]3CC[C@@]21C ZINC000118913918
REMARK  4 active torsions:
REMARK  status: ('A' for Active; 'I' for Inactive)
REMARK    1  A    between atoms: C_1  and  C_2
REMARK    2  A    between atoms: C_2  and  O_3
REMARK    3  A    between atoms: C_17  and  C_18
REMARK    4  A    between atoms: C_22  and  C_23
REMARK                            x       y       z     vdW  Elec       q    Type
REMARK                         _______ _______ _______ _____ _____    ______ ____
ROOT
ATOM      1  C   UNL     1      -2.266   4.511 -23.702  0.00  0.00    +0.042 C 
ATOM      2  C   UNL     1      -2.234   3.471 -22.928  0.00  0.00    +0.069 C 
ATOM      3  C   UNL     1      -2.531   2.456 -22.169  0.00  0.00    +0.035 C 
ATOM      4  C   UNL     1      -1.419   1.907 -21.771  0.00  0.00    +0.007 C 
ATOM      5  C   UNL     1      -0.432   2.583 -22.286  0.00  0.00    +0.002 C 
ATOM      6  C   UNL     1       0.856   2.445 -22.197  0.00  0.00    +0.003 C 
ATOM      7  C   UNL     1       1.361   1.479 -21.482  0.00  0.00    +0.078 C 
ATOM      8  C   UNL     1       2.652   1.344 -21.396  0.00  0.00    +0.138 C 
ATOM      9  C   UNL     1       3.440   2.171 -22.021  0.00  0.00    +0.068 C 
ATOM     10  C   UNL     1       4.729   2.035 -21.933  0.00  0.00    +0.086 C 
ATOM     11  C   UNL     1       5.519   2.862 -22.558  0.00  0.00    +0.134 C 
ATOM     12  C   UNL     1       5.010   3.827 -23.272  0.00  0.00    +0.075 C 
ATOM     13  C   UNL     1       3.720   3.963 -23.359  0.00  0.00    +0.015 C 
ATOM     14  O   UNL     1       6.809   2.726 -22.471  0.00  0.00    -0.297 OA
ATOM     15  C   UNL     1       2.933   3.135 -22.734  0.00  0.00    -0.019 C 
ATOM     16  C   UNL     1       2.427   4.099 -23.447  0.00  0.00    +0.012 C 
ATOM     17  O   UNL     1       3.159   0.379 -20.683  0.00  0.00    -0.297 OA
ATOM     18  C   UNL     1       1.641   3.271 -22.821  0.00  0.00    -0.001 C 
ATOM     19  C   UNL     1       1.136   4.235 -23.534  0.00  0.00    +0.005 C 
ATOM     20  C   UNL     1      -0.149   4.376 -23.625  0.00  0.00    +0.010 C 
ATOM     21  C   UNL     1      -0.931   3.550 -23.001  0.00  0.00    -0.000 C 
ATOM     22  C   UNL     1      -1.488   4.468 -23.679  0.00  0.00    +0.014 C 
ENDROOT
BRANCH   2  23
ATOM     23  O   UNL     1      -3.528   3.584 -22.998  0.00  0.00    -0.388 OA
ATOM     24  H   UNL     1      -3.757   4.285 -23.629  0.00  0.00    +0.210 HD
ENDBRANCH   2  23
TORSDOF 1
ENDMDL
MODEL 5
REMARK VINA RESULT:   -10.947      1.275      5.745
REMARK INTER + INTRA:         -11.267
REMARK INTER:                 -11.267
REMARK INTRA:                   0.000
REMARK UNBOUND:                 0.000
REMARK  Name = C[C@]1(O)CC[C@H]2[C@@H]3CC(=O)[C@H]4CC(=O)CC[C@]4(C)[C@H]3CC[C@@]21C ZINC000118913918
REMARK  4 active torsions:
REMARK  status: ('A' for Active; 'I' for Inactive)
REMARK    1  A    between atoms: C_1  and  C_2
REMARK    2  A    between atoms: C_2  and  O_3
REMARK    3  A    between atoms: C_17  and  C_18
REMARK    4  A    between atoms: C_22  and  C_23
REMARK                            x       y       z     vdW  Elec       q    Type
REMARK                         _______ _______ _______ _____ _____    ______ ____
ROOT
ATOM      1  C   UNL     1       3.518   2.161 -24.069  0.00  0.00    +0.042 C 
ATOM      2  C   UNL     1       3.020   1.799 -22.927  0.00  0.00    +0.069 C 
ATOM      3  C   UNL     1       2.832   1.345 -21.722  0.00  0.00    +0.035 C 
ATOM      4  C   UNL     1       1.573   1.493 -21.423  0.00  0.00    +0.007 C 
ATOM      5  C   UNL     1       0.980   2.040 -22.446  0.00  0.00    +0.002 C 
ATOM      6  C   UNL     1      -0.253   2.389 -22.651  0.00  0.00    +0.003 C 
ATOM      7  C   UNL     1      -1.149   2.200 -21.722  0.00  0.00    +0.078 C 
ATOM      8  C   UNL     1      -2.383   2.551 -21.933  0.00  0.00    +0.138 C 
ATOM      9  C   UNL     1      -2.727   3.091 -23.067  0.00  0.00    +0.068 C 
ATOM     10  C   UNL     1      -3.961   3.441 -23.274  0.00  0.00    +0.086 C 
ATOM     11  C   UNL     1      -4.306   3.981 -24.409  0.00  0.00    +0.134 C 
ATOM     12  C   UNL     1      -3.408   4.168 -25.335  0.00  0.00    +0.075 C 
ATOM     13  C   UNL     1      -2.173   3.817 -25.127  0.00  0.00    +0.015 C 
ATOM     14  O   UNL     1      -5.540   4.331 -24.617  0.00  0.00    -0.297 OA
ATOM     15  C   UNL     1      -1.830   3.278 -23.992  0.00  0.00    -0.019 C 
ATOM     16  C   UNL     1      -0.936   3.466 -24.919  0.00  0.00    +0.012 C 
ATOM     17  O   UNL     1      -3.279   2.363 -21.005  0.00  0.00    -0.297 OA
ATOM     18  C   UNL     1      -0.595   2.927 -23.784  0.00  0.00    -0.001 C 
ATOM     19  C   UNL     1       0.299   3.115 -24.710  0.00  0.00    +0.005 C 
ATOM     20  C   UNL     1       1.531   2.768 -24.508  0.00  0.00    +0.010 C 
ATOM     21  C   UNL     1       1.870   2.231 -23.377  0.00  0.00    -0.000 C 
ATOM     22  C   UNL     1       2.791   2.386 -24.238  0.00  0.00    +0.014 C 
ENDROOT
BRANCH   2  23
ATOM     23  O   UNL     1       4.247   1.439 -22.693  0.00  0.00    -0.388 OA
ATOM     24  H   UNL     1       4.256   0.543 -22.320  0.00  0.00    +0.210 HD
ENDBRANCH   2  23
TORSDOF 1
ENDMDL
MODEL 6
REMARK VINA RESULT:   -10.867      2.109      6.734
REMARK INTER + INTRA:         -11.185
REMARK INTER:                 -11.185
REMARK INTRA:                   0.000
REMARK UNBOUND:                 0.000
REMARK  Name = C[C@]1(O)CC[C@H]2[C@@H]3CC(=O)[C@H]4CC(=O)CC[C@]4(C)[C@H]3CC[C@@]21C ZINC000118913918
REMARK  4 active torsions:
REMARK  status: ('A' for Active; 'I' for Inactive)
REMARK    1  A    between atoms: C_1  and  C_2
REMARK    2  A    between atoms: C_2  and  O_3
REMARK    3  A    between atoms: C_17  and  C_18
REMARK    4  A    between atoms: C_22  and  C_23
REMARK                            x       y       z     vdW  Elec       q    Type
REMARK                         _______ _______ _______ _____ _____    ______ ____
ROOT
ATOM      1  C   UNL     1       4.633   0.753 -22.110  0.00  0.00    +0.042 C 
ATOM      2  C   UNL     1       4.609   1.891 -22.732  0.00  0.00    +0.069 C 
ATOM      3  C   UNL     1       4.910   2.974 -23.389  0.00  0.00    +0.035 C 
ATOM      4  C   UNL     1       3.818   3.665 -23.554  0.00  0.00    +0.007 C 
ATOM      5  C   UNL     1       2.841   3.008 -22.999  0.00  0.00    +0.002 C 
ATOM      6  C   UNL     1       1.572   3.264 -22.890  0.00  0.00    +0.003 C 
ATOM      7  C   UNL     1       1.082   4.361 -23.398  0.00  0.00    +0.078 C 
ATOM      8  C   UNL     1      -0.188   4.614 -23.287  0.00  0.00    +0.138 C 
ATOM      9  C   UNL     1      -0.972   3.776 -22.670  0.00  0.00    +0.068 C 
ATOM     10  C   UNL     1      -2.241   4.031 -22.560  0.00  0.00    +0.086 C 
ATOM     11  C   UNL     1      -3.026   3.193 -21.943  0.00  0.00    +0.134 C 
ATOM     12  C   UNL     1      -2.533   2.098 -21.437  0.00  0.00    +0.075 C 
ATOM     13  C   UNL     1      -1.262   1.843 -21.547  0.00  0.00    +0.015 C 
ATOM     14  O   UNL     1      -4.296   3.448 -21.833  0.00  0.00    -0.297 OA
ATOM     15  C   UNL     1      -0.479   2.682 -22.164  0.00  0.00    -0.019 C 
ATOM     16  C   UNL     1       0.011   1.588 -21.658  0.00  0.00    +0.012 C 
ATOM     17  O   UNL     1      -0.680   5.709 -23.793  0.00  0.00    -0.297 OA
ATOM     18  C   UNL     1       0.792   2.427 -22.275  0.00  0.00    -0.001 C 
ATOM     19  C   UNL     1       1.282   1.334 -21.768  0.00  0.00    +0.005 C 
ATOM     20  C   UNL     1       2.547   1.075 -21.875  0.00  0.00    +0.010 C 
ATOM     21  C   UNL     1       3.325   1.911 -22.490  0.00  0.00    -0.000 C 
ATOM     22  C   UNL     1       3.866   0.864 -22.019  0.00  0.00    +0.014 C 
ENDROOT
BRANCH   2  23
ATOM     23  O   UNL     1       5.883   1.661 -22.857  0.00  0.00    -0.388 OA
ATOM     24  H   UNL     1       6.037   1.103 -23.636  0.00  0.00    +0.210 HD
ENDBRANCH   2  23
TORSDOF 1
ENDMDL
MODEL 7
REMARK VINA RESULT:   -10.333      2.007      6.467
REMARK INTER + INTRA:         -10.635
REMARK INTER:                 -10.635
REMARK INTRA:                   0.000
REMARK UNBOUND:                 0.000
REMARK  Name = C[C@]1(O)CC[C@H]2[C@@H]3CC(=O)[C@H]4CC(=O)CC[C@]4(C)[C@H]3CC[C@@]21C ZINC000118913918
REMARK  4 active torsions:
REMARK  status: ('A' for Active; 'I' for Inactive)
REMARK    1  A    between atoms: C_1  and  C_2
REMARK    2  A    between atoms: C_2  and  O_3
REMARK    3  A    between atoms: C_17  and  C_18
REMARK    4  A    between atoms: C_22  and  C_23
REMARK                            x       y       z     vdW  Elec       q    Type
REMARK                         _______ _______ _______ _____ _____    ______ ____
ROOT
ATOM      1  C   UNL     1       5.551   3.655 -23.122  0.00  0.00    +0.042 C 
ATOM      2  C   UNL     1       5.146   2.656 -22.399  0.00  0.00    +0.069 C 
ATOM      3  C   UNL     1       5.065   1.608 -21.633  0.00  0.00    +0.035 C 
ATOM      4  C   UNL     1       3.804   1.331 -21.455  0.00  0.00    +0.007 C 
ATOM      5  C   UNL     1       3.105   2.211 -22.113  0.00  0.00    +0.002 C 
ATOM      6  C   UNL     1       1.824   2.372 -22.257  0.00  0.00    +0.003 C 
ATOM      7  C   UNL     1       0.994   1.553 -21.674  0.00  0.00    +0.078 C 
ATOM      8  C   UNL     1      -0.288   1.718 -21.821  0.00  0.00    +0.138 C 
ATOM      9  C   UNL     1      -0.743   2.698 -22.548  0.00  0.00    +0.068 C 
ATOM     10  C   UNL     1      -2.024   2.861 -22.693  0.00  0.00    +0.086 C 
ATOM     11  C   UNL     1      -2.481   3.842 -23.420  0.00  0.00    +0.134 C 
ATOM     12  C   UNL     1      -1.648   4.658 -24.001  0.00  0.00    +0.075 C 
ATOM     13  C   UNL     1      -0.366   4.495 -23.856  0.00  0.00    +0.015 C 
ATOM     14  O   UNL     1      -3.762   4.005 -23.565  0.00  0.00    -0.297 OA
ATOM     15  C   UNL     1       0.089   3.514 -23.129  0.00  0.00    -0.019 C 
ATOM     16  C   UNL     1       0.918   4.331 -23.710  0.00  0.00    +0.012 C 
ATOM     17  O   UNL     1      -1.119   0.901 -21.239  0.00  0.00    -0.297 OA
ATOM     18  C   UNL     1       1.372   3.350 -22.983  0.00  0.00    -0.001 C 
ATOM     19  C   UNL     1       2.201   4.167 -23.564  0.00  0.00    +0.005 C 
ATOM     20  C   UNL     1       3.480   4.009 -23.423  0.00  0.00    +0.010 C 
ATOM     21  C   UNL     1       3.930   3.031 -22.698  0.00  0.00    -0.000 C 
ATOM     22  C   UNL     1       4.792   3.792 -23.237  0.00  0.00    +0.014 C 
ENDROOT
BRANCH   2  23
ATOM     23  O   UNL     1       6.423   2.470 -22.237  0.00  0.00    -0.388 OA
ATOM     24  H   UNL     1       6.898   3.292 -22.439  0.00  0.00    +0.210 HD
ENDBRANCH   2  23
TORSDOF 1
ENDMDL
