MODEL 1
REMARK VINA RESULT:   -10.089      0.000      0.000
REMARK INTER + INTRA:         -10.089
REMARK INTER:                 -10.089
REMARK INTRA:                   0.000
REMARK UNBOUND:                 0.000
REMARK  Name = ZINC000003897051
REMARK  1 active torsions:
REMARK  status: ('A' for Active; 'I' for Inactive)
REMARK    1  A    between atoms: C_8  and  C_9
REMARK                            x       y       z     vdW  Elec       q    Type
REMARK                         _______ _______ _______ _____ _____    ______ ____
ROOT
ATOM      1  C   UNL     1       0.468   1.507 -21.131  0.00  0.00    +0.020 C 
ATOM      2  C   UNL     1       0.129   2.038 -22.268  0.00  0.00    +0.036 C 
ATOM      3  C   UNL     1       0.921   2.258 -23.275  0.00  0.00    +0.335 C 
ATOM      4  O   UNL     1       0.220   2.797 -24.227  0.00  0.00    -0.457 OA
ATOM      5  C   UNL     1      -1.005   2.911 -23.809  0.00  0.00    +0.185 C 
ATOM      6  C   UNL     1      -2.077   3.381 -24.374  0.00  0.00    +0.052 C 
ATOM      7  C   UNL     1      -3.206   3.383 -23.729  0.00  0.00    -0.022 C 
ATOM      8  C   UNL     1      -4.277   3.853 -24.295  0.00  0.00    +0.007 C 
ATOM      9  C   UNL     1      -5.405   3.854 -23.649  0.00  0.00    +0.005 C 
ATOM     10  C   UNL     1      -5.462   3.384 -22.438  0.00  0.00    +0.030 C 
ATOM     11  C   UNL     1      -4.390   2.914 -21.872  0.00  0.00    -0.073 C 
ATOM     12  C   UNL     1      -4.447   2.444 -20.661  0.00  0.00    +0.008 C 
ATOM     13  C   UNL     1      -3.149   3.852 -24.940  0.00  0.00    +0.012 C 
ATOM     14  C   UNL     1      -3.261   2.913 -22.517  0.00  0.00    +0.021 C 
ATOM     15  C   UNL     1      -2.190   2.442 -21.952  0.00  0.00    +0.020 C 
ATOM     16  O   UNL     1       2.192   1.985 -23.321  0.00  0.00    -0.245 OA
ATOM     17  C   UNL     1      -1.062   2.442 -22.598  0.00  0.00    +0.067 C 
ENDROOT
TORSDOF 0
ENDMDL
MODEL 2
REMARK VINA RESULT:   -10.019      0.967      2.532
REMARK INTER + INTRA:         -10.019
REMARK INTER:                 -10.019
REMARK INTRA:                   0.000
REMARK UNBOUND:                 0.000
REMARK  Name = ZINC000003897051
REMARK  1 active torsions:
REMARK  status: ('A' for Active; 'I' for Inactive)
REMARK    1  A    between atoms: C_8  and  C_9
REMARK                            x       y       z     vdW  Elec       q    Type
REMARK                         _______ _______ _______ _____ _____    ______ ____
ROOT
ATOM      1  C   UNL     1       0.549   3.374 -25.136  0.00  0.00    +0.020 C 
ATOM      2  C   UNL     1       0.132   3.042 -23.950  0.00  0.00    +0.036 C 
ATOM      3  C   UNL     1       0.871   2.603 -22.976  0.00  0.00    +0.335 C 
ATOM      4  O   UNL     1       0.098   2.381 -21.954  0.00  0.00    -0.457 OA
ATOM      5  C   UNL     1      -1.119   2.685 -22.298  0.00  0.00    +0.185 C 
ATOM      6  C   UNL     1      -2.243   2.641 -21.647  0.00  0.00    +0.052 C 
ATOM      7  C   UNL     1      -3.347   3.006 -22.229  0.00  0.00    -0.022 C 
ATOM      8  C   UNL     1      -4.471   2.963 -21.578  0.00  0.00    +0.007 C 
ATOM      9  C   UNL     1      -5.573   3.328 -22.161  0.00  0.00    +0.005 C 
ATOM     10  C   UNL     1      -5.552   3.737 -23.395  0.00  0.00    +0.030 C 
ATOM     11  C   UNL     1      -4.428   3.780 -24.047  0.00  0.00    -0.073 C 
ATOM     12  C   UNL     1      -4.407   4.189 -25.281  0.00  0.00    +0.008 C 
ATOM     13  C   UNL     1      -3.368   2.598 -20.995  0.00  0.00    +0.012 C 
ATOM     14  C   UNL     1      -3.325   3.415 -23.464  0.00  0.00    +0.021 C 
ATOM     15  C   UNL     1      -2.201   3.458 -24.115  0.00  0.00    +0.020 C 
ATOM     16  O   UNL     1       2.157   2.417 -23.015  0.00  0.00    -0.245 OA
ATOM     17  C   UNL     1      -1.098   3.093 -23.532  0.00  0.00    +0.067 C 
ENDROOT
TORSDOF 0
ENDMDL
MODEL 3
REMARK VINA RESULT:    -9.583      2.226      5.293
REMARK INTER + INTRA:          -9.583
REMARK INTER:                  -9.583
REMARK INTRA:                   0.000
REMARK UNBOUND:                 0.000
REMARK  Name = ZINC000003897051
REMARK  1 active torsions:
REMARK  status: ('A' for Active; 'I' for Inactive)
REMARK    1  A    between atoms: C_8  and  C_9
REMARK                            x       y       z     vdW  Elec       q    Type
REMARK                         _______ _______ _______ _____ _____    ______ ____
ROOT
ATOM      1  C   UNL     1      -4.672   4.239 -24.401  0.00  0.00    +0.020 C 
ATOM      2  C   UNL     1      -4.214   3.588 -23.374  0.00  0.00    +0.036 C 
ATOM      3  C   UNL     1      -4.906   3.201 -22.344  0.00  0.00    +0.335 C 
ATOM      4  O   UNL     1      -4.102   2.583 -21.530  0.00  0.00    -0.457 OA
ATOM      5  C   UNL     1      -2.914   2.588 -22.058  0.00  0.00    +0.185 C 
ATOM      6  C   UNL     1      -1.779   2.108 -21.647  0.00  0.00    +0.052 C 
ATOM      7  C   UNL     1      -0.711   2.248 -22.376  0.00  0.00    -0.022 C 
ATOM      8  C   UNL     1       0.425   1.767 -21.965  0.00  0.00    +0.007 C 
ATOM      9  C   UNL     1       1.491   1.908 -22.695  0.00  0.00    +0.005 C 
ATOM     10  C   UNL     1       1.422   2.529 -23.834  0.00  0.00    +0.030 C 
ATOM     11  C   UNL     1       0.287   3.010 -24.246  0.00  0.00    -0.073 C 
ATOM     12  C   UNL     1       0.218   3.631 -25.386  0.00  0.00    +0.008 C 
ATOM     13  C   UNL     1      -0.642   1.627 -21.236  0.00  0.00    +0.012 C 
ATOM     14  C   UNL     1      -0.781   2.870 -23.516  0.00  0.00    +0.021 C 
ATOM     15  C   UNL     1      -1.917   3.350 -23.927  0.00  0.00    +0.020 C 
ATOM     16  O   UNL     1      -6.178   3.397 -22.160  0.00  0.00    -0.245 OA
ATOM     17  C   UNL     1      -2.983   3.209 -23.198  0.00  0.00    +0.067 C 
ENDROOT
TORSDOF 0
ENDMDL
MODEL 4
REMARK VINA RESULT:    -9.012      1.579      3.103
REMARK INTER + INTRA:          -9.012
REMARK INTER:                  -9.012
REMARK INTRA:                   0.000
REMARK UNBOUND:                 0.000
REMARK  Name = ZINC000003897051
REMARK  1 active torsions:
REMARK  status: ('A' for Active; 'I' for Inactive)
REMARK    1  A    between atoms: C_8  and  C_9
REMARK                            x       y       z     vdW  Elec       q    Type
REMARK                         _______ _______ _______ _____ _____    ______ ____
ROOT
ATOM      1  C   UNL     1       2.727   1.858 -23.038  0.00  0.00    +0.020 C 
ATOM      2  C   UNL     1       1.728   1.753 -22.213  0.00  0.00    +0.036 C 
ATOM      3  C   UNL     1       1.781   1.274 -21.006  0.00  0.00    +0.335 C 
ATOM      4  O   UNL     1       0.586   1.335 -20.497  0.00  0.00    -0.457 OA
ATOM      5  C   UNL     1      -0.205   1.851 -21.390  0.00  0.00    +0.185 C 
ATOM      6  C   UNL     1      -1.476   2.120 -21.374  0.00  0.00    +0.052 C 
ATOM      7  C   UNL     1      -2.044   2.647 -22.419  0.00  0.00    -0.022 C 
ATOM      8  C   UNL     1      -3.315   2.915 -22.403  0.00  0.00    +0.007 C 
ATOM      9  C   UNL     1      -3.881   3.442 -23.448  0.00  0.00    +0.005 C 
ATOM     10  C   UNL     1      -3.175   3.701 -24.508  0.00  0.00    +0.030 C 
ATOM     11  C   UNL     1      -1.903   3.433 -24.525  0.00  0.00    -0.073 C 
ATOM     12  C   UNL     1      -1.197   3.692 -25.586  0.00  0.00    +0.008 C 
ATOM     13  C   UNL     1      -2.749   2.388 -21.358  0.00  0.00    +0.012 C 
ATOM     14  C   UNL     1      -1.337   2.906 -23.480  0.00  0.00    +0.021 C 
ATOM     15  C   UNL     1      -0.065   2.637 -23.496  0.00  0.00    +0.020 C 
ATOM     16  O   UNL     1       2.842   0.815 -20.412  0.00  0.00    -0.245 OA
ATOM     17  C   UNL     1       0.501   2.110 -22.451  0.00  0.00    +0.067 C 
ENDROOT
TORSDOF 0
ENDMDL
MODEL 5
REMARK VINA RESULT:    -8.999      2.020      4.772
REMARK INTER + INTRA:          -8.999
REMARK INTER:                  -8.999
REMARK INTRA:                   0.000
REMARK UNBOUND:                 0.000
REMARK  Name = ZINC000003897051
REMARK  1 active torsions:
REMARK  status: ('A' for Active; 'I' for Inactive)
REMARK    1  A    between atoms: C_8  and  C_9
REMARK                            x       y       z     vdW  Elec       q    Type
REMARK                         _______ _______ _______ _____ _____    ______ ____
ROOT
ATOM      1  C   UNL     1      -3.824   2.438 -21.217  0.00  0.00    +0.020 C 
ATOM      2  C   UNL     1      -3.447   2.932 -22.359  0.00  0.00    +0.036 C 
ATOM      3  C   UNL     1      -4.212   3.531 -23.222  0.00  0.00    +0.335 C 
ATOM      4  O   UNL     1      -3.475   3.883 -24.234  0.00  0.00    -0.457 OA
ATOM      5  C   UNL     1      -2.256   3.502 -23.996  0.00  0.00    +0.185 C 
ATOM      6  C   UNL     1      -1.159   3.614 -24.685  0.00  0.00    +0.052 C 
ATOM      7  C   UNL     1      -0.044   3.138 -24.215  0.00  0.00    -0.022 C 
ATOM      8  C   UNL     1       1.052   3.251 -24.904  0.00  0.00    +0.007 C 
ATOM      9  C   UNL     1       2.167   2.775 -24.433  0.00  0.00    +0.005 C 
ATOM     10  C   UNL     1       2.184   2.187 -23.274  0.00  0.00    +0.030 C 
ATOM     11  C   UNL     1       1.088   2.074 -22.584  0.00  0.00    -0.073 C 
ATOM     12  C   UNL     1       1.106   1.486 -21.425  0.00  0.00    +0.008 C 
ATOM     13  C   UNL     1      -0.062   3.726 -25.374  0.00  0.00    +0.012 C 
ATOM     14  C   UNL     1      -0.027   2.550 -23.055  0.00  0.00    +0.021 C 
ATOM     15  C   UNL     1      -1.124   2.438 -22.366  0.00  0.00    +0.020 C 
ATOM     16  O   UNL     1      -5.488   3.741 -23.096  0.00  0.00    -0.245 OA
ATOM     17  C   UNL     1      -2.238   2.914 -22.836  0.00  0.00    +0.067 C 
ENDROOT
TORSDOF 0
ENDMDL
MODEL 6
REMARK VINA RESULT:    -8.795      1.070      1.363
REMARK INTER + INTRA:          -8.795
REMARK INTER:                  -8.795
REMARK INTRA:                   0.000
REMARK UNBOUND:                 0.000
REMARK  Name = ZINC000003897051
REMARK  1 active torsions:
REMARK  status: ('A' for Active; 'I' for Inactive)
REMARK    1  A    between atoms: C_8  and  C_9
REMARK                            x       y       z     vdW  Elec       q    Type
REMARK                         _______ _______ _______ _____ _____    ______ ____
ROOT
ATOM      1  C   UNL     1       1.878   1.882 -21.928  0.00  0.00    +0.020 C 
ATOM      2  C   UNL     1       1.391   2.243 -23.078  0.00  0.00    +0.036 C 
ATOM      3  C   UNL     1       2.053   2.340 -24.192  0.00  0.00    +0.335 C 
ATOM      4  O   UNL     1       1.227   2.727 -25.118  0.00  0.00    -0.457 OA
ATOM      5  C   UNL     1       0.054   2.869 -24.576  0.00  0.00    +0.185 C 
ATOM      6  C   UNL     1      -1.093   3.232 -25.067  0.00  0.00    +0.052 C 
ATOM      7  C   UNL     1      -2.140   3.295 -24.299  0.00  0.00    -0.022 C 
ATOM      8  C   UNL     1      -3.287   3.658 -24.791  0.00  0.00    +0.007 C 
ATOM      9  C   UNL     1      -4.333   3.722 -24.022  0.00  0.00    +0.005 C 
ATOM     10  C   UNL     1      -4.232   3.422 -22.761  0.00  0.00    +0.030 C 
ATOM     11  C   UNL     1      -3.085   3.059 -22.268  0.00  0.00    -0.073 C 
ATOM     12  C   UNL     1      -2.983   2.759 -21.007  0.00  0.00    +0.008 C 
ATOM     13  C   UNL     1      -2.241   3.595 -25.560  0.00  0.00    +0.012 C 
ATOM     14  C   UNL     1      -2.038   2.995 -23.037  0.00  0.00    +0.021 C 
ATOM     15  C   UNL     1      -0.891   2.633 -22.546  0.00  0.00    +0.020 C 
ATOM     16  O   UNL     1       3.320   2.094 -24.352  0.00  0.00    -0.245 OA
ATOM     17  C   UNL     1       0.155   2.569 -23.315  0.00  0.00    +0.067 C 
ENDROOT
TORSDOF 0
ENDMDL
MODEL 7
REMARK VINA RESULT:    -8.633      2.093      3.805
REMARK INTER + INTRA:          -8.633
REMARK INTER:                  -8.633
REMARK INTRA:                   0.000
REMARK UNBOUND:                 0.000
REMARK  Name = ZINC000003897051
REMARK  1 active torsions:
REMARK  status: ('A' for Active; 'I' for Inactive)
REMARK    1  A    between atoms: C_8  and  C_9
REMARK                            x       y       z     vdW  Elec       q    Type
REMARK                         _______ _______ _______ _____ _____    ______ ____
ROOT
ATOM      1  C   UNL     1       3.927   3.232 -23.607  0.00  0.00    +0.020 C 
ATOM      2  C   UNL     1       3.202   2.370 -22.960  0.00  0.00    +0.036 C 
ATOM      3  C   UNL     1       3.618   1.246 -22.456  0.00  0.00    +0.335 C 
ATOM      4  O   UNL     1       2.605   0.662 -21.887  0.00  0.00    -0.457 OA
ATOM      5  C   UNL     1       1.563   1.424 -22.041  0.00  0.00    +0.185 C 
ATOM      6  C   UNL     1       0.327   1.293 -21.663  0.00  0.00    +0.052 C 
ATOM      7  C   UNL     1      -0.542   2.217 -21.947  0.00  0.00    -0.022 C 
ATOM      8  C   UNL     1      -1.779   2.086 -21.569  0.00  0.00    +0.007 C 
ATOM      9  C   UNL     1      -2.647   3.011 -21.854  0.00  0.00    +0.005 C 
ATOM     10  C   UNL     1      -2.278   4.067 -22.517  0.00  0.00    +0.030 C 
ATOM     11  C   UNL     1      -1.041   4.198 -22.896  0.00  0.00    -0.073 C 
ATOM     12  C   UNL     1      -0.673   5.254 -23.559  0.00  0.00    +0.008 C 
ATOM     13  C   UNL     1      -0.911   1.162 -21.284  0.00  0.00    +0.012 C 
ATOM     14  C   UNL     1      -0.172   3.273 -22.611  0.00  0.00    +0.021 C 
ATOM     15  C   UNL     1       1.064   3.404 -22.989  0.00  0.00    +0.020 C 
ATOM     16  O   UNL     1       4.833   0.788 -22.509  0.00  0.00    -0.245 OA
ATOM     17  C   UNL     1       1.932   2.480 -22.704  0.00  0.00    +0.067 C 
ENDROOT
TORSDOF 0
ENDMDL
MODEL 8
REMARK VINA RESULT:    -7.993      2.744      6.241
REMARK INTER + INTRA:          -7.993
REMARK INTER:                  -7.993
REMARK INTRA:                   0.000
REMARK UNBOUND:                 0.000
REMARK  Name = ZINC000003897051
REMARK  1 active torsions:
REMARK  status: ('A' for Active; 'I' for Inactive)
REMARK    1  A    between atoms: C_8  and  C_9
REMARK                            x       y       z     vdW  Elec       q    Type
REMARK                         _______ _______ _______ _____ _____    ______ ____
ROOT
ATOM      1  C   UNL     1      -1.447   5.057 -22.945  0.00  0.00    +0.020 C 
ATOM      2  C   UNL     1      -0.856   3.929 -23.205  0.00  0.00    +0.036 C 
ATOM      3  C   UNL     1      -1.445   2.796 -23.445  0.00  0.00    +0.335 C 
ATOM      4  O   UNL     1      -0.525   1.903 -23.659  0.00  0.00    -0.457 OA
ATOM      5  C   UNL     1       0.633   2.485 -23.551  0.00  0.00    +0.185 C 
ATOM      6  C   UNL     1       1.846   2.036 -23.671  0.00  0.00    +0.052 C 
ATOM      7  C   UNL     1       2.856   2.839 -23.511  0.00  0.00    -0.022 C 
ATOM      8  C   UNL     1       4.070   2.390 -23.632  0.00  0.00    +0.007 C 
ATOM      9  C   UNL     1       5.079   3.193 -23.472  0.00  0.00    +0.005 C 
ATOM     10  C   UNL     1       4.874   4.446 -23.192  0.00  0.00    +0.030 C 
ATOM     11  C   UNL     1       3.660   4.896 -23.071  0.00  0.00    -0.073 C 
ATOM     12  C   UNL     1       3.456   6.149 -22.790  0.00  0.00    +0.008 C 
ATOM     13  C   UNL     1       3.061   1.586 -23.792  0.00  0.00    +0.012 C 
ATOM     14  C   UNL     1       2.650   4.092 -23.231  0.00  0.00    +0.021 C 
ATOM     15  C   UNL     1       1.437   4.541 -23.110  0.00  0.00    +0.020 C 
ATOM     16  O   UNL     1      -2.728   2.591 -23.468  0.00  0.00    -0.245 OA
ATOM     17  C   UNL     1       0.428   3.737 -23.270  0.00  0.00    +0.067 C 
ENDROOT
TORSDOF 0
ENDMDL
MODEL 9
REMARK VINA RESULT:    -7.671      2.741      6.259
REMARK INTER + INTRA:          -7.671
REMARK INTER:                  -7.671
REMARK INTRA:                   0.000
REMARK UNBOUND:                 0.000
REMARK  Name = ZINC000003897051
REMARK  1 active torsions:
REMARK  status: ('A' for Active; 'I' for Inactive)
REMARK    1  A    between atoms: C_8  and  C_9
REMARK                            x       y       z     vdW  Elec       q    Type
REMARK                         _______ _______ _______ _____ _____    ______ ____
ROOT
ATOM      1  C   UNL     1      -1.187   1.575 -21.807  0.00  0.00    +0.020 C 
ATOM      2  C   UNL     1      -0.512   2.511 -22.404  0.00  0.00    +0.036 C 
ATOM      3  C   UNL     1      -1.012   3.500 -23.082  0.00  0.00    +0.335 C 
ATOM      4  O   UNL     1      -0.026   4.222 -23.526  0.00  0.00    -0.457 OA
ATOM      5  C   UNL     1       1.083   3.679 -23.122  0.00  0.00    +0.185 C 
ATOM      6  C   UNL     1       2.328   4.011 -23.296  0.00  0.00    +0.052 C 
ATOM      7  C   UNL     1       3.274   3.286 -22.777  0.00  0.00    -0.022 C 
ATOM      8  C   UNL     1       4.518   3.618 -22.951  0.00  0.00    +0.007 C 
ATOM      9  C   UNL     1       5.463   2.892 -22.432  0.00  0.00    +0.005 C 
ATOM     10  C   UNL     1       5.163   1.833 -21.739  0.00  0.00    +0.030 C 
ATOM     11  C   UNL     1       3.919   1.501 -21.564  0.00  0.00    -0.073 C 
ATOM     12  C   UNL     1       3.619   0.443 -20.871  0.00  0.00    +0.008 C 
ATOM     13  C   UNL     1       3.573   4.344 -23.470  0.00  0.00    +0.012 C 
ATOM     14  C   UNL     1       2.973   2.227 -22.083  0.00  0.00    +0.021 C 
ATOM     15  C   UNL     1       1.728   1.895 -21.909  0.00  0.00    +0.020 C 
ATOM     16  O   UNL     1      -2.276   3.728 -23.282  0.00  0.00    -0.245 OA
ATOM     17  C   UNL     1       0.784   2.621 -22.429  0.00  0.00    +0.067 C 
ENDROOT
TORSDOF 0
ENDMDL
