MODEL 1
REMARK VINA RESULT:    -7.167      0.000      0.000
REMARK INTER + INTRA:          -7.755
REMARK INTER:                  -9.491
REMARK INTRA:                   1.735
REMARK UNBOUND:                 1.507
REMARK  Name = ZINC000003201463
REMARK  9 active torsions:
REMARK  status: ('A' for Active; 'I' for Inactive)
REMARK    1  A    between atoms: C_1  and  C_2
REMARK    2  A    between atoms: C_2  and  C_3
REMARK    3  A    between atoms: C_2  and  C_4
REMARK    4  A    between atoms: C_4  and  C_5
REMARK    5  A    between atoms: C_5  and  C_6
REMARK    6  A    between atoms: C_5  and  N_9
REMARK    7  A    between atoms: N_9  and  C_10
REMARK    8  A    between atoms: N_9  and  C_11
REMARK    9  A    between atoms: C_11  and  C_12
REMARK                            x       y       z     vdW  Elec       q    Type
REMARK                         _______ _______ _______ _____ _____    ______ ____
ROOT
ATOM      1  N   UNL     1      -1.472   3.168 -23.469  0.00  0.00    +0.243 N 
ATOM      2  H   UNL     1      -0.634   2.641 -23.715  0.00  0.00    +0.204 HD
ATOM      3  C   UNL     1      -1.816   2.346 -24.416  0.00  0.00    +0.191 C 
ENDROOT
BRANCH   1   4
ATOM      4  C   UNL     1      -0.247   3.184 -23.035  0.00  0.00    +0.111 C 
BRANCH   4   5
ATOM      5  C   UNL     1       0.256   2.127 -22.470  0.00  0.00    +0.089 C 
ATOM      6  O   UNL     1      -0.023   1.858 -21.229  0.00  0.00    -0.544 OA
ATOM      7  O   UNL     1       1.038   1.338 -23.146  0.00  0.00    -0.544 OA
ENDBRANCH   4   5
BRANCH   4   8
ATOM      8  C   UNL     1       0.476   4.257 -23.165  0.00  0.00    +0.063 C 
BRANCH   8  10
ATOM      9  C   UNL     1       2.676   4.411 -23.617  0.00  0.00    +0.007 C 
ATOM     10  C   UNL     1       1.449   4.285 -24.026  0.00  0.00    -0.012 C 
ATOM     11  C   UNL     1       1.194   4.187 -25.297  0.00  0.00    +0.007 C 
ENDBRANCH   8  10
ENDBRANCH   4   8
ENDBRANCH   1   4
BRANCH   1  12
ATOM     12  C   UNL     1      -2.354   3.974 -22.956  0.00  0.00    +0.168 C 
BRANCH  12  13
ATOM     13  C   UNL     1      -3.450   3.498 -22.446  0.00  0.00    -0.003 A 
ATOM     14  C   UNL     1      -4.597   3.779 -22.990  0.00  0.00    +0.009 A 
ATOM     15  C   UNL     1      -5.693   3.303 -22.479  0.00  0.00    +0.000 A 
ATOM     16  C   UNL     1      -5.643   2.546 -21.423  0.00  0.00    +0.000 A 
ATOM     17  C   UNL     1      -4.497   2.265 -20.878  0.00  0.00    +0.000 A 
ATOM     18  C   UNL     1      -3.400   2.742 -21.390  0.00  0.00    +0.009 A 
ENDBRANCH  12  13
ENDBRANCH   1  12
TORSDOF 6
ENDMDL
MODEL 2
REMARK VINA RESULT:    -7.150      1.775      2.479
REMARK INTER + INTRA:          -7.733
REMARK INTER:                  -9.794
REMARK INTRA:                   2.061
REMARK UNBOUND:                 1.507
REMARK  Name = ZINC000003201463
REMARK  9 active torsions:
REMARK  status: ('A' for Active; 'I' for Inactive)
REMARK    1  A    between atoms: C_1  and  C_2
REMARK    2  A    between atoms: C_2  and  C_3
REMARK    3  A    between atoms: C_2  and  C_4
REMARK    4  A    between atoms: C_4  and  C_5
REMARK    5  A    between atoms: C_5  and  C_6
REMARK    6  A    between atoms: C_5  and  N_9
REMARK    7  A    between atoms: N_9  and  C_10
REMARK    8  A    between atoms: N_9  and  C_11
REMARK    9  A    between atoms: C_11  and  C_12
REMARK                            x       y       z     vdW  Elec       q    Type
REMARK                         _______ _______ _______ _____ _____    ______ ____
ROOT
ATOM      1  N   UNL     1      -0.978   3.914 -23.601  0.00  0.00    +0.243 N 
ATOM      2  H   UNL     1      -0.038   4.236 -23.371  0.00  0.00    +0.204 HD
ATOM      3  C   UNL     1      -1.118   4.903 -22.768  0.00  0.00    +0.191 C 
ENDROOT
BRANCH   1   4
ATOM      4  C   UNL     1       0.210   3.535 -23.966  0.00  0.00    +0.111 C 
BRANCH   4   5
ATOM      5  C   UNL     1       0.972   4.346 -24.639  0.00  0.00    +0.089 C 
ATOM      6  O   UNL     1       1.581   5.321 -24.031  0.00  0.00    -0.544 OA
ATOM      7  O   UNL     1       1.126   4.182 -25.919  0.00  0.00    -0.544 OA
ENDBRANCH   4   5
BRANCH   4   8
ATOM      8  C   UNL     1       0.637   2.346 -23.660  0.00  0.00    +0.063 C 
BRANCH   8  10
ATOM      9  C   UNL     1       2.446   2.386 -22.321  0.00  0.00    +0.007 C 
ATOM     10  C   UNL     1       1.184   2.131 -22.501  0.00  0.00    -0.012 C 
ATOM     11  C   UNL     1       0.470   1.660 -21.522  0.00  0.00    +0.007 C 
ENDBRANCH   8  10
ENDBRANCH   4   8
ENDBRANCH   1   4
BRANCH   1  12
ATOM     12  C   UNL     1      -2.028   3.305 -24.068  0.00  0.00    +0.168 C 
BRANCH  12  13
ATOM     13  C   UNL     1      -3.116   3.248 -23.359  0.00  0.00    -0.003 A 
ATOM     14  C   UNL     1      -4.225   3.735 -23.831  0.00  0.00    +0.009 A 
ATOM     15  C   UNL     1      -5.313   3.679 -23.122  0.00  0.00    +0.000 A 
ATOM     16  C   UNL     1      -5.292   3.134 -21.942  0.00  0.00    +0.000 A 
ATOM     17  C   UNL     1      -4.183   2.647 -21.470  0.00  0.00    +0.000 A 
ATOM     18  C   UNL     1      -3.095   2.704 -22.179  0.00  0.00    +0.009 A 
ENDBRANCH  12  13
ENDBRANCH   1  12
TORSDOF 6
ENDMDL
MODEL 3
REMARK VINA RESULT:    -7.121      2.294      3.083
REMARK INTER + INTRA:          -7.695
REMARK INTER:                  -9.202
REMARK INTRA:                   1.507
REMARK UNBOUND:                 1.507
REMARK  Name = ZINC000003201463
REMARK  9 active torsions:
REMARK  status: ('A' for Active; 'I' for Inactive)
REMARK    1  A    between atoms: C_1  and  C_2
REMARK    2  A    between atoms: C_2  and  C_3
REMARK    3  A    between atoms: C_2  and  C_4
REMARK    4  A    between atoms: C_4  and  C_5
REMARK    5  A    between atoms: C_5  and  C_6
REMARK    6  A    between atoms: C_5  and  N_9
REMARK    7  A    between atoms: N_9  and  C_10
REMARK    8  A    between atoms: N_9  and  C_11
REMARK    9  A    between atoms: C_11  and  C_12
REMARK                            x       y       z     vdW  Elec       q    Type
REMARK                         _______ _______ _______ _____ _____    ______ ____
ROOT
ATOM      1  N   UNL     1       0.072   2.887 -23.437  0.00  0.00    +0.243 N 
ATOM      2  H   UNL     1       0.770   2.161 -23.273  0.00  0.00    +0.204 HD
ATOM      3  C   UNL     1      -0.552   1.891 -22.879  0.00  0.00    +0.191 C 
ENDROOT
BRANCH   1   4
ATOM      4  C   UNL     1       1.348   2.804 -23.671  0.00  0.00    +0.111 C 
BRANCH   4   5
ATOM      5  C   UNL     1       1.772   2.318 -24.800  0.00  0.00    +0.089 C 
ATOM      6  O   UNL     1       2.302   1.131 -24.838  0.00  0.00    -0.544 OA
ATOM      7  O   UNL     1       1.665   3.018 -25.890  0.00  0.00    -0.544 OA
ENDBRANCH   4   5
BRANCH   4   8
ATOM      8  C   UNL     1       2.201   3.208 -22.777  0.00  0.00    +0.063 C 
BRANCH   8  10
ATOM      9  C   UNL     1       4.297   3.864 -23.273  0.00  0.00    +0.007 C 
ATOM     10  C   UNL     1       3.046   4.153 -23.064  0.00  0.00    -0.012 C 
ATOM     11  C   UNL     1       2.641   5.385 -23.143  0.00  0.00    +0.007 C 
ENDBRANCH   8  10
ENDBRANCH   4   8
ENDBRANCH   1   4
BRANCH   1  12
ATOM     12  C   UNL     1      -0.581   3.963 -23.761  0.00  0.00    +0.168 C 
BRANCH  12  13
ATOM     13  C   UNL     1      -1.707   3.872 -24.403  0.00  0.00    -0.003 A 
ATOM     14  C   UNL     1      -1.717   3.517 -25.653  0.00  0.00    +0.009 A 
ATOM     15  C   UNL     1      -2.844   3.426 -26.295  0.00  0.00    +0.000 A 
ATOM     16  C   UNL     1      -3.961   3.691 -25.686  0.00  0.00    +0.000 A 
ATOM     17  C   UNL     1      -3.952   4.046 -24.435  0.00  0.00    +0.000 A 
ATOM     18  C   UNL     1      -2.825   4.137 -23.794  0.00  0.00    +0.009 A 
ENDBRANCH  12  13
ENDBRANCH   1  12
TORSDOF 6
ENDMDL
MODEL 4
REMARK VINA RESULT:    -7.006      2.290      5.570
REMARK INTER + INTRA:          -7.547
REMARK INTER:                  -9.232
REMARK INTRA:                   1.685
REMARK UNBOUND:                 1.507
REMARK  Name = ZINC000003201463
REMARK  9 active torsions:
REMARK  status: ('A' for Active; 'I' for Inactive)
REMARK    1  A    between atoms: C_1  and  C_2
REMARK    2  A    between atoms: C_2  and  C_3
REMARK    3  A    between atoms: C_2  and  C_4
REMARK    4  A    between atoms: C_4  and  C_5
REMARK    5  A    between atoms: C_5  and  C_6
REMARK    6  A    between atoms: C_5  and  N_9
REMARK    7  A    between atoms: N_9  and  C_10
REMARK    8  A    between atoms: N_9  and  C_11
REMARK    9  A    between atoms: C_11  and  C_12
REMARK                            x       y       z     vdW  Elec       q    Type
REMARK                         _______ _______ _______ _____ _____    ______ ____
ROOT
ATOM      1  N   UNL     1      -1.097   3.734 -23.432  0.00  0.00    +0.243 N 
ATOM      2  H   UNL     1      -1.972   4.167 -23.138  0.00  0.00    +0.204 HD
ATOM      3  C   UNL     1      -0.782   4.868 -22.880  0.00  0.00    +0.191 C 
ENDROOT
BRANCH   1   4
ATOM      4  C   UNL     1      -2.343   3.373 -23.511  0.00  0.00    +0.111 C 
BRANCH   4   5
ATOM      5  C   UNL     1      -3.040   3.671 -24.568  0.00  0.00    +0.089 C 
ATOM      6  O   UNL     1      -3.438   4.894 -24.760  0.00  0.00    -0.544 OA
ATOM      7  O   UNL     1      -3.337   2.747 -25.432  0.00  0.00    -0.544 OA
ENDBRANCH   4   5
BRANCH   4   8
ATOM      8  C   UNL     1      -2.894   2.715 -22.535  0.00  0.00    +0.063 C 
BRANCH   8  10
ATOM      9  C   UNL     1      -4.988   3.382 -22.048  0.00  0.00    +0.007 C 
ATOM     10  C   UNL     1      -3.728   3.312 -21.737  0.00  0.00    -0.012 C 
ATOM     11  C   UNL     1      -3.302   3.840 -20.628  0.00  0.00    +0.007 C 
ENDBRANCH   8  10
ENDBRANCH   4   8
ENDBRANCH   1   4
BRANCH   1  12
ATOM     12  C   UNL     1      -0.165   2.960 -23.904  0.00  0.00    +0.168 C 
BRANCH  12  13
ATOM     13  C   UNL     1       0.841   2.621 -23.154  0.00  0.00    -0.003 A 
ATOM     14  C   UNL     1       0.662   1.808 -22.156  0.00  0.00    +0.009 A 
ATOM     15  C   UNL     1       1.668   1.468 -21.406  0.00  0.00    +0.000 A 
ATOM     16  C   UNL     1       2.852   1.941 -21.654  0.00  0.00    +0.000 A 
ATOM     17  C   UNL     1       3.032   2.755 -22.652  0.00  0.00    +0.000 A 
ATOM     18  C   UNL     1       2.025   3.094 -23.402  0.00  0.00    +0.009 A 
ENDBRANCH  12  13
ENDBRANCH   1  12
TORSDOF 6
ENDMDL
