MODEL 1
REMARK VINA RESULT:    -9.707      0.000      0.000
REMARK INTER + INTRA:         -10.241
REMARK INTER:                 -10.300
REMARK INTRA:                   0.059
REMARK UNBOUND:                 0.034
REMARK  Name = ZINC000004104837
REMARK  5 active torsions:
REMARK  status: ('A' for Active; 'I' for Inactive)
REMARK    1  A    between atoms: C_1  and  O_2
REMARK    2  A    between atoms: O_2  and  C_3
REMARK    3  A    between atoms: C_5  and  C_6
REMARK    4  A    between atoms: C_9  and  C_10
REMARK    5  A    between atoms: C_15  and  C_16
REMARK                            x       y       z     vdW  Elec       q    Type
REMARK                         _______ _______ _______ _____ _____    ______ ____
ROOT
ATOM      1  C   UNL     1      -4.923   3.398 -22.482  0.00  0.00    +0.124 A 
ATOM      2  C   UNL     1      -5.046   3.834 -23.701  0.00  0.00    +0.049 A 
ATOM      3  C   UNL     1      -4.016   3.843 -24.494  0.00  0.00    -0.043 A 
ATOM      4  C   UNL     1      -2.864   3.417 -24.069  0.00  0.00    -0.037 A 
ATOM      5  C   UNL     1      -2.741   2.981 -22.851  0.00  0.00    +0.003 A 
ATOM      6  C   UNL     1      -1.589   2.554 -22.426  0.00  0.00    +0.211 C 
ATOM      7  O   UNL     1      -1.207   2.077 -21.278  0.00  0.00    -0.456 OA
ATOM      8  C   UNL     1       0.058   1.792 -21.362  0.00  0.00    +0.311 C 
ATOM      9  C   UNL     1       0.459   2.093 -22.562  0.00  0.00    +0.102 C 
ATOM     10  C   UNL     1       1.665   1.948 -23.024  0.00  0.00    +0.019 C 
ATOM     11  O   UNL     1       0.794   1.295 -20.413  0.00  0.00    -0.251 OA
ATOM     12  C   UNL     1      -0.560   2.563 -23.219  0.00  0.00    +0.048 C 
ATOM     13  C   UNL     1      -0.682   3.000 -24.438  0.00  0.00    +0.013 C 
ATOM     14  C   UNL     1      -1.834   3.426 -24.863  0.00  0.00    +0.036 C 
ATOM     15  C   UNL     1      -4.139   4.279 -25.713  0.00  0.00    +0.044 C 
ATOM     16  C   UNL     1      -3.771   2.971 -22.057  0.00  0.00    -0.002 A 
ATOM     17  C   UNL     1      -3.648   2.535 -20.839  0.00  0.00    +0.048 C 
ENDROOT
BRANCH   1  19
ATOM     18  C   UNL     1      -6.869   2.476 -21.822  0.00  0.00    +0.277 C 
ATOM     19  O   UNL     1      -5.952   3.388 -21.689  0.00  0.00    -0.495 OA
ENDBRANCH   1  19
TORSDOF 1
ENDMDL
MODEL 2
REMARK VINA RESULT:    -9.678      1.200      5.050
REMARK INTER + INTRA:         -10.209
REMARK INTER:                 -10.116
REMARK INTRA:                  -0.093
REMARK UNBOUND:                 0.034
REMARK  Name = ZINC000004104837
REMARK  5 active torsions:
REMARK  status: ('A' for Active; 'I' for Inactive)
REMARK    1  A    between atoms: C_1  and  O_2
REMARK    2  A    between atoms: O_2  and  C_3
REMARK    3  A    between atoms: C_5  and  C_6
REMARK    4  A    between atoms: C_9  and  C_10
REMARK    5  A    between atoms: C_15  and  C_16
REMARK                            x       y       z     vdW  Elec       q    Type
REMARK                         _______ _______ _______ _____ _____    ______ ____
ROOT
ATOM      1  C   UNL     1       1.314   1.968 -22.677  0.00  0.00    +0.124 A 
ATOM      2  C   UNL     1       1.669   2.579 -23.768  0.00  0.00    +0.049 A 
ATOM      3  C   UNL     1       0.785   3.227 -24.467  0.00  0.00    -0.043 A 
ATOM      4  C   UNL     1      -0.454   3.263 -24.074  0.00  0.00    -0.037 A 
ATOM      5  C   UNL     1      -0.809   2.652 -22.983  0.00  0.00    +0.003 A 
ATOM      6  C   UNL     1      -2.048   2.689 -22.591  0.00  0.00    +0.211 C 
ATOM      7  O   UNL     1      -2.650   2.173 -21.561  0.00  0.00    -0.456 OA
ATOM      8  C   UNL     1      -3.905   2.502 -21.622  0.00  0.00    +0.311 C 
ATOM      9  C   UNL     1      -4.080   3.221 -22.691  0.00  0.00    +0.102 C 
ATOM     10  C   UNL     1      -5.205   3.735 -23.092  0.00  0.00    +0.019 C 
ATOM     11  O   UNL     1      -4.825   2.170 -20.766  0.00  0.00    -0.251 OA
ATOM     12  C   UNL     1      -2.932   3.336 -23.290  0.00  0.00    +0.048 C 
ATOM     13  C   UNL     1      -2.577   3.948 -24.382  0.00  0.00    +0.013 C 
ATOM     14  C   UNL     1      -1.338   3.911 -24.774  0.00  0.00    +0.036 C 
ATOM     15  C   UNL     1       1.139   3.838 -25.558  0.00  0.00    +0.044 C 
ATOM     16  C   UNL     1       0.075   2.005 -22.285  0.00  0.00    -0.002 A 
ATOM     17  C   UNL     1      -0.279   1.394 -21.194  0.00  0.00    +0.048 C 
ENDROOT
BRANCH   1  19
ATOM     18  C   UNL     1       2.982   0.459 -22.557  0.00  0.00    +0.277 C 
ATOM     19  O   UNL     1       2.198   1.321 -21.978  0.00  0.00    -0.495 OA
ENDBRANCH   1  19
TORSDOF 1
ENDMDL
MODEL 3
REMARK VINA RESULT:    -9.598      1.954      5.832
REMARK INTER + INTRA:         -10.125
REMARK INTER:                 -10.012
REMARK INTRA:                  -0.113
REMARK UNBOUND:                 0.034
REMARK  Name = ZINC000004104837
REMARK  5 active torsions:
REMARK  status: ('A' for Active; 'I' for Inactive)
REMARK    1  A    between atoms: C_1  and  O_2
REMARK    2  A    between atoms: O_2  and  C_3
REMARK    3  A    between atoms: C_5  and  C_6
REMARK    4  A    between atoms: C_9  and  C_10
REMARK    5  A    between atoms: C_15  and  C_16
REMARK                            x       y       z     vdW  Elec       q    Type
REMARK                         _______ _______ _______ _____ _____    ______ ____
ROOT
ATOM      1  C   UNL     1       1.090   2.716 -23.782  0.00  0.00    +0.124 A 
ATOM      2  C   UNL     1       1.243   2.140 -22.627  0.00  0.00    +0.049 A 
ATOM      3  C   UNL     1       0.218   1.972 -21.845  0.00  0.00    -0.043 A 
ATOM      4  C   UNL     1      -0.959   2.379 -22.219  0.00  0.00    -0.037 A 
ATOM      5  C   UNL     1      -1.111   2.954 -23.374  0.00  0.00    +0.003 A 
ATOM      6  C   UNL     1      -2.288   3.361 -23.748  0.00  0.00    +0.211 C 
ATOM      7  O   UNL     1      -2.701   3.952 -24.830  0.00  0.00    -0.456 OA
ATOM      8  C   UNL     1      -3.981   4.149 -24.716  0.00  0.00    +0.311 C 
ATOM      9  C   UNL     1      -4.359   3.680 -23.564  0.00  0.00    +0.102 C 
ATOM     10  C   UNL     1      -5.570   3.695 -23.093  0.00  0.00    +0.019 C 
ATOM     11  O   UNL     1      -4.748   4.716 -25.599  0.00  0.00    -0.251 OA
ATOM     12  C   UNL     1      -3.312   3.193 -22.966  0.00  0.00    +0.048 C 
ATOM     13  C   UNL     1      -3.160   2.617 -21.810  0.00  0.00    +0.013 C 
ATOM     14  C   UNL     1      -1.983   2.210 -21.436  0.00  0.00    +0.036 C 
ATOM     15  C   UNL     1       0.370   1.397 -20.689  0.00  0.00    +0.044 C 
ATOM     16  C   UNL     1      -0.086   3.122 -24.156  0.00  0.00    -0.002 A 
ATOM     17  C   UNL     1      -0.239   3.698 -25.312  0.00  0.00    +0.048 C 
ENDROOT
BRANCH   1  19
ATOM     18  C   UNL     1       3.029   1.963 -24.646  0.00  0.00    +0.277 C 
ATOM     19  O   UNL     1       2.115   2.884 -24.564  0.00  0.00    -0.495 OA
ENDBRANCH   1  19
TORSDOF 1
ENDMDL
MODEL 4
REMARK VINA RESULT:    -9.343      1.935      3.385
REMARK INTER + INTRA:          -9.855
REMARK INTER:                  -9.740
REMARK INTRA:                  -0.115
REMARK UNBOUND:                 0.034
REMARK  Name = ZINC000004104837
REMARK  5 active torsions:
REMARK  status: ('A' for Active; 'I' for Inactive)
REMARK    1  A    between atoms: C_1  and  O_2
REMARK    2  A    between atoms: O_2  and  C_3
REMARK    3  A    between atoms: C_5  and  C_6
REMARK    4  A    between atoms: C_9  and  C_10
REMARK    5  A    between atoms: C_15  and  C_16
REMARK                            x       y       z     vdW  Elec       q    Type
REMARK                         _______ _______ _______ _____ _____    ______ ____
ROOT
ATOM      1  C   UNL     1      -2.940   3.695 -24.150  0.00  0.00    +0.124 A 
ATOM      2  C   UNL     1      -3.607   3.432 -23.066  0.00  0.00    +0.049 A 
ATOM      3  C   UNL     1      -3.026   2.819 -22.078  0.00  0.00    -0.043 A 
ATOM      4  C   UNL     1      -1.777   2.470 -22.175  0.00  0.00    -0.037 A 
ATOM      5  C   UNL     1      -1.110   2.734 -23.259  0.00  0.00    +0.003 A 
ATOM      6  C   UNL     1       0.138   2.385 -23.355  0.00  0.00    +0.211 C 
ATOM      7  O   UNL     1       1.011   2.527 -24.308  0.00  0.00    -0.456 OA
ATOM      8  C   UNL     1       2.131   2.003 -23.910  0.00  0.00    +0.311 C 
ATOM      9  C   UNL     1       1.952   1.536 -22.710  0.00  0.00    +0.102 C 
ATOM     10  C   UNL     1       2.846   0.938 -21.980  0.00  0.00    +0.019 C 
ATOM     11  O   UNL     1       3.237   1.954 -24.592  0.00  0.00    -0.251 OA
ATOM     12  C   UNL     1       0.720   1.772 -22.367  0.00  0.00    +0.048 C 
ATOM     13  C   UNL     1       0.053   1.508 -21.282  0.00  0.00    +0.013 C 
ATOM     14  C   UNL     1      -1.196   1.857 -21.186  0.00  0.00    +0.036 C 
ATOM     15  C   UNL     1      -3.693   2.555 -20.993  0.00  0.00    +0.044 C 
ATOM     16  C   UNL     1      -1.692   3.346 -24.246  0.00  0.00    -0.002 A 
ATOM     17  C   UNL     1      -1.025   3.610 -25.330  0.00  0.00    +0.048 C 
ENDROOT
BRANCH   1  19
ATOM     18  C   UNL     1      -4.811   4.222 -25.288  0.00  0.00    +0.277 C 
ATOM     19  O   UNL     1      -3.522   4.308 -25.138  0.00  0.00    -0.495 OA
ENDBRANCH   1  19
TORSDOF 1
ENDMDL
MODEL 5
REMARK VINA RESULT:    -8.507      2.562      6.554
REMARK INTER + INTRA:          -8.970
REMARK INTER:                  -8.857
REMARK INTRA:                  -0.112
REMARK UNBOUND:                 0.034
REMARK  Name = ZINC000004104837
REMARK  5 active torsions:
REMARK  status: ('A' for Active; 'I' for Inactive)
REMARK    1  A    between atoms: C_1  and  O_2
REMARK    2  A    between atoms: O_2  and  C_3
REMARK    3  A    between atoms: C_5  and  C_6
REMARK    4  A    between atoms: C_9  and  C_10
REMARK    5  A    between atoms: C_15  and  C_16
REMARK                            x       y       z     vdW  Elec       q    Type
REMARK                         _______ _______ _______ _____ _____    ______ ____
ROOT
ATOM      1  C   UNL     1       3.368   3.574 -23.063  0.00  0.00    +0.124 A 
ATOM      2  C   UNL     1       3.669   2.598 -22.259  0.00  0.00    +0.049 A 
ATOM      3  C   UNL     1       2.725   1.893 -21.711  0.00  0.00    -0.043 A 
ATOM      4  C   UNL     1       1.480   2.162 -21.969  0.00  0.00    -0.037 A 
ATOM      5  C   UNL     1       1.179   3.138 -22.773  0.00  0.00    +0.003 A 
ATOM      6  C   UNL     1      -0.067   3.408 -23.030  0.00  0.00    +0.211 C 
ATOM      7  O   UNL     1      -0.625   4.310 -23.782  0.00  0.00    -0.456 OA
ATOM      8  C   UNL     1      -1.913   4.162 -23.699  0.00  0.00    +0.311 C 
ATOM      9  C   UNL     1      -2.152   3.168 -22.896  0.00  0.00    +0.102 C 
ATOM     10  C   UNL     1      -3.326   2.718 -22.565  0.00  0.00    +0.019 C 
ATOM     11  O   UNL     1      -2.806   4.881 -24.312  0.00  0.00    -0.251 OA
ATOM     12  C   UNL     1      -1.011   2.702 -22.483  0.00  0.00    +0.048 C 
ATOM     13  C   UNL     1      -0.710   1.726 -21.678  0.00  0.00    +0.013 C 
ATOM     14  C   UNL     1       0.535   1.456 -21.421  0.00  0.00    +0.036 C 
ATOM     15  C   UNL     1       3.026   0.916 -20.907  0.00  0.00    +0.044 C 
ATOM     16  C   UNL     1       2.123   3.844 -23.320  0.00  0.00    -0.002 A 
ATOM     17  C   UNL     1       1.822   4.820 -24.124  0.00  0.00    +0.048 C 
ENDROOT
BRANCH   1  19
ATOM     18  C   UNL     1       5.372   4.593 -22.924  0.00  0.00    +0.277 C 
ATOM     19  O   UNL     1       4.312   4.280 -23.610  0.00  0.00    -0.495 OA
ENDBRANCH   1  19
TORSDOF 1
ENDMDL
MODEL 6
REMARK VINA RESULT:    -8.501      2.865      4.803
REMARK INTER + INTRA:          -8.964
REMARK INTER:                  -8.849
REMARK INTRA:                  -0.115
REMARK UNBOUND:                 0.034
REMARK  Name = ZINC000004104837
REMARK  5 active torsions:
REMARK  status: ('A' for Active; 'I' for Inactive)
REMARK    1  A    between atoms: C_1  and  O_2
REMARK    2  A    between atoms: O_2  and  C_3
REMARK    3  A    between atoms: C_5  and  C_6
REMARK    4  A    between atoms: C_9  and  C_10
REMARK    5  A    between atoms: C_15  and  C_16
REMARK                            x       y       z     vdW  Elec       q    Type
REMARK                         _______ _______ _______ _____ _____    ______ ____
ROOT
ATOM      1  C   UNL     1      -0.872   3.231 -24.448  0.00  0.00    +0.124 A 
ATOM      2  C   UNL     1      -1.584   2.710 -23.494  0.00  0.00    +0.049 A 
ATOM      3  C   UNL     1      -0.999   2.175 -22.464  0.00  0.00    -0.043 A 
ATOM      4  C   UNL     1       0.299   2.162 -22.389  0.00  0.00    -0.037 A 
ATOM      5  C   UNL     1       1.011   2.683 -23.343  0.00  0.00    +0.003 A 
ATOM      6  C   UNL     1       2.309   2.670 -23.267  0.00  0.00    +0.211 C 
ATOM      7  O   UNL     1       3.232   3.115 -24.068  0.00  0.00    -0.456 OA
ATOM      8  C   UNL     1       4.388   2.855 -23.533  0.00  0.00    +0.311 C 
ATOM      9  C   UNL     1       4.179   2.249 -22.402  0.00  0.00    +0.102 C 
ATOM     10  C   UNL     1       5.095   1.831 -21.579  0.00  0.00    +0.019 C 
ATOM     11  O   UNL     1       5.548   3.148 -24.040  0.00  0.00    -0.251 OA
ATOM     12  C   UNL     1       2.895   2.135 -22.238  0.00  0.00    +0.048 C 
ATOM     13  C   UNL     1       2.182   1.613 -21.283  0.00  0.00    +0.013 C 
ATOM     14  C   UNL     1       0.885   1.626 -21.358  0.00  0.00    +0.036 C 
ATOM     15  C   UNL     1      -1.711   1.653 -21.510  0.00  0.00    +0.044 C 
ATOM     16  C   UNL     1       0.426   3.218 -24.372  0.00  0.00    -0.002 A 
ATOM     17  C   UNL     1       1.138   3.740 -25.326  0.00  0.00    +0.048 C 
ENDROOT
BRANCH   1  19
ATOM     18  C   UNL     1      -2.620   3.331 -25.865  0.00  0.00    +0.277 C 
ATOM     19  O   UNL     1      -1.458   3.766 -25.478  0.00  0.00    -0.495 OA
ENDBRANCH   1  19
TORSDOF 1
ENDMDL
MODEL 7
REMARK VINA RESULT:    -8.072      2.921      6.857
REMARK INTER + INTRA:          -8.510
REMARK INTER:                  -8.541
REMARK INTRA:                   0.031
REMARK UNBOUND:                 0.034
REMARK  Name = ZINC000004104837
REMARK  5 active torsions:
REMARK  status: ('A' for Active; 'I' for Inactive)
REMARK    1  A    between atoms: C_1  and  O_2
REMARK    2  A    between atoms: O_2  and  C_3
REMARK    3  A    between atoms: C_5  and  C_6
REMARK    4  A    between atoms: C_9  and  C_10
REMARK    5  A    between atoms: C_15  and  C_16
REMARK                            x       y       z     vdW  Elec       q    Type
REMARK                         _______ _______ _______ _____ _____    ______ ____
ROOT
ATOM      1  C   UNL     1       4.260   1.561 -22.231  0.00  0.00    +0.124 A 
ATOM      2  C   UNL     1       5.050   2.573 -22.431  0.00  0.00    +0.049 A 
ATOM      3  C   UNL     1       4.559   3.717 -22.805  0.00  0.00    -0.043 A 
ATOM      4  C   UNL     1       3.277   3.848 -22.978  0.00  0.00    -0.037 A 
ATOM      5  C   UNL     1       2.487   2.836 -22.778  0.00  0.00    +0.003 A 
ATOM      6  C   UNL     1       1.205   2.967 -22.951  0.00  0.00    +0.211 C 
ATOM      7  O   UNL     1       0.219   2.130 -22.821  0.00  0.00    -0.456 OA
ATOM      8  C   UNL     1      -0.881   2.756 -23.113  0.00  0.00    +0.311 C 
ATOM      9  C   UNL     1      -0.576   3.981 -23.425  0.00  0.00    +0.102 C 
ATOM     10  C   UNL     1      -1.413   4.912 -23.775  0.00  0.00    +0.019 C 
ATOM     11  O   UNL     1      -2.077   2.247 -23.098  0.00  0.00    -0.251 OA
ATOM     12  C   UNL     1       0.714   4.111 -23.324  0.00  0.00    +0.048 C 
ATOM     13  C   UNL     1       1.504   5.124 -23.525  0.00  0.00    +0.013 C 
ATOM     14  C   UNL     1       2.786   4.993 -23.352  0.00  0.00    +0.036 C 
ATOM     15  C   UNL     1       5.349   4.730 -23.005  0.00  0.00    +0.044 C 
ATOM     16  C   UNL     1       2.978   1.692 -22.404  0.00  0.00    -0.002 A 
ATOM     17  C   UNL     1       2.188   0.680 -22.204  0.00  0.00    +0.048 C 
ENDROOT
BRANCH   1  19
ATOM     18  C   UNL     1       5.187   0.261 -20.642  0.00  0.00    +0.277 C 
ATOM     19  O   UNL     1       4.752   0.417 -21.858  0.00  0.00    -0.495 OA
ENDBRANCH   1  19
TORSDOF 1
ENDMDL
MODEL 8
REMARK VINA RESULT:    -7.699      1.575      4.682
REMARK INTER + INTRA:          -8.115
REMARK INTER:                  -8.001
REMARK INTRA:                  -0.115
REMARK UNBOUND:                 0.034
REMARK  Name = ZINC000004104837
REMARK  5 active torsions:
REMARK  status: ('A' for Active; 'I' for Inactive)
REMARK    1  A    between atoms: C_1  and  O_2
REMARK    2  A    between atoms: O_2  and  C_3
REMARK    3  A    between atoms: C_5  and  C_6
REMARK    4  A    between atoms: C_9  and  C_10
REMARK    5  A    between atoms: C_15  and  C_16
REMARK                            x       y       z     vdW  Elec       q    Type
REMARK                         _______ _______ _______ _____ _____    ______ ____
ROOT
ATOM      1  C   UNL     1      -0.329   3.160 -24.529  0.00  0.00    +0.124 A 
ATOM      2  C   UNL     1      -0.800   3.429 -25.710  0.00  0.00    +0.049 A 
ATOM      3  C   UNL     1      -2.082   3.545 -25.886  0.00  0.00    -0.043 A 
ATOM      4  C   UNL     1      -2.893   3.392 -24.882  0.00  0.00    -0.037 A 
ATOM      5  C   UNL     1      -2.422   3.123 -23.701  0.00  0.00    +0.003 A 
ATOM      6  C   UNL     1      -3.233   2.970 -22.697  0.00  0.00    +0.211 C 
ATOM      7  O   UNL     1      -3.024   2.702 -21.442  0.00  0.00    -0.456 OA
ATOM      8  C   UNL     1      -4.176   2.653 -20.843  0.00  0.00    +0.311 C 
ATOM      9  C   UNL     1      -5.099   2.890 -21.728  0.00  0.00    +0.102 C 
ATOM     10  C   UNL     1      -6.379   2.925 -21.507  0.00  0.00    +0.019 C 
ATOM     11  O   UNL     1      -4.372   2.409 -19.581  0.00  0.00    -0.251 OA
ATOM     12  C   UNL     1      -4.515   3.086 -22.873  0.00  0.00    +0.048 C 
ATOM     13  C   UNL     1      -4.988   3.355 -24.055  0.00  0.00    +0.013 C 
ATOM     14  C   UNL     1      -4.177   3.508 -25.059  0.00  0.00    +0.036 C 
ATOM     15  C   UNL     1      -2.554   3.814 -27.068  0.00  0.00    +0.044 C 
ATOM     16  C   UNL     1      -1.140   3.007 -23.524  0.00  0.00    -0.002 A 
ATOM     17  C   UNL     1      -0.668   2.738 -22.343  0.00  0.00    +0.048 C 
ENDROOT
BRANCH   1  19
ATOM     18  C   UNL     1       1.747   2.954 -25.378  0.00  0.00    +0.277 C 
ATOM     19  O   UNL     1       0.954   3.044 -24.352  0.00  0.00    -0.495 OA
ENDBRANCH   1  19
TORSDOF 1
ENDMDL
MODEL 9
REMARK VINA RESULT:    -7.152      2.011      5.452
REMARK INTER + INTRA:          -7.536
REMARK INTER:                  -7.570
REMARK INTRA:                   0.034
REMARK UNBOUND:                 0.034
REMARK  Name = ZINC000004104837
REMARK  5 active torsions:
REMARK  status: ('A' for Active; 'I' for Inactive)
REMARK    1  A    between atoms: C_1  and  O_2
REMARK    2  A    between atoms: O_2  and  C_3
REMARK    3  A    between atoms: C_5  and  C_6
REMARK    4  A    between atoms: C_9  and  C_10
REMARK    5  A    between atoms: C_15  and  C_16
REMARK                            x       y       z     vdW  Elec       q    Type
REMARK                         _______ _______ _______ _____ _____    ______ ____
ROOT
ATOM      1  C   UNL     1       0.677   3.967 -23.864  0.00  0.00    +0.124 A 
ATOM      2  C   UNL     1       1.496   3.129 -23.301  0.00  0.00    +0.049 A 
ATOM      3  C   UNL     1       1.052   2.270 -22.434  0.00  0.00    -0.043 A 
ATOM      4  C   UNL     1      -0.212   2.248 -22.129  0.00  0.00    -0.037 A 
ATOM      5  C   UNL     1      -1.031   3.086 -22.691  0.00  0.00    +0.003 A 
ATOM      6  C   UNL     1      -2.295   3.064 -22.386  0.00  0.00    +0.211 C 
ATOM      7  O   UNL     1      -3.301   3.778 -22.796  0.00  0.00    -0.456 OA
ATOM      8  C   UNL     1      -4.367   3.360 -22.182  0.00  0.00    +0.311 C 
ATOM      9  C   UNL     1      -4.020   2.387 -21.392  0.00  0.00    +0.102 C 
ATOM     10  C   UNL     1      -4.814   1.715 -20.613  0.00  0.00    +0.019 C 
ATOM     11  O   UNL     1      -5.569   3.832 -22.331  0.00  0.00    -0.251 OA
ATOM     12  C   UNL     1      -2.739   2.205 -21.519  0.00  0.00    +0.048 C 
ATOM     13  C   UNL     1      -1.920   1.366 -20.956  0.00  0.00    +0.013 C 
ATOM     14  C   UNL     1      -0.656   1.388 -21.261  0.00  0.00    +0.036 C 
ATOM     15  C   UNL     1       1.871   1.431 -21.870  0.00  0.00    +0.044 C 
ATOM     16  C   UNL     1      -0.586   3.946 -23.559  0.00  0.00    -0.002 A 
ATOM     17  C   UNL     1      -1.405   4.784 -24.121  0.00  0.00    +0.048 C 
ENDROOT
BRANCH   1  19
ATOM     18  C   UNL     1       1.460   4.433 -25.923  0.00  0.00    +0.277 C 
ATOM     19  O   UNL     1       1.122   4.827 -24.731  0.00  0.00    -0.495 OA
ENDBRANCH   1  19
TORSDOF 1
ENDMDL
