MODEL 1
REMARK VINA RESULT:    -9.370      0.000      0.000
REMARK INTER + INTRA:         -11.205
REMARK INTER:                 -10.744
REMARK INTRA:                  -0.461
REMARK UNBOUND:                -0.466
REMARK  Name = ZINC000003871633
REMARK  4 active torsions:
REMARK  status: ('A' for Active; 'I' for Inactive)
REMARK    1  A    between atoms: C_4  and  C_5
REMARK    2  A    between atoms: C_14  and  O_15
REMARK    3  A    between atoms: C_16  and  O_17
REMARK    4  A    between atoms: C_18  and  O_19
REMARK                            x       y       z     vdW  Elec       q    Type
REMARK                         _______ _______ _______ _____ _____    ______ ____
ROOT
ATOM      1  O   UNL     1       0.876   5.268 -23.999  0.00  0.00    -0.287 OA
ATOM      2  C   UNL     1       0.247   4.266 -23.460  0.00  0.00    +0.197 A 
ATOM      3  C   UNL     1      -1.049   4.295 -23.353  0.00  0.00    +0.098 A 
ATOM      4  C   UNL     1      -1.678   3.293 -22.813  0.00  0.00    +0.139 A 
ATOM      5  O   UNL     1      -1.012   2.264 -22.380  0.00  0.00    -0.454 OA
ATOM      6  C   UNL     1       0.283   2.236 -22.487  0.00  0.00    +0.146 A 
ATOM      7  C   UNL     1       0.949   1.207 -22.054  0.00  0.00    +0.096 A 
ATOM      8  C   UNL     1       2.244   1.179 -22.162  0.00  0.00    +0.166 A 
ATOM      9  C   UNL     1       2.873   2.180 -22.701  0.00  0.00    +0.202 A 
ATOM     10  C   UNL     1       2.208   3.210 -23.134  0.00  0.00    +0.177 A 
ATOM     11  C   UNL     1       0.913   3.237 -23.027  0.00  0.00    +0.109 A 
ENDROOT
BRANCH   4  12
ATOM     12  C   UNL     1      -2.973   3.320 -22.705  0.00  0.00    +0.017 A 
ATOM     13  C   UNL     1      -3.540   2.946 -21.597  0.00  0.00    +0.011 A 
ATOM     14  C   UNL     1      -4.836   2.972 -21.488  0.00  0.00    +0.001 A 
ATOM     15  C   UNL     1      -5.564   3.374 -22.488  0.00  0.00    +0.000 A 
ATOM     16  C   UNL     1      -4.997   3.748 -23.596  0.00  0.00    +0.001 A 
ATOM     17  C   UNL     1      -3.701   3.721 -23.705  0.00  0.00    +0.011 A 
ENDBRANCH   4  12
BRANCH  10  18
ATOM     18  O   UNL     1       2.837   4.211 -23.674  0.00  0.00    -0.503 OA
ATOM     19  H   UNL     1       2.513   4.597 -24.464  0.00  0.00    +0.292 HD
ENDBRANCH  10  18
BRANCH   9  20
ATOM     20  O   UNL     1       4.169   2.152 -22.808  0.00  0.00    -0.501 OA
ATOM     21  H   UNL     1       4.699   2.016 -22.048  0.00  0.00    +0.292 HD
ENDBRANCH   9  20
BRANCH   8  22
ATOM     22  O   UNL     1       2.911   0.150 -21.729  0.00  0.00    -0.503 OA
ATOM     23  H   UNL     1       2.943  -0.635 -22.239  0.00  0.00    +0.292 HD
ENDBRANCH   8  22
TORSDOF 4
ENDMDL
MODEL 2
REMARK VINA RESULT:    -9.169      1.607      2.375
REMARK INTER + INTRA:         -10.975
REMARK INTER:                 -10.505
REMARK INTRA:                  -0.470
REMARK UNBOUND:                -0.466
REMARK  Name = ZINC000003871633
REMARK  4 active torsions:
REMARK  status: ('A' for Active; 'I' for Inactive)
REMARK    1  A    between atoms: C_4  and  C_5
REMARK    2  A    between atoms: C_14  and  O_15
REMARK    3  A    between atoms: C_16  and  O_17
REMARK    4  A    between atoms: C_18  and  O_19
REMARK                            x       y       z     vdW  Elec       q    Type
REMARK                         _______ _______ _______ _____ _____    ______ ____
ROOT
ATOM      1  O   UNL     1       2.173   2.396 -25.249  0.00  0.00    -0.287 OA
ATOM      2  C   UNL     1       1.666   2.225 -24.064  0.00  0.00    +0.197 A 
ATOM      3  C   UNL     1       0.422   2.530 -23.839  0.00  0.00    +0.098 A 
ATOM      4  C   UNL     1      -0.084   2.359 -22.654  0.00  0.00    +0.139 A 
ATOM      5  O   UNL     1       0.652   1.884 -21.694  0.00  0.00    -0.454 OA
ATOM      6  C   UNL     1       1.896   1.579 -21.919  0.00  0.00    +0.146 A 
ATOM      7  C   UNL     1       2.633   1.103 -20.960  0.00  0.00    +0.096 A 
ATOM      8  C   UNL     1       3.876   0.799 -21.185  0.00  0.00    +0.166 A 
ATOM      9  C   UNL     1       4.382   0.970 -22.370  0.00  0.00    +0.202 A 
ATOM     10  C   UNL     1       3.646   1.445 -23.330  0.00  0.00    +0.177 A 
ATOM     11  C   UNL     1       2.403   1.750 -23.104  0.00  0.00    +0.109 A 
ENDROOT
BRANCH   4  12
ATOM     12  C   UNL     1      -1.328   2.664 -22.427  0.00  0.00    +0.017 A 
ATOM     13  C   UNL     1      -2.148   2.826 -23.423  0.00  0.00    +0.011 A 
ATOM     14  C   UNL     1      -3.392   3.130 -23.198  0.00  0.00    +0.001 A 
ATOM     15  C   UNL     1      -3.815   3.273 -21.977  0.00  0.00    +0.000 A 
ATOM     16  C   UNL     1      -2.996   3.111 -20.982  0.00  0.00    +0.001 A 
ATOM     17  C   UNL     1      -1.751   2.806 -21.207  0.00  0.00    +0.011 A 
ENDBRANCH   4  12
BRANCH  10  18
ATOM     18  O   UNL     1       4.153   1.616 -24.515  0.00  0.00    -0.503 OA
ATOM     19  H   UNL     1       4.586   0.906 -24.946  0.00  0.00    +0.292 HD
ENDBRANCH  10  18
BRANCH   9  20
ATOM     20  O   UNL     1       5.627   0.665 -22.595  0.00  0.00    -0.501 OA
ATOM     21  H   UNL     1       6.291   0.930 -21.990  0.00  0.00    +0.292 HD
ENDBRANCH   9  20
BRANCH   8  22
ATOM     22  O   UNL     1       4.613   0.323 -20.225  0.00  0.00    -0.503 OA
ATOM     23  H   UNL     1       5.530   0.514 -20.200  0.00  0.00    +0.292 HD
ENDBRANCH   8  22
TORSDOF 4
ENDMDL
MODEL 3
REMARK VINA RESULT:    -9.164      1.464      2.444
REMARK INTER + INTRA:         -10.969
REMARK INTER:                 -10.497
REMARK INTRA:                  -0.472
REMARK UNBOUND:                -0.466
REMARK  Name = ZINC000003871633
REMARK  4 active torsions:
REMARK  status: ('A' for Active; 'I' for Inactive)
REMARK    1  A    between atoms: C_4  and  C_5
REMARK    2  A    between atoms: C_14  and  O_15
REMARK    3  A    between atoms: C_16  and  O_17
REMARK    4  A    between atoms: C_18  and  O_19
REMARK                            x       y       z     vdW  Elec       q    Type
REMARK                         _______ _______ _______ _____ _____    ______ ____
ROOT
ATOM      1  O   UNL     1       0.451   1.134 -20.243  0.00  0.00    -0.287 OA
ATOM      2  C   UNL     1       0.166   1.605 -21.420  0.00  0.00    +0.197 A 
ATOM      3  C   UNL     1      -1.038   2.026 -21.678  0.00  0.00    +0.098 A 
ATOM      4  C   UNL     1      -1.323   2.497 -22.855  0.00  0.00    +0.139 A 
ATOM      5  O   UNL     1      -0.405   2.549 -23.775  0.00  0.00    -0.454 OA
ATOM      6  C   UNL     1       0.798   2.128 -23.517  0.00  0.00    +0.146 A 
ATOM      7  C   UNL     1       1.716   2.180 -24.436  0.00  0.00    +0.096 A 
ATOM      8  C   UNL     1       2.918   1.760 -24.178  0.00  0.00    +0.166 A 
ATOM      9  C   UNL     1       3.203   1.288 -23.001  0.00  0.00    +0.202 A 
ATOM     10  C   UNL     1       2.286   1.237 -22.081  0.00  0.00    +0.177 A 
ATOM     11  C   UNL     1       1.083   1.657 -22.339  0.00  0.00    +0.109 A 
ENDROOT
BRANCH   4  12
ATOM     12  C   UNL     1      -2.525   2.918 -23.114  0.00  0.00    +0.017 A 
ATOM     13  C   UNL     1      -3.420   2.946 -22.172  0.00  0.00    +0.011 A 
ATOM     14  C   UNL     1      -4.623   3.366 -22.430  0.00  0.00    +0.001 A 
ATOM     15  C   UNL     1      -4.931   3.758 -23.630  0.00  0.00    +0.000 A 
ATOM     16  C   UNL     1      -4.037   3.730 -24.573  0.00  0.00    +0.001 A 
ATOM     17  C   UNL     1      -2.833   3.310 -24.315  0.00  0.00    +0.011 A 
ENDBRANCH   4  12
BRANCH  10  18
ATOM     18  O   UNL     1       2.571   0.765 -20.904  0.00  0.00    -0.503 OA
ATOM     19  H   UNL     1       1.900   0.690 -20.254  0.00  0.00    +0.292 HD
ENDBRANCH  10  18
BRANCH   9  20
ATOM     20  O   UNL     1       4.407   0.868 -22.743  0.00  0.00    -0.501 OA
ATOM     21  H   UNL     1       5.064   0.892 -23.409  0.00  0.00    +0.292 HD
ENDBRANCH   9  20
BRANCH   8  22
ATOM     22  O   UNL     1       3.836   1.811 -25.098  0.00  0.00    -0.503 OA
ATOM     23  H   UNL     1       3.718   1.349 -25.904  0.00  0.00    +0.292 HD
ENDBRANCH   8  22
TORSDOF 4
ENDMDL
MODEL 4
REMARK VINA RESULT:    -9.139      1.182      2.796
REMARK INTER + INTRA:         -10.941
REMARK INTER:                 -10.485
REMARK INTRA:                  -0.457
REMARK UNBOUND:                -0.466
REMARK  Name = ZINC000003871633
REMARK  4 active torsions:
REMARK  status: ('A' for Active; 'I' for Inactive)
REMARK    1  A    between atoms: C_4  and  C_5
REMARK    2  A    between atoms: C_14  and  O_15
REMARK    3  A    between atoms: C_16  and  O_17
REMARK    4  A    between atoms: C_18  and  O_19
REMARK                            x       y       z     vdW  Elec       q    Type
REMARK                         _______ _______ _______ _____ _____    ______ ____
ROOT
ATOM      1  O   UNL     1       0.449   0.860 -22.292  0.00  0.00    -0.287 OA
ATOM      2  C   UNL     1      -0.163   1.987 -22.502  0.00  0.00    +0.197 A 
ATOM      3  C   UNL     1      -1.462   2.041 -22.453  0.00  0.00    +0.098 A 
ATOM      4  C   UNL     1      -2.074   3.168 -22.663  0.00  0.00    +0.139 A 
ATOM      5  O   UNL     1      -1.389   4.242 -22.922  0.00  0.00    -0.454 OA
ATOM      6  C   UNL     1      -0.090   4.188 -22.972  0.00  0.00    +0.146 A 
ATOM      7  C   UNL     1       0.595   5.262 -23.231  0.00  0.00    +0.096 A 
ATOM      8  C   UNL     1       1.893   5.208 -23.281  0.00  0.00    +0.166 A 
ATOM      9  C   UNL     1       2.505   4.081 -23.070  0.00  0.00    +0.202 A 
ATOM     10  C   UNL     1       1.820   3.007 -22.811  0.00  0.00    +0.177 A 
ATOM     11  C   UNL     1       0.522   3.061 -22.762  0.00  0.00    +0.109 A 
ENDROOT
BRANCH   4  12
ATOM     12  C   UNL     1      -3.372   3.223 -22.614  0.00  0.00    +0.017 A 
ATOM     13  C   UNL     1      -4.040   3.698 -23.622  0.00  0.00    +0.011 A 
ATOM     14  C   UNL     1      -5.338   3.753 -23.574  0.00  0.00    +0.001 A 
ATOM     15  C   UNL     1      -5.968   3.333 -22.518  0.00  0.00    +0.000 A 
ATOM     16  C   UNL     1      -5.300   2.857 -21.509  0.00  0.00    +0.001 A 
ATOM     17  C   UNL     1      -4.001   2.802 -21.557  0.00  0.00    +0.011 A 
ENDBRANCH   4  12
BRANCH  10  18
ATOM     18  O   UNL     1       2.432   1.880 -22.601  0.00  0.00    -0.503 OA
ATOM     19  H   UNL     1       3.205   1.669 -23.086  0.00  0.00    +0.292 HD
ENDBRANCH  10  18
BRANCH   9  20
ATOM     20  O   UNL     1       3.804   4.027 -23.120  0.00  0.00    -0.501 OA
ATOM     21  H   UNL     1       4.300   3.940 -22.330  0.00  0.00    +0.292 HD
ENDBRANCH   9  20
BRANCH   8  22
ATOM     22  O   UNL     1       2.579   6.282 -23.540  0.00  0.00    -0.503 OA
ATOM     23  H   UNL     1       2.509   6.690 -24.381  0.00  0.00    +0.292 HD
ENDBRANCH   8  22
TORSDOF 4
ENDMDL
MODEL 5
REMARK VINA RESULT:    -8.823      2.275      6.426
REMARK INTER + INTRA:         -10.578
REMARK INTER:                 -10.107
REMARK INTRA:                  -0.471
REMARK UNBOUND:                -0.466
REMARK  Name = ZINC000003871633
REMARK  4 active torsions:
REMARK  status: ('A' for Active; 'I' for Inactive)
REMARK    1  A    between atoms: C_4  and  C_5
REMARK    2  A    between atoms: C_14  and  O_15
REMARK    3  A    between atoms: C_16  and  O_17
REMARK    4  A    between atoms: C_18  and  O_19
REMARK                            x       y       z     vdW  Elec       q    Type
REMARK                         _______ _______ _______ _____ _____    ______ ____
ROOT
ATOM      1  O   UNL     1      -3.009   2.647 -20.662  0.00  0.00    -0.287 OA
ATOM      2  C   UNL     1      -2.291   2.688 -21.744  0.00  0.00    +0.197 A 
ATOM      3  C   UNL     1      -1.041   2.330 -21.709  0.00  0.00    +0.098 A 
ATOM      4  C   UNL     1      -0.323   2.372 -22.791  0.00  0.00    +0.139 A 
ATOM      5  O   UNL     1      -0.853   2.771 -23.909  0.00  0.00    -0.454 OA
ATOM      6  C   UNL     1      -2.103   3.130 -23.944  0.00  0.00    +0.146 A 
ATOM      7  C   UNL     1      -2.633   3.529 -25.062  0.00  0.00    +0.096 A 
ATOM      8  C   UNL     1      -3.882   3.888 -25.096  0.00  0.00    +0.166 A 
ATOM      9  C   UNL     1      -4.600   3.846 -24.014  0.00  0.00    +0.202 A 
ATOM     10  C   UNL     1      -4.070   3.446 -22.896  0.00  0.00    +0.177 A 
ATOM     11  C   UNL     1      -2.821   3.088 -22.862  0.00  0.00    +0.109 A 
ENDROOT
BRANCH   4  12
ATOM     12  C   UNL     1       0.927   2.013 -22.757  0.00  0.00    +0.017 A 
ATOM     13  C   UNL     1       1.690   2.221 -23.789  0.00  0.00    +0.011 A 
ATOM     14  C   UNL     1       2.939   1.863 -23.756  0.00  0.00    +0.001 A 
ATOM     15  C   UNL     1       3.426   1.298 -22.692  0.00  0.00    +0.000 A 
ATOM     16  C   UNL     1       2.663   1.090 -21.660  0.00  0.00    +0.001 A 
ATOM     17  C   UNL     1       1.413   1.448 -21.692  0.00  0.00    +0.011 A 
ENDBRANCH   4  12
BRANCH  10  18
ATOM     18  O   UNL     1      -4.789   3.405 -21.814  0.00  0.00    -0.503 OA
ATOM     19  H   UNL     1      -5.544   2.852 -21.774  0.00  0.00    +0.292 HD
ENDBRANCH  10  18
BRANCH   9  20
ATOM     20  O   UNL     1      -5.850   4.205 -24.049  0.00  0.00    -0.501 OA
ATOM     21  H   UNL     1      -6.101   4.986 -24.501  0.00  0.00    +0.292 HD
ENDBRANCH   9  20
BRANCH   8  22
ATOM     22  O   UNL     1      -4.413   4.288 -26.214  0.00  0.00    -0.503 OA
ATOM     23  H   UNL     1      -4.767   3.662 -26.814  0.00  0.00    +0.292 HD
ENDBRANCH   8  22
TORSDOF 4
ENDMDL
MODEL 6
REMARK VINA RESULT:    -8.569      1.638      3.246
REMARK INTER + INTRA:         -10.288
REMARK INTER:                  -9.816
REMARK INTRA:                  -0.471
REMARK UNBOUND:                -0.466
REMARK  Name = ZINC000003871633
REMARK  4 active torsions:
REMARK  status: ('A' for Active; 'I' for Inactive)
REMARK    1  A    between atoms: C_4  and  C_5
REMARK    2  A    between atoms: C_14  and  O_15
REMARK    3  A    between atoms: C_16  and  O_17
REMARK    4  A    between atoms: C_18  and  O_19
REMARK                            x       y       z     vdW  Elec       q    Type
REMARK                         _______ _______ _______ _____ _____    ______ ____
ROOT
ATOM      1  O   UNL     1       1.663   1.180 -20.136  0.00  0.00    -0.287 OA
ATOM      2  C   UNL     1       1.516   1.725 -21.307  0.00  0.00    +0.197 A 
ATOM      3  C   UNL     1       0.324   1.984 -21.758  0.00  0.00    +0.098 A 
ATOM      4  C   UNL     1       0.178   2.530 -22.929  0.00  0.00    +0.139 A 
ATOM      5  O   UNL     1       1.222   2.816 -23.648  0.00  0.00    -0.454 OA
ATOM      6  C   UNL     1       2.413   2.557 -23.197  0.00  0.00    +0.146 A 
ATOM      7  C   UNL     1       3.457   2.844 -23.916  0.00  0.00    +0.096 A 
ATOM      8  C   UNL     1       4.648   2.585 -23.464  0.00  0.00    +0.166 A 
ATOM      9  C   UNL     1       4.795   2.039 -22.294  0.00  0.00    +0.202 A 
ATOM     10  C   UNL     1       3.751   1.753 -21.574  0.00  0.00    +0.177 A 
ATOM     11  C   UNL     1       2.560   2.012 -22.026  0.00  0.00    +0.109 A 
ENDROOT
BRANCH   4  12
ATOM     12  C   UNL     1      -1.013   2.789 -23.381  0.00  0.00    +0.017 A 
ATOM     13  C   UNL     1      -1.171   3.163 -24.616  0.00  0.00    +0.011 A 
ATOM     14  C   UNL     1      -2.362   3.423 -25.070  0.00  0.00    +0.001 A 
ATOM     15  C   UNL     1      -3.394   3.309 -24.288  0.00  0.00    +0.000 A 
ATOM     16  C   UNL     1      -3.236   2.936 -23.053  0.00  0.00    +0.001 A 
ATOM     17  C   UNL     1      -2.046   2.676 -22.599  0.00  0.00    +0.011 A 
ENDBRANCH   4  12
BRANCH  10  18
ATOM     18  O   UNL     1       3.898   1.207 -20.404  0.00  0.00    -0.503 OA
ATOM     19  H   UNL     1       3.148   0.908 -19.929  0.00  0.00    +0.292 HD
ENDBRANCH  10  18
BRANCH   9  20
ATOM     20  O   UNL     1       5.987   1.780 -21.842  0.00  0.00    -0.501 OA
ATOM     21  H   UNL     1       6.485   2.452 -21.421  0.00  0.00    +0.292 HD
ENDBRANCH   9  20
BRANCH   8  22
ATOM     22  O   UNL     1       5.693   2.871 -24.184  0.00  0.00    -0.503 OA
ATOM     23  H   UNL     1       5.588   3.283 -25.019  0.00  0.00    +0.292 HD
ENDBRANCH   8  22
TORSDOF 4
ENDMDL
MODEL 7
REMARK VINA RESULT:    -8.545      2.413      6.229
REMARK INTER + INTRA:         -10.260
REMARK INTER:                  -9.808
REMARK INTRA:                  -0.452
REMARK UNBOUND:                -0.466
REMARK  Name = ZINC000003871633
REMARK  4 active torsions:
REMARK  status: ('A' for Active; 'I' for Inactive)
REMARK    1  A    between atoms: C_4  and  C_5
REMARK    2  A    between atoms: C_14  and  O_15
REMARK    3  A    between atoms: C_16  and  O_17
REMARK    4  A    between atoms: C_18  and  O_19
REMARK                            x       y       z     vdW  Elec       q    Type
REMARK                         _______ _______ _______ _____ _____    ______ ____
ROOT
ATOM      1  O   UNL     1      -2.411   3.472 -26.418  0.00  0.00    -0.287 OA
ATOM      2  C   UNL     1      -1.847   3.481 -25.247  0.00  0.00    +0.197 A 
ATOM      3  C   UNL     1      -0.552   3.418 -25.148  0.00  0.00    +0.098 A 
ATOM      4  C   UNL     1       0.012   3.426 -23.977  0.00  0.00    +0.139 A 
ATOM      5  O   UNL     1      -0.719   3.498 -22.904  0.00  0.00    -0.454 OA
ATOM      6  C   UNL     1      -2.014   3.561 -23.003  0.00  0.00    +0.146 A 
ATOM      7  C   UNL     1      -2.745   3.632 -21.930  0.00  0.00    +0.096 A 
ATOM      8  C   UNL     1      -4.039   3.695 -22.029  0.00  0.00    +0.166 A 
ATOM      9  C   UNL     1      -4.603   3.687 -23.200  0.00  0.00    +0.202 A 
ATOM     10  C   UNL     1      -3.872   3.615 -24.273  0.00  0.00    +0.177 A 
ATOM     11  C   UNL     1      -2.578   3.552 -24.174  0.00  0.00    +0.109 A 
ENDROOT
BRANCH   4  12
ATOM     12  C   UNL     1       1.306   3.363 -23.877  0.00  0.00    +0.017 A 
ATOM     13  C   UNL     1       1.969   4.366 -23.382  0.00  0.00    +0.011 A 
ATOM     14  C   UNL     1       3.264   4.304 -23.282  0.00  0.00    +0.001 A 
ATOM     15  C   UNL     1       3.896   3.239 -23.677  0.00  0.00    +0.000 A 
ATOM     16  C   UNL     1       3.234   2.236 -24.172  0.00  0.00    +0.001 A 
ATOM     17  C   UNL     1       1.938   2.298 -24.273  0.00  0.00    +0.011 A 
ENDBRANCH   4  12
BRANCH  10  18
ATOM     18  O   UNL     1      -4.436   3.607 -25.444  0.00  0.00    -0.503 OA
ATOM     19  H   UNL     1      -5.265   3.186 -25.562  0.00  0.00    +0.292 HD
ENDBRANCH  10  18
BRANCH   9  20
ATOM     20  O   UNL     1      -5.898   3.750 -23.298  0.00  0.00    -0.501 OA
ATOM     21  H   UNL     1      -6.365   4.455 -22.895  0.00  0.00    +0.292 HD
ENDBRANCH   9  20
BRANCH   8  22
ATOM     22  O   UNL     1      -4.771   3.767 -20.956  0.00  0.00    -0.503 OA
ATOM     23  H   UNL     1      -4.366   3.900 -20.121  0.00  0.00    +0.292 HD
ENDBRANCH   8  22
TORSDOF 4
ENDMDL
MODEL 8
REMARK VINA RESULT:    -7.724      2.593      4.882
REMARK INTER + INTRA:          -9.319
REMARK INTER:                  -8.853
REMARK INTRA:                  -0.466
REMARK UNBOUND:                -0.466
REMARK  Name = ZINC000003871633
REMARK  4 active torsions:
REMARK  status: ('A' for Active; 'I' for Inactive)
REMARK    1  A    between atoms: C_4  and  C_5
REMARK    2  A    between atoms: C_14  and  O_15
REMARK    3  A    between atoms: C_16  and  O_17
REMARK    4  A    between atoms: C_18  and  O_19
REMARK                            x       y       z     vdW  Elec       q    Type
REMARK                         _______ _______ _______ _____ _____    ______ ____
ROOT
ATOM      1  O   UNL     1       5.164   0.428 -22.448  0.00  0.00    -0.287 OA
ATOM      2  C   UNL     1       4.465   1.520 -22.535  0.00  0.00    +0.197 A 
ATOM      3  C   UNL     1       3.168   1.469 -22.456  0.00  0.00    +0.098 A 
ATOM      4  C   UNL     1       2.468   2.561 -22.543  0.00  0.00    +0.139 A 
ATOM      5  O   UNL     1       3.064   3.704 -22.708  0.00  0.00    -0.454 OA
ATOM      6  C   UNL     1       4.362   3.755 -22.787  0.00  0.00    +0.146 A 
ATOM      7  C   UNL     1       4.958   4.898 -22.953  0.00  0.00    +0.096 A 
ATOM      8  C   UNL     1       6.254   4.948 -23.032  0.00  0.00    +0.166 A 
ATOM      9  C   UNL     1       6.954   3.856 -22.945  0.00  0.00    +0.202 A 
ATOM     10  C   UNL     1       6.358   2.713 -22.779  0.00  0.00    +0.177 A 
ATOM     11  C   UNL     1       5.061   2.663 -22.700  0.00  0.00    +0.109 A 
ENDROOT
BRANCH   4  12
ATOM     12  C   UNL     1       1.171   2.511 -22.464  0.00  0.00    +0.017 A 
ATOM     13  C   UNL     1       0.600   1.610 -21.721  0.00  0.00    +0.011 A 
ATOM     14  C   UNL     1      -0.697   1.559 -21.642  0.00  0.00    +0.001 A 
ATOM     15  C   UNL     1      -1.422   2.409 -22.305  0.00  0.00    +0.000 A 
ATOM     16  C   UNL     1      -0.851   3.310 -23.048  0.00  0.00    +0.001 A 
ATOM     17  C   UNL     1       0.446   3.361 -23.128  0.00  0.00    +0.011 A 
ENDBRANCH   4  12
BRANCH  10  18
ATOM     18  O   UNL     1       7.057   1.621 -22.692  0.00  0.00    -0.503 OA
ATOM     19  H   UNL     1       6.637   0.811 -22.481  0.00  0.00    +0.292 HD
ENDBRANCH  10  18
BRANCH   9  20
ATOM     20  O   UNL     1       8.251   3.907 -23.024  0.00  0.00    -0.501 OA
ATOM     21  H   UNL     1       8.700   3.425 -23.690  0.00  0.00    +0.292 HD
ENDBRANCH   9  20
BRANCH   8  22
ATOM     22  O   UNL     1       6.852   6.092 -23.197  0.00  0.00    -0.503 OA
ATOM     23  H   UNL     1       6.776   6.759 -22.544  0.00  0.00    +0.292 HD
ENDBRANCH   8  22
TORSDOF 4
ENDMDL
MODEL 9
REMARK VINA RESULT:    -7.645      1.929      6.474
REMARK INTER + INTRA:          -9.229
REMARK INTER:                  -8.767
REMARK INTRA:                  -0.462
REMARK UNBOUND:                -0.466
REMARK  Name = ZINC000003871633
REMARK  4 active torsions:
REMARK  status: ('A' for Active; 'I' for Inactive)
REMARK    1  A    between atoms: C_4  and  C_5
REMARK    2  A    between atoms: C_14  and  O_15
REMARK    3  A    between atoms: C_16  and  O_17
REMARK    4  A    between atoms: C_18  and  O_19
REMARK                            x       y       z     vdW  Elec       q    Type
REMARK                         _______ _______ _______ _____ _____    ______ ____
ROOT
ATOM      1  O   UNL     1      -0.362   1.145 -21.027  0.00  0.00    -0.287 OA
ATOM      2  C   UNL     1       0.070   2.042 -21.862  0.00  0.00    +0.197 A 
ATOM      3  C   UNL     1       1.348   2.231 -22.009  0.00  0.00    +0.098 A 
ATOM      4  C   UNL     1       1.781   3.128 -22.844  0.00  0.00    +0.139 A 
ATOM      5  O   UNL     1       0.936   3.837 -23.533  0.00  0.00    -0.454 OA
ATOM      6  C   UNL     1      -0.343   3.648 -23.386  0.00  0.00    +0.146 A 
ATOM      7  C   UNL     1      -1.188   4.356 -24.074  0.00  0.00    +0.096 A 
ATOM      8  C   UNL     1      -2.465   4.167 -23.927  0.00  0.00    +0.166 A 
ATOM      9  C   UNL     1      -2.897   3.269 -23.092  0.00  0.00    +0.202 A 
ATOM     10  C   UNL     1      -2.052   2.561 -22.404  0.00  0.00    +0.177 A 
ATOM     11  C   UNL     1      -0.775   2.750 -22.551  0.00  0.00    +0.109 A 
ENDROOT
BRANCH   4  12
ATOM     12  C   UNL     1       3.058   3.318 -22.992  0.00  0.00    +0.017 A 
ATOM     13  C   UNL     1       3.535   4.527 -23.030  0.00  0.00    +0.011 A 
ATOM     14  C   UNL     1       4.813   4.718 -23.178  0.00  0.00    +0.001 A 
ATOM     15  C   UNL     1       5.613   3.700 -23.287  0.00  0.00    +0.000 A 
ATOM     16  C   UNL     1       5.137   2.491 -23.248  0.00  0.00    +0.001 A 
ATOM     17  C   UNL     1       3.859   2.300 -23.101  0.00  0.00    +0.011 A 
ENDBRANCH   4  12
BRANCH  10  18
ATOM     18  O   UNL     1      -2.485   1.664 -21.568  0.00  0.00    -0.503 OA
ATOM     19  H   UNL     1      -2.696   0.803 -21.873  0.00  0.00    +0.292 HD
ENDBRANCH  10  18
BRANCH   9  20
ATOM     20  O   UNL     1      -4.176   3.080 -22.945  0.00  0.00    -0.501 OA
ATOM     21  H   UNL     1      -4.765   3.307 -23.637  0.00  0.00    +0.292 HD
ENDBRANCH   9  20
BRANCH   8  22
ATOM     22  O   UNL     1      -3.311   4.875 -24.616  0.00  0.00    -0.503 OA
ATOM     23  H   UNL     1      -4.057   5.254 -24.194  0.00  0.00    +0.292 HD
ENDBRANCH   8  22
TORSDOF 4
ENDMDL
