MODEL 1
REMARK VINA RESULT:   -10.119      0.000      0.000
REMARK INTER + INTRA:         -10.119
REMARK INTER:                 -10.119
REMARK INTRA:                   0.000
REMARK UNBOUND:                 0.000
REMARK  Name = ZINC000000525655
REMARK  1 active torsions:
REMARK  status: ('A' for Active; 'I' for Inactive)
REMARK    1  A    between atoms: C_8  and  C_9
REMARK                            x       y       z     vdW  Elec       q    Type
REMARK                         _______ _______ _______ _____ _____    ______ ____
ROOT
ATOM      1  C   UNL     1       0.468   1.508 -21.166  0.00  0.00    +0.020 C 
ATOM      2  C   UNL     1       0.097   2.051 -22.286  0.00  0.00    +0.036 C 
ATOM      3  C   UNL     1       0.862   2.299 -23.307  0.00  0.00    +0.335 C 
ATOM      4  O   UNL     1       0.132   2.843 -24.234  0.00  0.00    -0.457 OA
ATOM      5  C   UNL     1      -1.085   2.932 -23.786  0.00  0.00    +0.185 C 
ATOM      6  C   UNL     1      -2.176   3.395 -24.320  0.00  0.00    +0.052 C 
ATOM      7  C   UNL     1      -3.290   3.370 -23.650  0.00  0.00    -0.022 C 
ATOM      8  C   UNL     1      -4.381   3.833 -24.183  0.00  0.00    +0.007 C 
ATOM      9  C   UNL     1      -5.494   3.807 -23.512  0.00  0.00    +0.005 C 
ATOM     10  C   UNL     1      -5.516   3.317 -22.308  0.00  0.00    +0.030 C 
ATOM     11  C   UNL     1      -4.425   2.853 -21.774  0.00  0.00    -0.073 C 
ATOM     12  C   UNL     1      -4.447   2.364 -20.570  0.00  0.00    +0.008 C 
ATOM     13  C   UNL     1      -3.268   3.859 -24.854  0.00  0.00    +0.012 C 
ATOM     14  C   UNL     1      -3.311   2.880 -22.445  0.00  0.00    +0.021 C 
ATOM     15  C   UNL     1      -2.220   2.416 -21.912  0.00  0.00    +0.020 C 
ATOM     16  O   UNL     1       2.135   2.046 -23.386  0.00  0.00    -0.245 OA
ATOM     17  C   UNL     1      -1.107   2.442 -22.582  0.00  0.00    +0.067 C 
ENDROOT
TORSDOF 0
ENDMDL
MODEL 2
REMARK VINA RESULT:   -10.041      0.938      2.522
REMARK INTER + INTRA:         -10.041
REMARK INTER:                 -10.041
REMARK INTRA:                   0.000
REMARK UNBOUND:                 0.000
REMARK  Name = ZINC000000525655
REMARK  1 active torsions:
REMARK  status: ('A' for Active; 'I' for Inactive)
REMARK    1  A    between atoms: C_8  and  C_9
REMARK                            x       y       z     vdW  Elec       q    Type
REMARK                         _______ _______ _______ _____ _____    ______ ____
ROOT
ATOM      1  C   UNL     1       0.569   3.319 -25.114  0.00  0.00    +0.020 C 
ATOM      2  C   UNL     1       0.140   2.974 -23.936  0.00  0.00    +0.036 C 
ATOM      3  C   UNL     1       0.867   2.508 -22.964  0.00  0.00    +0.335 C 
ATOM      4  O   UNL     1       0.084   2.281 -21.951  0.00  0.00    -0.457 OA
ATOM      5  C   UNL     1      -1.126   2.607 -22.297  0.00  0.00    +0.185 C 
ATOM      6  C   UNL     1      -2.254   2.569 -21.653  0.00  0.00    +0.052 C 
ATOM      7  C   UNL     1      -3.349   2.959 -22.236  0.00  0.00    -0.022 C 
ATOM      8  C   UNL     1      -4.477   2.921 -21.592  0.00  0.00    +0.007 C 
ATOM      9  C   UNL     1      -5.571   3.312 -22.175  0.00  0.00    +0.005 C 
ATOM     10  C   UNL     1      -5.537   3.740 -23.402  0.00  0.00    +0.030 C 
ATOM     11  C   UNL     1      -4.409   3.779 -24.046  0.00  0.00    -0.073 C 
ATOM     12  C   UNL     1      -4.374   4.207 -25.273  0.00  0.00    +0.008 C 
ATOM     13  C   UNL     1      -3.383   2.531 -21.009  0.00  0.00    +0.012 C 
ATOM     14  C   UNL     1      -3.314   3.388 -23.463  0.00  0.00    +0.021 C 
ATOM     15  C   UNL     1      -2.185   3.426 -24.107  0.00  0.00    +0.020 C 
ATOM     16  O   UNL     1       2.150   2.305 -23.000  0.00  0.00    -0.245 OA
ATOM     17  C   UNL     1      -1.091   3.036 -23.524  0.00  0.00    +0.067 C 
ENDROOT
TORSDOF 0
ENDMDL
MODEL 3
REMARK VINA RESULT:    -9.560      2.198      5.299
REMARK INTER + INTRA:          -9.560
REMARK INTER:                  -9.560
REMARK INTRA:                   0.000
REMARK UNBOUND:                 0.000
REMARK  Name = ZINC000000525655
REMARK  1 active torsions:
REMARK  status: ('A' for Active; 'I' for Inactive)
REMARK    1  A    between atoms: C_8  and  C_9
REMARK                            x       y       z     vdW  Elec       q    Type
REMARK                         _______ _______ _______ _____ _____    ______ ____
ROOT
ATOM      1  C   UNL     1      -4.684   4.252 -24.397  0.00  0.00    +0.020 C 
ATOM      2  C   UNL     1      -4.206   3.603 -23.378  0.00  0.00    +0.036 C 
ATOM      3  C   UNL     1      -4.881   3.203 -22.342  0.00  0.00    +0.335 C 
ATOM      4  O   UNL     1      -4.060   2.593 -21.539  0.00  0.00    -0.457 OA
ATOM      5  C   UNL     1      -2.878   2.617 -22.079  0.00  0.00    +0.185 C 
ATOM      6  C   UNL     1      -1.731   2.151 -21.683  0.00  0.00    +0.052 C 
ATOM      7  C   UNL     1      -0.674   2.308 -22.423  0.00  0.00    -0.022 C 
ATOM      8  C   UNL     1       0.473   1.842 -22.027  0.00  0.00    +0.007 C 
ATOM      9  C   UNL     1       1.529   2.000 -22.767  0.00  0.00    +0.005 C 
ATOM     10  C   UNL     1       1.439   2.624 -23.904  0.00  0.00    +0.030 C 
ATOM     11  C   UNL     1       0.293   3.091 -24.301  0.00  0.00    -0.073 C 
ATOM     12  C   UNL     1       0.203   3.715 -25.438  0.00  0.00    +0.008 C 
ATOM     13  C   UNL     1      -0.584   1.684 -21.286  0.00  0.00    +0.012 C 
ATOM     14  C   UNL     1      -0.765   2.933 -23.560  0.00  0.00    +0.021 C 
ATOM     15  C   UNL     1      -1.911   3.399 -23.957  0.00  0.00    +0.020 C 
ATOM     16  O   UNL     1      -6.153   3.381 -22.143  0.00  0.00    -0.245 OA
ATOM     17  C   UNL     1      -2.968   3.241 -23.216  0.00  0.00    +0.067 C 
ENDROOT
TORSDOF 0
ENDMDL
MODEL 4
REMARK VINA RESULT:    -9.464      2.115      4.647
REMARK INTER + INTRA:          -9.464
REMARK INTER:                  -9.464
REMARK INTRA:                   0.000
REMARK UNBOUND:                 0.000
REMARK  Name = ZINC000000525655
REMARK  1 active torsions:
REMARK  status: ('A' for Active; 'I' for Inactive)
REMARK    1  A    between atoms: C_8  and  C_9
REMARK                            x       y       z     vdW  Elec       q    Type
REMARK                         _______ _______ _______ _____ _____    ______ ____
ROOT
ATOM      1  C   UNL     1      -4.154   2.263 -20.605  0.00  0.00    +0.020 C 
ATOM      2  C   UNL     1      -3.989   2.776 -21.787  0.00  0.00    +0.036 C 
ATOM      3  C   UNL     1      -4.911   3.336 -22.513  0.00  0.00    +0.335 C 
ATOM      4  O   UNL     1      -4.365   3.725 -23.626  0.00  0.00    -0.457 OA
ATOM      5  C   UNL     1      -3.105   3.405 -23.589  0.00  0.00    +0.185 C 
ATOM      6  C   UNL     1      -2.140   3.572 -24.443  0.00  0.00    +0.052 C 
ATOM      7  C   UNL     1      -0.942   3.152 -24.162  0.00  0.00    -0.022 C 
ATOM      8  C   UNL     1       0.023   3.319 -25.016  0.00  0.00    +0.007 C 
ATOM      9  C   UNL     1       1.220   2.900 -24.734  0.00  0.00    +0.005 C 
ATOM     10  C   UNL     1       1.453   2.313 -23.597  0.00  0.00    +0.030 C 
ATOM     11  C   UNL     1       0.488   2.146 -22.742  0.00  0.00    -0.073 C 
ATOM     12  C   UNL     1       0.720   1.559 -21.606  0.00  0.00    +0.008 C 
ATOM     13  C   UNL     1      -1.174   3.739 -25.299  0.00  0.00    +0.012 C 
ATOM     14  C   UNL     1      -0.710   2.565 -23.024  0.00  0.00    +0.021 C 
ATOM     15  C   UNL     1      -1.676   2.399 -22.170  0.00  0.00    +0.020 C 
ATOM     16  O   UNL     1      -6.160   3.482 -22.182  0.00  0.00    -0.245 OA
ATOM     17  C   UNL     1      -2.873   2.818 -22.452  0.00  0.00    +0.067 C 
ENDROOT
TORSDOF 0
ENDMDL
MODEL 5
REMARK VINA RESULT:    -8.740      1.963      4.876
REMARK INTER + INTRA:          -8.740
REMARK INTER:                  -8.740
REMARK INTRA:                   0.000
REMARK UNBOUND:                 0.000
REMARK  Name = ZINC000000525655
REMARK  1 active torsions:
REMARK  status: ('A' for Active; 'I' for Inactive)
REMARK    1  A    between atoms: C_8  and  C_9
REMARK                            x       y       z     vdW  Elec       q    Type
REMARK                         _______ _______ _______ _____ _____    ______ ____
ROOT
ATOM      1  C   UNL     1      -4.358   3.299 -22.841  0.00  0.00    +0.020 C 
ATOM      2  C   UNL     1      -3.534   3.599 -23.800  0.00  0.00    +0.036 C 
ATOM      3  C   UNL     1      -3.833   4.233 -24.895  0.00  0.00    +0.335 C 
ATOM      4  O   UNL     1      -2.749   4.343 -25.604  0.00  0.00    -0.457 OA
ATOM      5  C   UNL     1      -1.781   3.776 -24.948  0.00  0.00    +0.185 C 
ATOM      6  C   UNL     1      -0.520   3.620 -25.223  0.00  0.00    +0.052 C 
ATOM      7  C   UNL     1       0.257   3.003 -24.382  0.00  0.00    -0.022 C 
ATOM      8  C   UNL     1       1.518   2.847 -24.656  0.00  0.00    +0.007 C 
ATOM      9  C   UNL     1       2.294   2.230 -23.815  0.00  0.00    +0.005 C 
ATOM     10  C   UNL     1       1.810   1.770 -22.700  0.00  0.00    +0.030 C 
ATOM     11  C   UNL     1       0.548   1.926 -22.425  0.00  0.00    -0.073 C 
ATOM     12  C   UNL     1       0.064   1.466 -21.310  0.00  0.00    +0.008 C 
ATOM     13  C   UNL     1       0.742   3.463 -25.497  0.00  0.00    +0.012 C 
ATOM     14  C   UNL     1      -0.229   2.543 -23.266  0.00  0.00    +0.021 C 
ATOM     15  C   UNL     1      -1.489   2.700 -22.992  0.00  0.00    +0.020 C 
ATOM     16  O   UNL     1      -5.009   4.680 -25.222  0.00  0.00    -0.245 OA
ATOM     17  C   UNL     1      -2.265   3.316 -23.833  0.00  0.00    +0.067 C 
ENDROOT
TORSDOF 0
ENDMDL
MODEL 6
REMARK VINA RESULT:    -8.544      1.243      1.786
REMARK INTER + INTRA:          -8.544
REMARK INTER:                  -8.544
REMARK INTRA:                   0.000
REMARK UNBOUND:                 0.000
REMARK  Name = ZINC000000525655
REMARK  1 active torsions:
REMARK  status: ('A' for Active; 'I' for Inactive)
REMARK    1  A    between atoms: C_8  and  C_9
REMARK                            x       y       z     vdW  Elec       q    Type
REMARK                         _______ _______ _______ _____ _____    ______ ____
ROOT
ATOM      1  C   UNL     1       2.278   1.779 -21.740  0.00  0.00    +0.020 C 
ATOM      2  C   UNL     1       1.811   2.116 -22.905  0.00  0.00    +0.036 C 
ATOM      3  C   UNL     1       2.480   2.141 -24.019  0.00  0.00    +0.335 C 
ATOM      4  O   UNL     1       1.674   2.527 -24.963  0.00  0.00    -0.457 OA
ATOM      5  C   UNL     1       0.506   2.740 -24.432  0.00  0.00    +0.185 C 
ATOM      6  C   UNL     1      -0.622   3.133 -24.943  0.00  0.00    +0.052 C 
ATOM      7  C   UNL     1      -1.667   3.272 -24.182  0.00  0.00    -0.022 C 
ATOM      8  C   UNL     1      -2.796   3.665 -24.693  0.00  0.00    +0.007 C 
ATOM      9  C   UNL     1      -3.840   3.804 -23.932  0.00  0.00    +0.005 C 
ATOM     10  C   UNL     1      -3.756   3.550 -22.659  0.00  0.00    +0.030 C 
ATOM     11  C   UNL     1      -2.627   3.157 -22.148  0.00  0.00    -0.073 C 
ATOM     12  C   UNL     1      -2.542   2.903 -20.876  0.00  0.00    +0.008 C 
ATOM     13  C   UNL     1      -1.752   3.526 -25.454  0.00  0.00    +0.012 C 
ATOM     14  C   UNL     1      -1.582   3.018 -22.909  0.00  0.00    +0.021 C 
ATOM     15  C   UNL     1      -0.453   2.625 -22.399  0.00  0.00    +0.020 C 
ATOM     16  O   UNL     1       3.735   1.833 -24.164  0.00  0.00    -0.245 OA
ATOM     17  C   UNL     1       0.591   2.486 -23.160  0.00  0.00    +0.067 C 
ENDROOT
TORSDOF 0
ENDMDL
MODEL 7
REMARK VINA RESULT:    -8.204      2.572      4.058
REMARK INTER + INTRA:          -8.204
REMARK INTER:                  -8.204
REMARK INTRA:                   0.000
REMARK UNBOUND:                 0.000
REMARK  Name = ZINC000000525655
REMARK  1 active torsions:
REMARK  status: ('A' for Active; 'I' for Inactive)
REMARK    1  A    between atoms: C_8  and  C_9
REMARK                            x       y       z     vdW  Elec       q    Type
REMARK                         _______ _______ _______ _____ _____    ______ ____
ROOT
ATOM      1  C   UNL     1       3.843   0.509 -21.263  0.00  0.00    +0.020 C 
ATOM      2  C   UNL     1       3.785   1.610 -21.949  0.00  0.00    +0.036 C 
ATOM      3  C   UNL     1       4.800   2.268 -22.427  0.00  0.00    +0.335 C 
ATOM      4  O   UNL     1       4.343   3.312 -23.052  0.00  0.00    -0.457 OA
ATOM      5  C   UNL     1       3.046   3.300 -22.961  0.00  0.00    +0.185 C 
ATOM      6  C   UNL     1       2.135   4.110 -23.410  0.00  0.00    +0.052 C 
ATOM      7  C   UNL     1       0.879   3.870 -23.179  0.00  0.00    -0.022 C 
ATOM      8  C   UNL     1      -0.032   4.681 -23.628  0.00  0.00    +0.007 C 
ATOM      9  C   UNL     1      -1.288   4.440 -23.396  0.00  0.00    +0.005 C 
ATOM     10  C   UNL     1      -1.633   3.388 -22.714  0.00  0.00    +0.030 C 
ATOM     11  C   UNL     1      -0.722   2.576 -22.264  0.00  0.00    -0.073 C 
ATOM     12  C   UNL     1      -1.067   1.524 -21.583  0.00  0.00    +0.008 C 
ATOM     13  C   UNL     1       1.224   4.922 -23.860  0.00  0.00    +0.012 C 
ATOM     14  C   UNL     1       0.534   2.817 -22.496  0.00  0.00    +0.021 C 
ATOM     15  C   UNL     1       1.445   2.007 -22.047  0.00  0.00    +0.020 C 
ATOM     16  O   UNL     1       6.051   1.939 -22.301  0.00  0.00    -0.245 OA
ATOM     17  C   UNL     1       2.701   2.248 -22.279  0.00  0.00    +0.067 C 
ENDROOT
TORSDOF 0
ENDMDL
MODEL 8
REMARK VINA RESULT:    -8.059      2.036      3.912
REMARK INTER + INTRA:          -8.059
REMARK INTER:                  -8.059
REMARK INTRA:                   0.000
REMARK UNBOUND:                 0.000
REMARK  Name = ZINC000000525655
REMARK  1 active torsions:
REMARK  status: ('A' for Active; 'I' for Inactive)
REMARK    1  A    between atoms: C_8  and  C_9
REMARK                            x       y       z     vdW  Elec       q    Type
REMARK                         _______ _______ _______ _____ _____    ______ ____
ROOT
ATOM      1  C   UNL     1      -5.204   2.995 -26.379  0.00  0.00    +0.020 C 
ATOM      2  C   UNL     1      -4.009   3.277 -25.951  0.00  0.00    +0.036 C 
ATOM      3  C   UNL     1      -2.967   3.509 -26.692  0.00  0.00    +0.335 C 
ATOM      4  O   UNL     1      -1.961   3.752 -25.905  0.00  0.00    -0.457 OA
ATOM      5  C   UNL     1      -2.383   3.671 -24.678  0.00  0.00    +0.185 C 
ATOM      6  C   UNL     1      -1.777   3.826 -23.539  0.00  0.00    +0.052 C 
ATOM      7  C   UNL     1      -2.436   3.689 -22.427  0.00  0.00    -0.022 C 
ATOM      8  C   UNL     1      -1.831   3.844 -21.287  0.00  0.00    +0.007 C 
ATOM      9  C   UNL     1      -2.491   3.707 -20.176  0.00  0.00    +0.005 C 
ATOM     10  C   UNL     1      -3.757   3.413 -20.205  0.00  0.00    +0.030 C 
ATOM     11  C   UNL     1      -4.364   3.257 -21.344  0.00  0.00    -0.073 C 
ATOM     12  C   UNL     1      -5.630   2.964 -21.372  0.00  0.00    +0.008 C 
ATOM     13  C   UNL     1      -1.170   3.982 -22.398  0.00  0.00    +0.012 C 
ATOM     14  C   UNL     1      -3.703   3.395 -22.456  0.00  0.00    +0.021 C 
ATOM     15  C   UNL     1      -4.309   3.240 -23.595  0.00  0.00    +0.020 C 
ATOM     16  O   UNL     1      -2.935   3.498 -27.992  0.00  0.00    -0.245 OA
ATOM     17  C   UNL     1      -3.649   3.378 -24.706  0.00  0.00    +0.067 C 
ENDROOT
TORSDOF 0
ENDMDL
MODEL 9
REMARK VINA RESULT:    -7.757      2.887      6.411
REMARK INTER + INTRA:          -7.757
REMARK INTER:                  -7.757
REMARK INTRA:                   0.000
REMARK UNBOUND:                 0.000
REMARK  Name = ZINC000000525655
REMARK  1 active torsions:
REMARK  status: ('A' for Active; 'I' for Inactive)
REMARK    1  A    between atoms: C_8  and  C_9
REMARK                            x       y       z     vdW  Elec       q    Type
REMARK                         _______ _______ _______ _____ _____    ______ ____
ROOT
ATOM      1  C   UNL     1      -1.239   2.296 -23.014  0.00  0.00    +0.020 C 
ATOM      2  C   UNL     1      -0.413   3.277 -23.225  0.00  0.00    +0.036 C 
ATOM      3  C   UNL     1      -0.732   4.473 -23.623  0.00  0.00    +0.335 C 
ATOM      4  O   UNL     1       0.361   5.169 -23.718  0.00  0.00    -0.457 OA
ATOM      5  C   UNL     1       1.356   4.404 -23.378  0.00  0.00    +0.185 C 
ATOM      6  C   UNL     1       2.635   4.622 -23.308  0.00  0.00    +0.052 C 
ATOM      7  C   UNL     1       3.437   3.670 -22.932  0.00  0.00    -0.022 C 
ATOM      8  C   UNL     1       4.717   3.887 -22.861  0.00  0.00    +0.007 C 
ATOM      9  C   UNL     1       5.518   2.935 -22.486  0.00  0.00    +0.005 C 
ATOM     10  C   UNL     1       5.039   1.765 -22.181  0.00  0.00    +0.030 C 
ATOM     11  C   UNL     1       3.760   1.547 -22.251  0.00  0.00    -0.073 C 
ATOM     12  C   UNL     1       3.281   0.377 -21.946  0.00  0.00    +0.008 C 
ATOM     13  C   UNL     1       3.916   4.840 -23.237  0.00  0.00    +0.012 C 
ATOM     14  C   UNL     1       2.958   2.500 -22.627  0.00  0.00    +0.021 C 
ATOM     15  C   UNL     1       1.678   2.282 -22.698  0.00  0.00    +0.020 C 
ATOM     16  O   UNL     1      -1.934   4.897 -23.880  0.00  0.00    -0.245 OA
ATOM     17  C   UNL     1       0.877   3.234 -23.073  0.00  0.00    +0.067 C 
ENDROOT
TORSDOF 0
ENDMDL
