MODEL 1
REMARK VINA RESULT:    -7.237      0.000      0.000
REMARK INTER + INTRA:          -7.959
REMARK INTER:                  -7.860
REMARK INTRA:                  -0.099
REMARK UNBOUND:                -0.088
REMARK  Name = ZINC000000057733
REMARK  3 active torsions:
REMARK  status: ('A' for Active; 'I' for Inactive)
REMARK    1  A    between atoms: C_1  and  O_2
REMARK    2  A    between atoms: O_2  and  C_3
REMARK    3  A    between atoms: C_13  and  O_14
REMARK                            x       y       z     vdW  Elec       q    Type
REMARK                         _______ _______ _______ _____ _____    ______ ____
ROOT
ATOM      1  C   UNL     1      -0.296   3.344 -23.609  0.00  0.00    +0.162 A 
ATOM      2  C   UNL     1      -0.855   3.370 -22.436  0.00  0.00    +0.061 A 
ATOM      3  C   UNL     1      -2.151   3.376 -22.333  0.00  0.00    +0.021 A 
ATOM      4  C   UNL     1      -2.710   3.401 -21.160  0.00  0.00    +0.018 A 
ATOM      5  C   UNL     1      -4.006   3.408 -21.058  0.00  0.00    +0.092 A 
ATOM      6  C   UNL     1      -4.743   3.389 -22.128  0.00  0.00    +0.337 A 
ATOM      7  O   UNL     1      -4.184   3.364 -23.301  0.00  0.00    -0.422 OA
ATOM      8  O   UNL     1      -6.038   3.396 -22.026  0.00  0.00    -0.245 OA
ATOM      9  C   UNL     1      -2.888   3.358 -23.404  0.00  0.00    +0.143 A 
ATOM     10  C   UNL     1      -2.328   3.332 -24.578  0.00  0.00    +0.096 A 
ATOM     11  C   UNL     1      -1.033   3.326 -24.680  0.00  0.00    +0.162 A 
ENDROOT
BRANCH   1  13
ATOM     12  C   UNL     1       1.694   2.411 -23.121  0.00  0.00    +0.277 C 
ATOM     13  O   UNL     1       1.000   3.338 -23.712  0.00  0.00    -0.491 OA
ENDBRANCH   1  13
BRANCH  11  14
ATOM     14  O   UNL     1      -0.474   3.300 -25.853  0.00  0.00    -0.503 OA
ATOM     15  H   UNL     1       0.201   2.676 -26.038  0.00  0.00    +0.292 HD
ENDBRANCH  11  14
TORSDOF 2
ENDMDL
MODEL 2
REMARK VINA RESULT:    -7.030      1.510      2.439
REMARK INTER + INTRA:          -7.735
REMARK INTER:                  -7.642
REMARK INTRA:                  -0.093
REMARK UNBOUND:                -0.088
REMARK  Name = ZINC000000057733
REMARK  3 active torsions:
REMARK  status: ('A' for Active; 'I' for Inactive)
REMARK    1  A    between atoms: C_1  and  O_2
REMARK    2  A    between atoms: O_2  and  C_3
REMARK    3  A    between atoms: C_13  and  O_14
REMARK                            x       y       z     vdW  Elec       q    Type
REMARK                         _______ _______ _______ _____ _____    ______ ____
ROOT
ATOM      1  C   UNL     1      -0.198   2.136 -23.027  0.00  0.00    +0.162 A 
ATOM      2  C   UNL     1      -1.057   2.671 -23.842  0.00  0.00    +0.061 A 
ATOM      3  C   UNL     1      -2.272   2.908 -23.443  0.00  0.00    +0.021 A 
ATOM      4  C   UNL     1      -3.131   3.443 -24.258  0.00  0.00    +0.018 A 
ATOM      5  C   UNL     1      -4.345   3.680 -23.859  0.00  0.00    +0.092 A 
ATOM      6  C   UNL     1      -4.701   3.381 -22.645  0.00  0.00    +0.337 A 
ATOM      7  O   UNL     1      -3.842   2.845 -21.830  0.00  0.00    -0.422 OA
ATOM      8  O   UNL     1      -5.915   3.617 -22.246  0.00  0.00    -0.245 OA
ATOM      9  C   UNL     1      -2.627   2.609 -22.229  0.00  0.00    +0.143 A 
ATOM     10  C   UNL     1      -1.767   2.073 -21.413  0.00  0.00    +0.096 A 
ATOM     11  C   UNL     1      -0.553   1.837 -21.812  0.00  0.00    +0.162 A 
ENDROOT
BRANCH   1  13
ATOM     12  C   UNL     1       1.502   2.543 -24.446  0.00  0.00    +0.277 C 
ATOM     13  O   UNL     1       1.016   1.900 -23.426  0.00  0.00    -0.491 OA
ENDBRANCH   1  13
BRANCH  11  14
ATOM     14  O   UNL     1       0.306   1.302 -20.997  0.00  0.00    -0.503 OA
ATOM     15  H   UNL     1       0.534   0.396 -21.083  0.00  0.00    +0.292 HD
ENDBRANCH  11  14
TORSDOF 2
ENDMDL
MODEL 3
REMARK VINA RESULT:    -6.882      1.321      4.667
REMARK INTER + INTRA:          -7.573
REMARK INTER:                  -7.482
REMARK INTRA:                  -0.091
REMARK UNBOUND:                -0.088
REMARK  Name = ZINC000000057733
REMARK  3 active torsions:
REMARK  status: ('A' for Active; 'I' for Inactive)
REMARK    1  A    between atoms: C_1  and  O_2
REMARK    2  A    between atoms: O_2  and  C_3
REMARK    3  A    between atoms: C_13  and  O_14
REMARK                            x       y       z     vdW  Elec       q    Type
REMARK                         _______ _______ _______ _____ _____    ______ ____
ROOT
ATOM      1  C   UNL     1      -4.129   3.643 -23.905  0.00  0.00    +0.162 A 
ATOM      2  C   UNL     1      -3.089   3.412 -23.162  0.00  0.00    +0.061 A 
ATOM      3  C   UNL     1      -1.903   3.378 -23.695  0.00  0.00    +0.021 A 
ATOM      4  C   UNL     1      -0.862   3.146 -22.951  0.00  0.00    +0.018 A 
ATOM      5  C   UNL     1       0.323   3.112 -23.484  0.00  0.00    +0.092 A 
ATOM      6  C   UNL     1       0.467   3.310 -24.761  0.00  0.00    +0.337 A 
ATOM      7  O   UNL     1      -0.573   3.542 -25.505  0.00  0.00    -0.422 OA
ATOM      8  O   UNL     1       1.652   3.276 -25.294  0.00  0.00    -0.245 OA
ATOM      9  C   UNL     1      -1.758   3.576 -24.971  0.00  0.00    +0.143 A 
ATOM     10  C   UNL     1      -2.800   3.808 -25.715  0.00  0.00    +0.096 A 
ATOM     11  C   UNL     1      -3.985   3.841 -25.182  0.00  0.00    +0.162 A 
ENDROOT
BRANCH   1  13
ATOM     12  C   UNL     1      -5.485   3.291 -22.142  0.00  0.00    +0.277 C 
ATOM     13  O   UNL     1      -5.314   3.677 -23.372  0.00  0.00    -0.491 OA
ENDBRANCH   1  13
BRANCH  11  14
ATOM     14  O   UNL     1      -5.025   4.073 -25.925  0.00  0.00    -0.503 OA
ATOM     15  H   UNL     1      -5.468   4.898 -25.869  0.00  0.00    +0.292 HD
ENDBRANCH  11  14
TORSDOF 2
ENDMDL
MODEL 4
REMARK VINA RESULT:    -6.666      2.706      4.357
REMARK INTER + INTRA:          -7.339
REMARK INTER:                  -7.247
REMARK INTRA:                  -0.092
REMARK UNBOUND:                -0.088
REMARK  Name = ZINC000000057733
REMARK  3 active torsions:
REMARK  status: ('A' for Active; 'I' for Inactive)
REMARK    1  A    between atoms: C_1  and  O_2
REMARK    2  A    between atoms: O_2  and  C_3
REMARK    3  A    between atoms: C_13  and  O_14
REMARK                            x       y       z     vdW  Elec       q    Type
REMARK                         _______ _______ _______ _____ _____    ______ ____
ROOT
ATOM      1  C   UNL     1      -0.809   3.328 -25.005  0.00  0.00    +0.162 A 
ATOM      2  C   UNL     1      -1.226   2.745 -23.921  0.00  0.00    +0.061 A 
ATOM      3  C   UNL     1      -0.373   2.370 -23.014  0.00  0.00    +0.021 A 
ATOM      4  C   UNL     1      -0.790   1.787 -21.930  0.00  0.00    +0.018 A 
ATOM      5  C   UNL     1       0.063   1.413 -21.024  0.00  0.00    +0.092 A 
ATOM      6  C   UNL     1       1.334   1.621 -21.202  0.00  0.00    +0.337 A 
ATOM      7  O   UNL     1       1.751   2.204 -22.286  0.00  0.00    -0.422 OA
ATOM      8  O   UNL     1       2.187   1.246 -20.296  0.00  0.00    -0.245 OA
ATOM      9  C   UNL     1       0.898   2.578 -23.192  0.00  0.00    +0.143 A 
ATOM     10  C   UNL     1       1.316   3.162 -24.277  0.00  0.00    +0.096 A 
ATOM     11  C   UNL     1       0.462   3.536 -25.183  0.00  0.00    +0.162 A 
ENDROOT
BRANCH   1  13
ATOM     12  C   UNL     1      -2.888   3.275 -25.866  0.00  0.00    +0.277 C 
ATOM     13  O   UNL     1      -1.662   3.703 -25.911  0.00  0.00    -0.491 OA
ENDBRANCH   1  13
BRANCH  11  14
ATOM     14  O   UNL     1       0.880   4.119 -26.267  0.00  0.00    -0.503 OA
ATOM     15  H   UNL     1       1.797   4.144 -26.463  0.00  0.00    +0.292 HD
ENDBRANCH  11  14
TORSDOF 2
ENDMDL
MODEL 5
REMARK VINA RESULT:    -6.626      1.510      5.007
REMARK INTER + INTRA:          -7.296
REMARK INTER:                  -7.202
REMARK INTRA:                  -0.094
REMARK UNBOUND:                -0.088
REMARK  Name = ZINC000000057733
REMARK  3 active torsions:
REMARK  status: ('A' for Active; 'I' for Inactive)
REMARK    1  A    between atoms: C_1  and  O_2
REMARK    2  A    between atoms: O_2  and  C_3
REMARK    3  A    between atoms: C_13  and  O_14
REMARK                            x       y       z     vdW  Elec       q    Type
REMARK                         _______ _______ _______ _____ _____    ______ ____
ROOT
ATOM      1  C   UNL     1      -3.696   3.279 -22.033  0.00  0.00    +0.162 A 
ATOM      2  C   UNL     1      -3.260   3.064 -23.238  0.00  0.00    +0.061 A 
ATOM      3  C   UNL     1      -2.097   3.519 -23.600  0.00  0.00    +0.021 A 
ATOM      4  C   UNL     1      -1.661   3.304 -24.805  0.00  0.00    +0.018 A 
ATOM      5  C   UNL     1      -0.498   3.759 -25.166  0.00  0.00    +0.092 A 
ATOM      6  C   UNL     1       0.229   4.430 -24.322  0.00  0.00    +0.337 A 
ATOM      7  O   UNL     1      -0.207   4.645 -23.117  0.00  0.00    -0.422 OA
ATOM      8  O   UNL     1       1.392   4.885 -24.683  0.00  0.00    -0.245 OA
ATOM      9  C   UNL     1      -1.370   4.190 -22.756  0.00  0.00    +0.143 A 
ATOM     10  C   UNL     1      -1.807   4.405 -21.550  0.00  0.00    +0.096 A 
ATOM     11  C   UNL     1      -2.970   3.950 -21.189  0.00  0.00    +0.162 A 
ENDROOT
BRANCH   1  13
ATOM     12  C   UNL     1      -5.935   3.246 -22.267  0.00  0.00    +0.277 C 
ATOM     13  O   UNL     1      -4.859   2.824 -21.672  0.00  0.00    -0.491 OA
ENDBRANCH   1  13
BRANCH  11  14
ATOM     14  O   UNL     1      -3.406   4.165 -19.984  0.00  0.00    -0.503 OA
ATOM     15  H   UNL     1      -3.818   4.980 -19.772  0.00  0.00    +0.292 HD
ENDBRANCH  11  14
TORSDOF 2
ENDMDL
MODEL 6
REMARK VINA RESULT:    -6.508      1.844      2.145
REMARK INTER + INTRA:          -7.166
REMARK INTER:                  -7.068
REMARK INTRA:                  -0.099
REMARK UNBOUND:                -0.088
REMARK  Name = ZINC000000057733
REMARK  3 active torsions:
REMARK  status: ('A' for Active; 'I' for Inactive)
REMARK    1  A    between atoms: C_1  and  O_2
REMARK    2  A    between atoms: O_2  and  C_3
REMARK    3  A    between atoms: C_13  and  O_14
REMARK                            x       y       z     vdW  Elec       q    Type
REMARK                         _______ _______ _______ _____ _____    ______ ____
ROOT
ATOM      1  C   UNL     1       1.242   3.569 -23.174  0.00  0.00    +0.162 A 
ATOM      2  C   UNL     1       0.482   2.638 -22.678  0.00  0.00    +0.061 A 
ATOM      3  C   UNL     1      -0.743   2.911 -22.338  0.00  0.00    +0.021 A 
ATOM      4  C   UNL     1      -1.503   1.980 -21.842  0.00  0.00    +0.018 A 
ATOM      5  C   UNL     1      -2.728   2.253 -21.503  0.00  0.00    +0.092 A 
ATOM      6  C   UNL     1      -3.192   3.457 -21.658  0.00  0.00    +0.337 A 
ATOM      7  O   UNL     1      -2.433   4.388 -22.154  0.00  0.00    -0.422 OA
ATOM      8  O   UNL     1      -4.417   3.731 -21.319  0.00  0.00    -0.245 OA
ATOM      9  C   UNL     1      -1.208   4.115 -22.494  0.00  0.00    +0.143 A 
ATOM     10  C   UNL     1      -0.448   5.046 -22.990  0.00  0.00    +0.096 A 
ATOM     11  C   UNL     1       0.777   4.773 -23.330  0.00  0.00    +0.162 A 
ENDROOT
BRANCH   1  13
ATOM     12  C   UNL     1       2.722   2.243 -24.233  0.00  0.00    +0.277 C 
ATOM     13  O   UNL     1       2.466   3.295 -23.513  0.00  0.00    -0.491 OA
ENDBRANCH   1  13
BRANCH  11  14
ATOM     14  O   UNL     1       1.536   5.703 -23.825  0.00  0.00    -0.503 OA
ATOM     15  H   UNL     1       1.159   6.397 -24.332  0.00  0.00    +0.292 HD
ENDBRANCH  11  14
TORSDOF 2
ENDMDL
MODEL 7
REMARK VINA RESULT:    -6.443      1.401      4.700
REMARK INTER + INTRA:          -7.096
REMARK INTER:                  -7.001
REMARK INTRA:                  -0.095
REMARK UNBOUND:                -0.088
REMARK  Name = ZINC000000057733
REMARK  3 active torsions:
REMARK  status: ('A' for Active; 'I' for Inactive)
REMARK    1  A    between atoms: C_1  and  O_2
REMARK    2  A    between atoms: O_2  and  C_3
REMARK    3  A    between atoms: C_13  and  O_14
REMARK                            x       y       z     vdW  Elec       q    Type
REMARK                         _______ _______ _______ _____ _____    ______ ____
ROOT
ATOM      1  C   UNL     1      -2.703   3.012 -22.737  0.00  0.00    +0.162 A 
ATOM      2  C   UNL     1      -1.956   2.263 -21.983  0.00  0.00    +0.061 A 
ATOM      3  C   UNL     1      -0.666   2.249 -22.154  0.00  0.00    +0.021 A 
ATOM      4  C   UNL     1       0.081   1.499 -21.400  0.00  0.00    +0.018 A 
ATOM      5  C   UNL     1       1.370   1.486 -21.570  0.00  0.00    +0.092 A 
ATOM      6  C   UNL     1       1.911   2.222 -22.495  0.00  0.00    +0.337 A 
ATOM      7  O   UNL     1       1.163   2.971 -23.250  0.00  0.00    -0.422 OA
ATOM      8  O   UNL     1       3.199   2.209 -22.666  0.00  0.00    -0.245 OA
ATOM      9  C   UNL     1      -0.125   2.985 -23.079  0.00  0.00    +0.143 A 
ATOM     10  C   UNL     1      -0.874   3.735 -23.833  0.00  0.00    +0.096 A 
ATOM     11  C   UNL     1      -2.162   3.748 -23.662  0.00  0.00    +0.162 A 
ENDROOT
BRANCH   1  13
ATOM     12  C   UNL     1      -4.493   2.818 -21.385  0.00  0.00    +0.277 C 
ATOM     13  O   UNL     1      -3.991   3.025 -22.566  0.00  0.00    -0.491 OA
ENDBRANCH   1  13
BRANCH  11  14
ATOM     14  O   UNL     1      -2.910   4.497 -24.417  0.00  0.00    -0.503 OA
ATOM     15  H   UNL     1      -3.307   5.270 -24.064  0.00  0.00    +0.292 HD
ENDBRANCH  11  14
TORSDOF 2
ENDMDL
MODEL 8
REMARK VINA RESULT:    -6.418      1.801      4.664
REMARK INTER + INTRA:          -7.069
REMARK INTER:                  -6.972
REMARK INTRA:                  -0.097
REMARK UNBOUND:                -0.088
REMARK  Name = ZINC000000057733
REMARK  3 active torsions:
REMARK  status: ('A' for Active; 'I' for Inactive)
REMARK    1  A    between atoms: C_1  and  O_2
REMARK    2  A    between atoms: O_2  and  C_3
REMARK    3  A    between atoms: C_13  and  O_14
REMARK                            x       y       z     vdW  Elec       q    Type
REMARK                         _______ _______ _______ _____ _____    ______ ____
ROOT
ATOM      1  C   UNL     1      -2.779   3.229 -23.644  0.00  0.00    +0.162 A 
ATOM      2  C   UNL     1      -1.531   3.065 -23.967  0.00  0.00    +0.061 A 
ATOM      3  C   UNL     1      -0.691   2.587 -23.096  0.00  0.00    +0.021 A 
ATOM      4  C   UNL     1       0.557   2.424 -23.419  0.00  0.00    +0.018 A 
ATOM      5  C   UNL     1       1.396   1.946 -22.549  0.00  0.00    +0.092 A 
ATOM      6  C   UNL     1       0.986   1.631 -21.356  0.00  0.00    +0.337 A 
ATOM      7  O   UNL     1      -0.262   1.795 -21.033  0.00  0.00    -0.422 OA
ATOM      8  O   UNL     1       1.825   1.153 -20.485  0.00  0.00    -0.245 OA
ATOM      9  C   UNL     1      -1.101   2.273 -21.903  0.00  0.00    +0.143 A 
ATOM     10  C   UNL     1      -2.350   2.436 -21.581  0.00  0.00    +0.096 A 
ATOM     11  C   UNL     1      -3.189   2.914 -22.451  0.00  0.00    +0.162 A 
ENDROOT
BRANCH   1  13
ATOM     12  C   UNL     1      -3.540   3.343 -25.760  0.00  0.00    +0.277 C 
ATOM     13  O   UNL     1      -3.618   3.707 -24.515  0.00  0.00    -0.491 OA
ENDBRANCH   1  13
BRANCH  11  14
ATOM     14  O   UNL     1      -4.437   3.078 -22.129  0.00  0.00    -0.503 OA
ATOM     15  H   UNL     1      -4.951   2.343 -21.856  0.00  0.00    +0.292 HD
ENDBRANCH  11  14
TORSDOF 2
ENDMDL
MODEL 9
REMARK VINA RESULT:    -6.311      1.880      3.171
REMARK INTER + INTRA:          -6.953
REMARK INTER:                  -6.864
REMARK INTRA:                  -0.088
REMARK UNBOUND:                -0.088
REMARK  Name = ZINC000000057733
REMARK  3 active torsions:
REMARK  status: ('A' for Active; 'I' for Inactive)
REMARK    1  A    between atoms: C_1  and  O_2
REMARK    2  A    between atoms: O_2  and  C_3
REMARK    3  A    between atoms: C_13  and  O_14
REMARK                            x       y       z     vdW  Elec       q    Type
REMARK                         _______ _______ _______ _____ _____    ______ ____
ROOT
ATOM      1  C   UNL     1       1.934   2.551 -22.562  0.00  0.00    +0.162 A 
ATOM      2  C   UNL     1       1.083   3.359 -23.122  0.00  0.00    +0.061 A 
ATOM      3  C   UNL     1      -0.190   3.221 -22.894  0.00  0.00    +0.021 A 
ATOM      4  C   UNL     1      -1.041   4.029 -23.454  0.00  0.00    +0.018 A 
ATOM      5  C   UNL     1      -2.313   3.891 -23.226  0.00  0.00    +0.092 A 
ATOM      6  C   UNL     1      -2.735   2.946 -22.439  0.00  0.00    +0.337 A 
ATOM      7  O   UNL     1      -1.884   2.139 -21.880  0.00  0.00    -0.422 OA
ATOM      8  O   UNL     1      -4.007   2.809 -22.212  0.00  0.00    -0.245 OA
ATOM      9  C   UNL     1      -0.611   2.276 -22.108  0.00  0.00    +0.143 A 
ATOM     10  C   UNL     1       0.241   1.468 -21.548  0.00  0.00    +0.096 A 
ATOM     11  C   UNL     1       1.513   1.606 -21.775  0.00  0.00    +0.162 A 
ENDROOT
BRANCH   1  13
ATOM     12  C   UNL     1       3.679   2.488 -23.984  0.00  0.00    +0.277 C 
ATOM     13  O   UNL     1       3.207   2.689 -22.790  0.00  0.00    -0.491 OA
ENDBRANCH   1  13
BRANCH  11  14
ATOM     14  O   UNL     1       2.364   0.798 -21.216  0.00  0.00    -0.503 OA
ATOM     15  H   UNL     1       2.925   1.108 -20.532  0.00  0.00    +0.292 HD
ENDBRANCH  11  14
TORSDOF 2
ENDMDL
