MODEL 1
REMARK VINA RESULT:   -11.784      0.000      0.000
REMARK INTER + INTRA:         -12.129
REMARK INTER:                 -12.129
REMARK INTRA:                   0.000
REMARK UNBOUND:                 0.000
REMARK  Name = ZINC000000401445
REMARK  3 active torsions:
REMARK  status: ('A' for Active; 'I' for Inactive)
REMARK    1  A    between atoms: C_1  and  C_2
REMARK    2  A    between atoms: C_15  and  C_16
REMARK    3  A    between atoms: C_20  and  O_21
REMARK                            x       y       z     vdW  Elec       q    Type
REMARK                         _______ _______ _______ _____ _____    ______ ____
ROOT
ATOM      1  C   UNL     1      -4.906   3.096 -21.916  0.00  0.00    +0.014 C 
ATOM      2  C   UNL     1      -3.996   3.282 -22.825  0.00  0.00    -0.003 C 
ATOM      3  C   UNL     1      -3.554   2.716 -21.741  0.00  0.00    +0.010 C 
ATOM      4  C   UNL     1      -2.299   2.391 -21.643  0.00  0.00    +0.005 C 
ATOM      5  C   UNL     1      -1.486   2.632 -22.629  0.00  0.00    -0.001 C 
ATOM      6  C   UNL     1      -1.929   3.197 -23.713  0.00  0.00    -0.004 C 
ATOM      7  C   UNL     1      -1.116   3.438 -24.698  0.00  0.00    +0.004 C 
ATOM      8  C   UNL     1       0.139   3.113 -24.600  0.00  0.00    +0.005 C 
ATOM      9  C   UNL     1       0.581   2.547 -23.517  0.00  0.00    +0.002 C 
ATOM     10  C   UNL     1       1.836   2.222 -23.419  0.00  0.00    +0.078 C 
ATOM     11  C   UNL     1       2.278   1.657 -22.335  0.00  0.00    +0.134 C 
ATOM     12  C   UNL     1       1.465   1.416 -21.349  0.00  0.00    +0.075 C 
ATOM     13  C   UNL     1       0.211   1.741 -21.447  0.00  0.00    +0.015 C 
ATOM     14  O   UNL     1       3.533   1.331 -22.237  0.00  0.00    -0.297 OA
ATOM     15  C   UNL     1      -0.232   2.307 -22.531  0.00  0.00    -0.025 C 
ATOM     16  C   UNL     1      -1.044   2.066 -21.545  0.00  0.00    +0.012 C 
ATOM     17  C   UNL     1      -5.179   3.697 -23.169  0.00  0.00    +0.121 C 
ATOM     18  C   UNL     1      -5.098   4.194 -24.368  0.00  0.00    +0.032 C 
ATOM     19  C   UNL     1      -3.865   4.086 -24.764  0.00  0.00    +0.007 C 
ATOM     20  C   UNL     1      -3.184   3.523 -23.811  0.00  0.00    +0.001 C 
ENDROOT
BRANCH  17  21
ATOM     21  O   UNL     1      -6.255   3.627 -22.443  0.00  0.00    -0.391 OA
ATOM     22  H   UNL     1      -6.012   3.465 -21.518  0.00  0.00    +0.210 HD
ENDBRANCH  17  21
TORSDOF 1
ENDMDL
MODEL 2
REMARK VINA RESULT:   -11.643      0.881      2.495
REMARK INTER + INTRA:         -11.983
REMARK INTER:                 -11.983
REMARK INTRA:                   0.000
REMARK UNBOUND:                 0.000
REMARK  Name = ZINC000000401445
REMARK  3 active torsions:
REMARK  status: ('A' for Active; 'I' for Inactive)
REMARK    1  A    between atoms: C_1  and  C_2
REMARK    2  A    between atoms: C_15  and  C_16
REMARK    3  A    between atoms: C_20  and  O_21
REMARK                            x       y       z     vdW  Elec       q    Type
REMARK                         _______ _______ _______ _____ _____    ______ ____
ROOT
ATOM      1  C   UNL     1      -4.602   3.844 -23.866  0.00  0.00    +0.014 C 
ATOM      2  C   UNL     1      -3.757   3.285 -23.052  0.00  0.00    -0.003 C 
ATOM      3  C   UNL     1      -3.234   3.659 -24.181  0.00  0.00    +0.010 C 
ATOM      4  C   UNL     1      -1.970   3.460 -24.410  0.00  0.00    +0.005 C 
ATOM      5  C   UNL     1      -1.229   2.887 -23.508  0.00  0.00    -0.001 C 
ATOM      6  C   UNL     1      -1.752   2.513 -22.378  0.00  0.00    -0.004 C 
ATOM      7  C   UNL     1      -1.011   1.941 -21.477  0.00  0.00    +0.004 C 
ATOM      8  C   UNL     1       0.254   1.742 -21.705  0.00  0.00    +0.005 C 
ATOM      9  C   UNL     1       0.777   2.116 -22.835  0.00  0.00    +0.002 C 
ATOM     10  C   UNL     1       2.041   1.917 -23.063  0.00  0.00    +0.078 C 
ATOM     11  C   UNL     1       2.564   2.291 -24.193  0.00  0.00    +0.134 C 
ATOM     12  C   UNL     1       1.823   2.864 -25.095  0.00  0.00    +0.075 C 
ATOM     13  C   UNL     1       0.559   3.063 -24.867  0.00  0.00    +0.015 C 
ATOM     14  O   UNL     1       3.828   2.092 -24.422  0.00  0.00    -0.297 OA
ATOM     15  C   UNL     1       0.035   2.689 -23.736  0.00  0.00    -0.025 C 
ATOM     16  C   UNL     1      -0.706   3.261 -24.638  0.00  0.00    +0.012 C 
ATOM     17  C   UNL     1      -4.968   3.366 -22.584  0.00  0.00    +0.121 C 
ATOM     18  C   UNL     1      -4.975   2.843 -21.394  0.00  0.00    +0.032 C 
ATOM     19  C   UNL     1      -3.769   2.439 -21.126  0.00  0.00    +0.007 C 
ATOM     20  C   UNL     1      -3.016   2.712 -22.150  0.00  0.00    +0.001 C 
ENDROOT
BRANCH  17  21
ATOM     21  O   UNL     1      -5.992   3.879 -23.199  0.00  0.00    -0.391 OA
ATOM     22  H   UNL     1      -6.614   3.174 -23.436  0.00  0.00    +0.210 HD
ENDBRANCH  17  21
TORSDOF 1
ENDMDL
MODEL 3
REMARK VINA RESULT:   -11.352      0.943      2.435
REMARK INTER + INTRA:         -11.684
REMARK INTER:                 -11.684
REMARK INTRA:                   0.000
REMARK UNBOUND:                 0.000
REMARK  Name = ZINC000000401445
REMARK  3 active torsions:
REMARK  status: ('A' for Active; 'I' for Inactive)
REMARK    1  A    between atoms: C_1  and  C_2
REMARK    2  A    between atoms: C_15  and  C_16
REMARK    3  A    between atoms: C_20  and  O_21
REMARK                            x       y       z     vdW  Elec       q    Type
REMARK                         _______ _______ _______ _____ _____    ______ ____
ROOT
ATOM      1  C   UNL     1      -3.675   4.300 -25.430  0.00  0.00    +0.014 C 
ATOM      2  C   UNL     1      -3.390   3.739 -24.293  0.00  0.00    -0.003 C 
ATOM      3  C   UNL     1      -2.374   3.853 -25.096  0.00  0.00    +0.010 C 
ATOM      4  C   UNL     1      -1.204   3.422 -24.729  0.00  0.00    +0.005 C 
ATOM      5  C   UNL     1      -1.050   2.877 -23.559  0.00  0.00    -0.001 C 
ATOM      6  C   UNL     1      -2.065   2.763 -22.756  0.00  0.00    -0.004 C 
ATOM      7  C   UNL     1      -1.911   2.218 -21.585  0.00  0.00    +0.004 C 
ATOM      8  C   UNL     1      -0.741   1.787 -21.218  0.00  0.00    +0.005 C 
ATOM      9  C   UNL     1       0.275   1.901 -22.021  0.00  0.00    +0.002 C 
ATOM     10  C   UNL     1       1.445   1.470 -21.654  0.00  0.00    +0.078 C 
ATOM     11  C   UNL     1       2.460   1.584 -22.457  0.00  0.00    +0.134 C 
ATOM     12  C   UNL     1       2.307   2.129 -23.628  0.00  0.00    +0.075 C 
ATOM     13  C   UNL     1       1.137   2.560 -23.995  0.00  0.00    +0.015 C 
ATOM     14  O   UNL     1       3.631   1.153 -22.090  0.00  0.00    -0.297 OA
ATOM     15  C   UNL     1       0.120   2.446 -23.191  0.00  0.00    -0.025 C 
ATOM     16  C   UNL     1      -0.034   2.991 -24.362  0.00  0.00    +0.012 C 
ATOM     17  C   UNL     1      -4.638   4.082 -24.415  0.00  0.00    +0.121 C 
ATOM     18  C   UNL     1      -5.255   3.749 -23.320  0.00  0.00    +0.032 C 
ATOM     19  C   UNL     1      -4.389   3.201 -22.522  0.00  0.00    +0.007 C 
ATOM     20  C   UNL     1      -3.236   3.195 -23.122  0.00  0.00    +0.001 C 
ENDROOT
BRANCH  17  21
ATOM     21  O   UNL     1      -5.176   4.657 -25.450  0.00  0.00    -0.391 OA
ATOM     22  H   UNL     1      -5.910   5.220 -25.162  0.00  0.00    +0.210 HD
ENDBRANCH  17  21
TORSDOF 1
ENDMDL
MODEL 4
REMARK VINA RESULT:   -11.217      0.773      5.578
REMARK INTER + INTRA:         -11.545
REMARK INTER:                 -11.545
REMARK INTRA:                   0.000
REMARK UNBOUND:                 0.000
REMARK  Name = ZINC000000401445
REMARK  3 active torsions:
REMARK  status: ('A' for Active; 'I' for Inactive)
REMARK    1  A    between atoms: C_1  and  C_2
REMARK    2  A    between atoms: C_15  and  C_16
REMARK    3  A    between atoms: C_20  and  O_21
REMARK                            x       y       z     vdW  Elec       q    Type
REMARK                         _______ _______ _______ _____ _____    ______ ____
ROOT
ATOM      1  C   UNL     1       2.112   1.479 -21.893  0.00  0.00    +0.014 C 
ATOM      2  C   UNL     1       1.350   2.050 -22.778  0.00  0.00    -0.003 C 
ATOM      3  C   UNL     1       0.728   1.697 -21.694  0.00  0.00    +0.010 C 
ATOM      4  C   UNL     1      -0.547   1.925 -21.572  0.00  0.00    +0.005 C 
ATOM      5  C   UNL     1      -1.198   2.507 -22.535  0.00  0.00    -0.001 C 
ATOM      6  C   UNL     1      -0.575   2.861 -23.620  0.00  0.00    -0.004 C 
ATOM      7  C   UNL     1      -1.225   3.442 -24.583  0.00  0.00    +0.004 C 
ATOM      8  C   UNL     1      -2.500   3.671 -24.461  0.00  0.00    +0.005 C 
ATOM      9  C   UNL     1      -3.123   3.317 -23.376  0.00  0.00    +0.002 C 
ATOM     10  C   UNL     1      -4.396   3.545 -23.255  0.00  0.00    +0.078 C 
ATOM     11  C   UNL     1      -5.019   3.192 -22.170  0.00  0.00    +0.134 C 
ATOM     12  C   UNL     1      -4.368   2.610 -21.207  0.00  0.00    +0.075 C 
ATOM     13  C   UNL     1      -3.095   2.382 -21.328  0.00  0.00    +0.015 C 
ATOM     14  O   UNL     1      -6.293   3.420 -22.048  0.00  0.00    -0.297 OA
ATOM     15  C   UNL     1      -2.471   2.735 -22.414  0.00  0.00    -0.025 C 
ATOM     16  C   UNL     1      -1.820   2.153 -21.450  0.00  0.00    +0.012 C 
ATOM     17  C   UNL     1       2.593   1.939 -23.143  0.00  0.00    +0.121 C 
ATOM     18  C   UNL     1       2.710   2.453 -24.332  0.00  0.00    +0.032 C 
ATOM     19  C   UNL     1       1.541   2.881 -24.702  0.00  0.00    +0.007 C 
ATOM     20  C   UNL     1       0.700   2.632 -23.742  0.00  0.00    +0.001 C 
ENDROOT
BRANCH  17  21
ATOM     21  O   UNL     1       3.551   1.408 -22.443  0.00  0.00    -0.391 OA
ATOM     22  H   UNL     1       4.085   0.831 -23.010  0.00  0.00    +0.210 HD
ENDBRANCH  17  21
TORSDOF 1
ENDMDL
MODEL 5
REMARK VINA RESULT:   -10.680      0.952      6.180
REMARK INTER + INTRA:         -10.992
REMARK INTER:                 -10.992
REMARK INTRA:                   0.000
REMARK UNBOUND:                 0.000
REMARK  Name = ZINC000000401445
REMARK  3 active torsions:
REMARK  status: ('A' for Active; 'I' for Inactive)
REMARK    1  A    between atoms: C_1  and  C_2
REMARK    2  A    between atoms: C_15  and  C_16
REMARK    3  A    between atoms: C_20  and  O_21
REMARK                            x       y       z     vdW  Elec       q    Type
REMARK                         _______ _______ _______ _____ _____    ______ ____
ROOT
ATOM      1  C   UNL     1       2.864   2.380 -24.471  0.00  0.00    +0.014 C 
ATOM      2  C   UNL     1       2.023   2.174 -23.502  0.00  0.00    -0.003 C 
ATOM      3  C   UNL     1       1.494   2.726 -24.554  0.00  0.00    +0.010 C 
ATOM      4  C   UNL     1       0.227   3.019 -24.568  0.00  0.00    +0.005 C 
ATOM      5  C   UNL     1      -0.510   2.761 -23.529  0.00  0.00    -0.001 C 
ATOM      6  C   UNL     1       0.018   2.210 -22.477  0.00  0.00    -0.004 C 
ATOM      7  C   UNL     1      -0.719   1.951 -21.438  0.00  0.00    +0.004 C 
ATOM      8  C   UNL     1      -1.986   2.245 -21.451  0.00  0.00    +0.005 C 
ATOM      9  C   UNL     1      -2.514   2.796 -22.503  0.00  0.00    +0.002 C 
ATOM     10  C   UNL     1      -3.780   3.089 -22.516  0.00  0.00    +0.078 C 
ATOM     11  C   UNL     1      -4.309   3.640 -23.568  0.00  0.00    +0.134 C 
ATOM     12  C   UNL     1      -3.571   3.899 -24.607  0.00  0.00    +0.075 C 
ATOM     13  C   UNL     1      -2.305   3.605 -24.594  0.00  0.00    +0.015 C 
ATOM     14  O   UNL     1      -5.576   3.934 -23.582  0.00  0.00    -0.297 OA
ATOM     15  C   UNL     1      -1.776   3.054 -23.542  0.00  0.00    -0.025 C 
ATOM     16  C   UNL     1      -1.039   3.312 -24.581  0.00  0.00    +0.012 C 
ATOM     17  C   UNL     1       3.236   1.790 -23.238  0.00  0.00    +0.121 C 
ATOM     18  C   UNL     1       3.249   1.295 -22.037  0.00  0.00    +0.032 C 
ATOM     19  C   UNL     1       2.043   1.373 -21.558  0.00  0.00    +0.007 C 
ATOM     20  C   UNL     1       1.285   1.916 -22.464  0.00  0.00    +0.001 C 
ENDROOT
BRANCH  17  21
ATOM     21  O   UNL     1       4.259   1.885 -24.036  0.00  0.00    -0.391 OA
ATOM     22  H   UNL     1       5.051   1.549 -23.588  0.00  0.00    +0.210 HD
ENDBRANCH  17  21
TORSDOF 1
ENDMDL
MODEL 6
REMARK VINA RESULT:    -9.723      2.072      3.833
REMARK INTER + INTRA:         -10.007
REMARK INTER:                 -10.007
REMARK INTRA:                   0.000
REMARK UNBOUND:                 0.000
REMARK  Name = ZINC000000401445
REMARK  3 active torsions:
REMARK  status: ('A' for Active; 'I' for Inactive)
REMARK    1  A    between atoms: C_1  and  C_2
REMARK    2  A    between atoms: C_15  and  C_16
REMARK    3  A    between atoms: C_20  and  O_21
REMARK                            x       y       z     vdW  Elec       q    Type
REMARK                         _______ _______ _______ _____ _____    ______ ____
ROOT
ATOM      1  C   UNL     1      -1.523   4.640 -23.757  0.00  0.00    +0.014 C 
ATOM      2  C   UNL     1      -0.914   3.686 -23.118  0.00  0.00    -0.003 C 
ATOM      3  C   UNL     1      -0.113   4.548 -23.671  0.00  0.00    +0.010 C 
ATOM      4  C   UNL     1       1.175   4.406 -23.555  0.00  0.00    +0.005 C 
ATOM      5  C   UNL     1       1.660   3.403 -22.886  0.00  0.00    -0.001 C 
ATOM      6  C   UNL     1       0.859   2.542 -22.332  0.00  0.00    -0.004 C 
ATOM      7  C   UNL     1       1.345   1.539 -21.663  0.00  0.00    +0.004 C 
ATOM      8  C   UNL     1       2.632   1.398 -21.547  0.00  0.00    +0.005 C 
ATOM      9  C   UNL     1       3.433   2.259 -22.100  0.00  0.00    +0.002 C 
ATOM     10  C   UNL     1       4.720   2.118 -21.984  0.00  0.00    +0.078 C 
ATOM     11  C   UNL     1       5.521   2.979 -22.537  0.00  0.00    +0.134 C 
ATOM     12  C   UNL     1       5.035   3.982 -23.207  0.00  0.00    +0.075 C 
ATOM     13  C   UNL     1       3.749   4.124 -23.323  0.00  0.00    +0.015 C 
ATOM     14  O   UNL     1       6.808   2.838 -22.421  0.00  0.00    -0.297 OA
ATOM     15  C   UNL     1       2.947   3.262 -22.769  0.00  0.00    -0.025 C 
ATOM     16  C   UNL     1       2.461   4.265 -23.439  0.00  0.00    +0.012 C 
ATOM     17  C   UNL     1      -2.211   3.601 -23.085  0.00  0.00    +0.121 C 
ATOM     18  C   UNL     1      -2.526   2.545 -22.395  0.00  0.00    +0.032 C 
ATOM     19  C   UNL     1      -1.425   1.978 -22.002  0.00  0.00    +0.007 C 
ATOM     20  C   UNL     1      -0.428   2.683 -22.449  0.00  0.00    +0.001 C 
ENDROOT
BRANCH  17  21
ATOM     21  O   UNL     1      -3.046   4.426 -23.644  0.00  0.00    -0.391 OA
ATOM     22  H   UNL     1      -2.657   4.777 -24.459  0.00  0.00    +0.210 HD
ENDBRANCH  17  21
TORSDOF 1
ENDMDL
