MODEL 1
REMARK VINA RESULT:    -9.766      0.000      0.000
REMARK INTER + INTRA:          -9.766
REMARK INTER:                  -9.766
REMARK INTRA:                   0.000
REMARK UNBOUND:                 0.000
REMARK  Name = ZINC000013423813
REMARK  3 active torsions:
REMARK  status: ('A' for Active; 'I' for Inactive)
REMARK    1  A    between atoms: C_1  and  C_2
REMARK    2  A    between atoms: C_6  and  C_7
REMARK    3  A    between atoms: C_14  and  C_15
REMARK                            x       y       z     vdW  Elec       q    Type
REMARK                         _______ _______ _______ _____ _____    ______ ____
ROOT
ATOM      1  C   UNL     1      -3.258   3.756 -27.075  0.00  0.00    +0.007 C 
ATOM      2  C   UNL     1      -3.459   3.582 -25.803  0.00  0.00    -0.014 C 
ATOM      3  C   UNL     1      -4.649   3.740 -25.305  0.00  0.00    +0.003 C 
ATOM      4  C   UNL     1      -4.850   3.566 -24.033  0.00  0.00    +0.003 C 
ATOM      5  C   UNL     1      -3.860   3.234 -23.257  0.00  0.00    +0.037 C 
ATOM      6  C   UNL     1      -4.061   3.060 -21.985  0.00  0.00    +0.097 C 
ATOM      7  O   UNL     1      -4.262   2.886 -20.712  0.00  0.00    -0.361 OA
ATOM      8  C   UNL     1      -5.320   3.343 -22.145  0.00  0.00    +0.044 C 
ATOM      9  C   UNL     1      -3.072   2.729 -21.210  0.00  0.00    +0.191 C 
ATOM     10  C   UNL     1      -1.881   2.571 -21.708  0.00  0.00    +0.212 C 
ATOM     11  O   UNL     1      -0.746   2.248 -21.163  0.00  0.00    -0.458 OA
ATOM     12  C   UNL     1       0.156   2.223 -22.098  0.00  0.00    +0.311 C 
ATOM     13  C   UNL     1      -0.421   2.530 -23.222  0.00  0.00    +0.101 C 
ATOM     14  C   UNL     1       0.159   2.608 -24.383  0.00  0.00    +0.019 C 
ATOM     15  O   UNL     1       1.415   1.940 -21.938  0.00  0.00    -0.251 OA
ATOM     16  C   UNL     1      -1.680   2.745 -22.980  0.00  0.00    +0.046 C 
ATOM     17  C   UNL     1      -2.670   3.076 -23.755  0.00  0.00    +0.008 C 
ATOM     18  C   UNL     1      -2.469   3.251 -25.028  0.00  0.00    +0.004 C 
ENDROOT
TORSDOF 0
ENDMDL
MODEL 2
REMARK VINA RESULT:    -9.745      1.938      3.510
REMARK INTER + INTRA:          -9.745
REMARK INTER:                  -9.745
REMARK INTRA:                   0.000
REMARK UNBOUND:                 0.000
REMARK  Name = ZINC000013423813
REMARK  3 active torsions:
REMARK  status: ('A' for Active; 'I' for Inactive)
REMARK    1  A    between atoms: C_1  and  C_2
REMARK    2  A    between atoms: C_6  and  C_7
REMARK    3  A    between atoms: C_14  and  C_15
REMARK                            x       y       z     vdW  Elec       q    Type
REMARK                         _______ _______ _______ _____ _____    ______ ____
ROOT
ATOM      1  C   UNL     1      -4.077   2.245 -19.985  0.00  0.00    +0.007 C 
ATOM      2  C   UNL     1      -4.062   2.688 -21.207  0.00  0.00    -0.014 C 
ATOM      3  C   UNL     1      -5.155   3.135 -21.749  0.00  0.00    +0.003 C 
ATOM      4  C   UNL     1      -5.141   3.578 -22.971  0.00  0.00    +0.003 C 
ATOM      5  C   UNL     1      -4.033   3.573 -23.652  0.00  0.00    +0.037 C 
ATOM      6  C   UNL     1      -4.018   4.016 -24.874  0.00  0.00    +0.097 C 
ATOM      7  O   UNL     1      -4.003   4.459 -26.096  0.00  0.00    -0.361 OA
ATOM      8  C   UNL     1      -5.289   4.277 -24.794  0.00  0.00    +0.044 C 
ATOM      9  C   UNL     1      -2.910   4.011 -25.553  0.00  0.00    +0.191 C 
ATOM     10  C   UNL     1      -1.817   3.563 -25.011  0.00  0.00    +0.212 C 
ATOM     11  O   UNL     1      -0.604   3.451 -25.464  0.00  0.00    -0.458 OA
ATOM     12  C   UNL     1       0.131   2.940 -24.522  0.00  0.00    +0.311 C 
ATOM     13  C   UNL     1      -0.628   2.735 -23.486  0.00  0.00    +0.101 C 
ATOM     14  C   UNL     1      -0.249   2.233 -22.349  0.00  0.00    +0.019 C 
ATOM     15  O   UNL     1       1.402   2.678 -24.601  0.00  0.00    -0.251 OA
ATOM     16  C   UNL     1      -1.831   3.120 -23.789  0.00  0.00    +0.046 C 
ATOM     17  C   UNL     1      -2.939   3.126 -23.109  0.00  0.00    +0.008 C 
ATOM     18  C   UNL     1      -2.954   2.683 -21.886  0.00  0.00    +0.004 C 
ENDROOT
TORSDOF 0
ENDMDL
MODEL 3
REMARK VINA RESULT:    -9.600      2.129      4.982
REMARK INTER + INTRA:          -9.600
REMARK INTER:                  -9.600
REMARK INTRA:                   0.000
REMARK UNBOUND:                 0.000
REMARK  Name = ZINC000013423813
REMARK  3 active torsions:
REMARK  status: ('A' for Active; 'I' for Inactive)
REMARK    1  A    between atoms: C_1  and  C_2
REMARK    2  A    between atoms: C_6  and  C_7
REMARK    3  A    between atoms: C_14  and  C_15
REMARK                            x       y       z     vdW  Elec       q    Type
REMARK                         _______ _______ _______ _____ _____    ______ ____
ROOT
ATOM      1  C   UNL     1       0.437   1.511 -20.648  0.00  0.00    +0.007 C 
ATOM      2  C   UNL     1      -0.118   1.995 -21.719  0.00  0.00    -0.014 C 
ATOM      3  C   UNL     1       0.600   2.217 -22.780  0.00  0.00    +0.003 C 
ATOM      4  C   UNL     1       0.045   2.701 -23.851  0.00  0.00    +0.003 C 
ATOM      5  C   UNL     1      -1.229   2.964 -23.862  0.00  0.00    +0.037 C 
ATOM      6  C   UNL     1      -1.784   3.448 -24.933  0.00  0.00    +0.097 C 
ATOM      7  O   UNL     1      -2.339   3.932 -26.004  0.00  0.00    -0.361 OA
ATOM      8  C   UNL     1      -0.635   3.424 -25.539  0.00  0.00    +0.044 C 
ATOM      9  C   UNL     1      -3.057   3.710 -24.943  0.00  0.00    +0.191 C 
ATOM     10  C   UNL     1      -3.775   3.488 -23.882  0.00  0.00    +0.212 C 
ATOM     11  O   UNL     1      -5.040   3.660 -23.636  0.00  0.00    -0.458 OA
ATOM     12  C   UNL     1      -5.266   3.282 -22.413  0.00  0.00    +0.311 C 
ATOM     13  C   UNL     1      -4.141   2.877 -21.903  0.00  0.00    +0.101 C 
ATOM     14  C   UNL     1      -3.968   2.423 -20.697  0.00  0.00    +0.019 C 
ATOM     15  O   UNL     1      -6.415   3.305 -21.807  0.00  0.00    -0.251 OA
ATOM     16  C   UNL     1      -3.220   3.004 -22.811  0.00  0.00    +0.046 C 
ATOM     17  C   UNL     1      -1.947   2.742 -22.801  0.00  0.00    +0.008 C 
ATOM     18  C   UNL     1      -1.391   2.258 -21.729  0.00  0.00    +0.004 C 
ENDROOT
TORSDOF 0
ENDMDL
MODEL 4
REMARK VINA RESULT:    -9.120      2.342      4.130
REMARK INTER + INTRA:          -9.120
REMARK INTER:                  -9.120
REMARK INTRA:                   0.000
REMARK UNBOUND:                 0.000
REMARK  Name = ZINC000013423813
REMARK  3 active torsions:
REMARK  status: ('A' for Active; 'I' for Inactive)
REMARK    1  A    between atoms: C_1  and  C_2
REMARK    2  A    between atoms: C_6  and  C_7
REMARK    3  A    between atoms: C_14  and  C_15
REMARK                            x       y       z     vdW  Elec       q    Type
REMARK                         _______ _______ _______ _____ _____    ______ ____
ROOT
ATOM      1  C   UNL     1       0.526   2.015 -22.237  0.00  0.00    +0.007 C 
ATOM      2  C   UNL     1      -0.738   2.311 -22.188  0.00  0.00    -0.014 C 
ATOM      3  C   UNL     1      -1.392   2.189 -21.072  0.00  0.00    +0.003 C 
ATOM      4  C   UNL     1      -2.657   2.485 -21.023  0.00  0.00    +0.003 C 
ATOM      5  C   UNL     1      -3.269   2.903 -22.092  0.00  0.00    +0.037 C 
ATOM      6  C   UNL     1      -4.533   3.199 -22.044  0.00  0.00    +0.097 C 
ATOM      7  O   UNL     1      -5.798   3.495 -21.996  0.00  0.00    -0.361 OA
ATOM      8  C   UNL     1      -4.558   2.887 -20.782  0.00  0.00    +0.044 C 
ATOM      9  C   UNL     1      -5.144   3.616 -23.113  0.00  0.00    +0.191 C 
ATOM     10  C   UNL     1      -4.490   3.738 -24.230  0.00  0.00    +0.212 C 
ATOM     11  O   UNL     1      -4.857   4.126 -25.415  0.00  0.00    -0.458 OA
ATOM     12  C   UNL     1      -3.819   4.069 -26.195  0.00  0.00    +0.311 C 
ATOM     13  C   UNL     1      -2.810   3.647 -25.492  0.00  0.00    +0.101 C 
ATOM     14  C   UNL     1      -1.599   3.461 -25.928  0.00  0.00    +0.019 C 
ATOM     15  O   UNL     1      -3.794   4.381 -27.457  0.00  0.00    -0.251 OA
ATOM     16  C   UNL     1      -3.225   3.442 -24.278  0.00  0.00    +0.046 C 
ATOM     17  C   UNL     1      -2.614   3.024 -23.209  0.00  0.00    +0.008 C 
ATOM     18  C   UNL     1      -1.349   2.728 -23.257  0.00  0.00    +0.004 C 
ENDROOT
TORSDOF 0
ENDMDL
MODEL 5
REMARK VINA RESULT:    -8.846      2.854      4.512
REMARK INTER + INTRA:          -8.846
REMARK INTER:                  -8.846
REMARK INTRA:                   0.000
REMARK UNBOUND:                 0.000
REMARK  Name = ZINC000013423813
REMARK  3 active torsions:
REMARK  status: ('A' for Active; 'I' for Inactive)
REMARK    1  A    between atoms: C_1  and  C_2
REMARK    2  A    between atoms: C_6  and  C_7
REMARK    3  A    between atoms: C_14  and  C_15
REMARK                            x       y       z     vdW  Elec       q    Type
REMARK                         _______ _______ _______ _____ _____    ______ ____
ROOT
ATOM      1  C   UNL     1      -2.773   3.754 -21.080  0.00  0.00    +0.007 C 
ATOM      2  C   UNL     1      -1.917   3.592 -22.045  0.00  0.00    -0.014 C 
ATOM      3  C   UNL     1      -2.136   4.131 -23.207  0.00  0.00    +0.003 C 
ATOM      4  C   UNL     1      -1.280   3.969 -24.171  0.00  0.00    +0.003 C 
ATOM      5  C   UNL     1      -0.203   3.267 -23.974  0.00  0.00    +0.037 C 
ATOM      6  C   UNL     1       0.653   3.104 -24.938  0.00  0.00    +0.097 C 
ATOM      7  O   UNL     1       1.509   2.942 -25.902  0.00  0.00    -0.361 OA
ATOM      8  C   UNL     1      -0.095   3.821 -25.723  0.00  0.00    +0.044 C 
ATOM      9  C   UNL     1       1.729   2.402 -24.740  0.00  0.00    +0.191 C 
ATOM     10  C   UNL     1       1.948   1.862 -23.578  0.00  0.00    +0.212 C 
ATOM     11  O   UNL     1       2.924   1.130 -23.130  0.00  0.00    -0.458 OA
ATOM     12  C   UNL     1       2.671   0.840 -21.888  0.00  0.00    +0.311 C 
ATOM     13  C   UNL     1       1.538   1.393 -21.569  0.00  0.00    +0.101 C 
ATOM     14  C   UNL     1       0.955   1.326 -20.410  0.00  0.00    +0.019 C 
ATOM     15  O   UNL     1       3.419   0.123 -21.103  0.00  0.00    -0.251 OA
ATOM     16  C   UNL     1       1.092   2.025 -22.614  0.00  0.00    +0.046 C 
ATOM     17  C   UNL     1       0.016   2.727 -22.812  0.00  0.00    +0.008 C 
ATOM     18  C   UNL     1      -0.841   2.889 -21.847  0.00  0.00    +0.004 C 
ENDROOT
TORSDOF 0
ENDMDL
MODEL 6
REMARK VINA RESULT:    -8.659      1.460      4.426
REMARK INTER + INTRA:          -8.659
REMARK INTER:                  -8.659
REMARK INTRA:                   0.000
REMARK UNBOUND:                 0.000
REMARK  Name = ZINC000013423813
REMARK  3 active torsions:
REMARK  status: ('A' for Active; 'I' for Inactive)
REMARK    1  A    between atoms: C_1  and  C_2
REMARK    2  A    between atoms: C_6  and  C_7
REMARK    3  A    between atoms: C_14  and  C_15
REMARK                            x       y       z     vdW  Elec       q    Type
REMARK                         _______ _______ _______ _____ _____    ______ ____
ROOT
ATOM      1  C   UNL     1       1.175   4.451 -26.051  0.00  0.00    +0.007 C 
ATOM      2  C   UNL     1       1.003   3.777 -24.953  0.00  0.00    -0.014 C 
ATOM      3  C   UNL     1       2.021   3.220 -24.367  0.00  0.00    +0.003 C 
ATOM      4  C   UNL     1       1.850   2.546 -23.269  0.00  0.00    +0.003 C 
ATOM      5  C   UNL     1       0.660   2.428 -22.757  0.00  0.00    +0.037 C 
ATOM      6  C   UNL     1       0.489   1.754 -21.659  0.00  0.00    +0.097 C 
ATOM      7  O   UNL     1       0.317   1.079 -20.561  0.00  0.00    -0.361 OA
ATOM      8  C   UNL     1       1.763   1.500 -21.616  0.00  0.00    +0.044 C 
ATOM      9  C   UNL     1      -0.700   1.637 -21.148  0.00  0.00    +0.191 C 
ATOM     10  C   UNL     1      -1.718   2.194 -21.734  0.00  0.00    +0.212 C 
ATOM     11  O   UNL     1      -2.983   2.227 -21.436  0.00  0.00    -0.458 OA
ATOM     12  C   UNL     1      -3.593   2.921 -22.349  0.00  0.00    +0.311 C 
ATOM     13  C   UNL     1      -2.705   3.318 -23.212  0.00  0.00    +0.101 C 
ATOM     14  C   UNL     1      -2.936   4.038 -24.270  0.00  0.00    +0.019 C 
ATOM     15  O   UNL     1      -4.867   3.175 -22.392  0.00  0.00    -0.251 OA
ATOM     16  C   UNL     1      -1.547   2.868 -22.832  0.00  0.00    +0.046 C 
ATOM     17  C   UNL     1      -0.358   2.985 -23.343  0.00  0.00    +0.008 C 
ATOM     18  C   UNL     1      -0.186   3.660 -24.442  0.00  0.00    +0.004 C 
ENDROOT
TORSDOF 0
ENDMDL
MODEL 7
REMARK VINA RESULT:    -8.330      1.215      3.556
REMARK INTER + INTRA:          -8.330
REMARK INTER:                  -8.330
REMARK INTRA:                   0.000
REMARK UNBOUND:                 0.000
REMARK  Name = ZINC000013423813
REMARK  3 active torsions:
REMARK  status: ('A' for Active; 'I' for Inactive)
REMARK    1  A    between atoms: C_1  and  C_2
REMARK    2  A    between atoms: C_6  and  C_7
REMARK    3  A    between atoms: C_14  and  C_15
REMARK                            x       y       z     vdW  Elec       q    Type
REMARK                         _______ _______ _______ _____ _____    ______ ____
ROOT
ATOM      1  C   UNL     1      -5.184   3.378 -26.259  0.00  0.00    +0.007 C 
ATOM      2  C   UNL     1      -4.012   3.423 -25.699  0.00  0.00    -0.014 C 
ATOM      3  C   UNL     1      -2.940   3.452 -26.434  0.00  0.00    +0.003 C 
ATOM      4  C   UNL     1      -1.768   3.498 -25.874  0.00  0.00    +0.003 C 
ATOM      5  C   UNL     1      -1.667   3.513 -24.578  0.00  0.00    +0.037 C 
ATOM      6  C   UNL     1      -0.495   3.558 -24.018  0.00  0.00    +0.097 C 
ATOM      7  O   UNL     1       0.677   3.603 -23.458  0.00  0.00    -0.361 OA
ATOM      8  C   UNL     1       0.065   3.566 -25.191  0.00  0.00    +0.044 C 
ATOM      9  C   UNL     1      -0.394   3.574 -22.722  0.00  0.00    +0.191 C 
ATOM     10  C   UNL     1      -1.466   3.544 -21.987  0.00  0.00    +0.212 C 
ATOM     11  O   UNL     1      -1.636   3.551 -20.698  0.00  0.00    -0.458 OA
ATOM     12  C   UNL     1      -2.914   3.509 -20.462  0.00  0.00    +0.311 C 
ATOM     13  C   UNL     1      -3.533   3.477 -21.605  0.00  0.00    +0.101 C 
ATOM     14  C   UNL     1      -4.821   3.432 -21.775  0.00  0.00    +0.019 C 
ATOM     15  O   UNL     1      -3.474   3.501 -19.289  0.00  0.00    -0.251 OA
ATOM     16  C   UNL     1      -2.638   3.499 -22.547  0.00  0.00    +0.046 C 
ATOM     17  C   UNL     1      -2.738   3.484 -23.842  0.00  0.00    +0.008 C 
ATOM     18  C   UNL     1      -3.911   3.438 -24.403  0.00  0.00    +0.004 C 
ENDROOT
TORSDOF 0
ENDMDL
MODEL 8
REMARK VINA RESULT:    -8.239      1.863      3.710
REMARK INTER + INTRA:          -8.239
REMARK INTER:                  -8.239
REMARK INTRA:                   0.000
REMARK UNBOUND:                 0.000
REMARK  Name = ZINC000013423813
REMARK  3 active torsions:
REMARK  status: ('A' for Active; 'I' for Inactive)
REMARK    1  A    between atoms: C_1  and  C_2
REMARK    2  A    between atoms: C_6  and  C_7
REMARK    3  A    between atoms: C_14  and  C_15
REMARK                            x       y       z     vdW  Elec       q    Type
REMARK                         _______ _______ _______ _____ _____    ______ ____
ROOT
ATOM      1  C   UNL     1       1.230   3.019 -24.469  0.00  0.00    +0.007 C 
ATOM      2  C   UNL     1      -0.049   3.193 -24.625  0.00  0.00    -0.014 C 
ATOM      3  C   UNL     1      -0.525   3.508 -25.792  0.00  0.00    +0.003 C 
ATOM      4  C   UNL     1      -1.803   3.682 -25.948  0.00  0.00    +0.003 C 
ATOM      5  C   UNL     1      -2.607   3.540 -24.935  0.00  0.00    +0.037 C 
ATOM      6  C   UNL     1      -3.886   3.714 -25.091  0.00  0.00    +0.097 C 
ATOM      7  O   UNL     1      -5.164   3.888 -25.247  0.00  0.00    -0.361 OA
ATOM      8  C   UNL     1      -3.697   3.978 -26.350  0.00  0.00    +0.044 C 
ATOM      9  C   UNL     1      -4.688   3.573 -24.079  0.00  0.00    +0.191 C 
ATOM     10  C   UNL     1      -4.213   3.257 -22.911  0.00  0.00    +0.212 C 
ATOM     11  O   UNL     1      -4.788   3.059 -21.762  0.00  0.00    -0.458 OA
ATOM     12  C   UNL     1      -3.864   2.764 -20.896  0.00  0.00    +0.311 C 
ATOM     13  C   UNL     1      -2.718   2.778 -21.511  0.00  0.00    +0.101 C 
ATOM     14  C   UNL     1      -1.560   2.531 -20.974  0.00  0.00    +0.019 C 
ATOM     15  O   UNL     1      -4.053   2.500 -19.638  0.00  0.00    -0.251 OA
ATOM     16  C   UNL     1      -2.934   3.083 -22.755  0.00  0.00    +0.046 C 
ATOM     17  C   UNL     1      -2.131   3.225 -23.768  0.00  0.00    +0.008 C 
ATOM     18  C   UNL     1      -0.852   3.051 -23.612  0.00  0.00    +0.004 C 
ENDROOT
TORSDOF 0
ENDMDL
MODEL 9
REMARK VINA RESULT:    -8.089      1.736      4.201
REMARK INTER + INTRA:          -8.089
REMARK INTER:                  -8.089
REMARK INTRA:                   0.000
REMARK UNBOUND:                 0.000
REMARK  Name = ZINC000013423813
REMARK  3 active torsions:
REMARK  status: ('A' for Active; 'I' for Inactive)
REMARK    1  A    between atoms: C_1  and  C_2
REMARK    2  A    between atoms: C_6  and  C_7
REMARK    3  A    between atoms: C_14  and  C_15
REMARK                            x       y       z     vdW  Elec       q    Type
REMARK                         _______ _______ _______ _____ _____    ______ ____
ROOT
ATOM      1  C   UNL     1       1.727   2.699 -25.521  0.00  0.00    +0.007 C 
ATOM      2  C   UNL     1       0.832   2.661 -24.579  0.00  0.00    -0.014 C 
ATOM      3  C   UNL     1       1.175   2.331 -23.370  0.00  0.00    +0.003 C 
ATOM      4  C   UNL     1       0.279   2.293 -22.428  0.00  0.00    +0.003 C 
ATOM      5  C   UNL     1      -0.959   2.585 -22.696  0.00  0.00    +0.037 C 
ATOM      6  C   UNL     1      -1.854   2.547 -21.754  0.00  0.00    +0.097 C 
ATOM      7  O   UNL     1      -2.749   2.510 -20.812  0.00  0.00    -0.361 OA
ATOM      8  C   UNL     1      -0.942   2.188 -20.901  0.00  0.00    +0.044 C 
ATOM      9  C   UNL     1      -3.092   2.840 -22.022  0.00  0.00    +0.191 C 
ATOM     10  C   UNL     1      -3.435   3.169 -23.232  0.00  0.00    +0.212 C 
ATOM     11  O   UNL     1      -4.579   3.499 -23.752  0.00  0.00    -0.458 OA
ATOM     12  C   UNL     1      -4.391   3.741 -25.016  0.00  0.00    +0.311 C 
ATOM     13  C   UNL     1      -3.130   3.560 -25.276  0.00  0.00    +0.101 C 
ATOM     14  C   UNL     1      -2.561   3.708 -26.435  0.00  0.00    +0.019 C 
ATOM     15  O   UNL     1      -5.304   4.100 -25.869  0.00  0.00    -0.251 OA
ATOM     16  C   UNL     1      -2.539   3.207 -24.174  0.00  0.00    +0.046 C 
ATOM     17  C   UNL     1      -1.302   2.915 -23.906  0.00  0.00    +0.008 C 
ATOM     18  C   UNL     1      -0.406   2.953 -24.848  0.00  0.00    +0.004 C 
ENDROOT
TORSDOF 0
ENDMDL
