MODEL 1
REMARK VINA RESULT:   -10.026      0.000      0.000
REMARK INTER + INTRA:         -10.026
REMARK INTER:                 -10.026
REMARK INTRA:                   0.000
REMARK UNBOUND:                 0.000
REMARK  Name = ZINC000004104820
REMARK  3 active torsions:
REMARK  status: ('A' for Active; 'I' for Inactive)
REMARK    1  A    between atoms: C_1  and  C_2
REMARK    2  A    between atoms: C_10  and  C_11
REMARK    3  A    between atoms: C_16  and  C_17
REMARK                            x       y       z     vdW  Elec       q    Type
REMARK                         _______ _______ _______ _____ _____    ______ ____
ROOT
ATOM      1  C   UNL     1      -0.695   2.014 -21.265  0.00  0.00    +0.019 C 
ATOM      2  C   UNL     1      -0.503   2.316 -22.514  0.00  0.00    +0.101 C 
ATOM      3  C   UNL     1       0.624   2.232 -23.157  0.00  0.00    +0.311 C 
ATOM      4  O   UNL     1       0.419   2.619 -24.380  0.00  0.00    -0.458 OA
ATOM      5  C   UNL     1      -0.835   2.942 -24.494  0.00  0.00    +0.212 C 
ATOM      6  C   UNL     1      -1.532   3.383 -25.499  0.00  0.00    +0.191 C 
ATOM      7  O   UNL     1      -2.229   3.824 -26.505  0.00  0.00    -0.361 OA
ATOM      8  C   UNL     1      -2.798   3.637 -25.351  0.00  0.00    +0.097 C 
ATOM      9  C   UNL     1      -3.932   4.038 -25.846  0.00  0.00    +0.044 C 
ATOM     10  C   UNL     1      -3.368   3.449 -24.198  0.00  0.00    +0.040 C 
ATOM     11  C   UNL     1      -4.635   3.703 -24.050  0.00  0.00    +0.037 C 
ATOM     12  C   UNL     1      -5.204   3.515 -22.896  0.00  0.00    +0.151 C 
ATOM     13  O   UNL     1      -5.774   3.328 -21.743  0.00  0.00    -0.365 OA
ATOM     14  C   UNL     1      -4.508   3.074 -21.891  0.00  0.00    +0.093 C 
ATOM     15  C   UNL     1      -4.434   2.711 -20.645  0.00  0.00    +0.044 C 
ATOM     16  C   UNL     1      -3.241   2.821 -22.039  0.00  0.00    +0.038 C 
ATOM     17  C   UNL     1      -2.672   3.009 -23.193  0.00  0.00    +0.011 C 
ATOM     18  O   UNL     1       1.758   1.831 -22.662  0.00  0.00    -0.251 OA
ATOM     19  C   UNL     1      -1.405   2.755 -23.341  0.00  0.00    +0.046 C 
ENDROOT
TORSDOF 0
ENDMDL
MODEL 2
REMARK VINA RESULT:    -9.605      1.260      3.426
REMARK INTER + INTRA:          -9.605
REMARK INTER:                  -9.605
REMARK INTRA:                   0.000
REMARK UNBOUND:                 0.000
REMARK  Name = ZINC000004104820
REMARK  3 active torsions:
REMARK  status: ('A' for Active; 'I' for Inactive)
REMARK    1  A    between atoms: C_1  and  C_2
REMARK    2  A    between atoms: C_10  and  C_11
REMARK    3  A    between atoms: C_16  and  C_17
REMARK                            x       y       z     vdW  Elec       q    Type
REMARK                         _______ _______ _______ _____ _____    ______ ____
ROOT
ATOM      1  C   UNL     1       0.090   2.642 -24.396  0.00  0.00    +0.019 C 
ATOM      2  C   UNL     1      -0.422   2.507 -23.209  0.00  0.00    +0.101 C 
ATOM      3  C   UNL     1       0.217   2.137 -22.139  0.00  0.00    +0.311 C 
ATOM      4  O   UNL     1      -0.629   2.119 -21.152  0.00  0.00    -0.458 OA
ATOM      5  C   UNL     1      -1.790   2.478 -21.612  0.00  0.00    +0.212 C 
ATOM      6  C   UNL     1      -2.948   2.617 -21.037  0.00  0.00    +0.191 C 
ATOM      7  O   UNL     1      -4.107   2.756 -20.463  0.00  0.00    -0.361 OA
ATOM      8  C   UNL     1      -3.979   2.995 -21.734  0.00  0.00    +0.097 C 
ATOM      9  C   UNL     1      -5.242   3.294 -21.805  0.00  0.00    +0.044 C 
ATOM     10  C   UNL     1      -3.851   3.234 -23.005  0.00  0.00    +0.040 C 
ATOM     11  C   UNL     1      -4.882   3.613 -23.702  0.00  0.00    +0.037 C 
ATOM     12  C   UNL     1      -4.754   3.852 -24.973  0.00  0.00    +0.151 C 
ATOM     13  O   UNL     1      -4.626   4.092 -26.245  0.00  0.00    -0.365 OA
ATOM     14  C   UNL     1      -3.595   3.713 -25.548  0.00  0.00    +0.093 C 
ATOM     15  C   UNL     1      -2.853   3.771 -26.614  0.00  0.00    +0.044 C 
ATOM     16  C   UNL     1      -2.565   3.335 -24.851  0.00  0.00    +0.038 C 
ATOM     17  C   UNL     1      -2.693   3.096 -23.580  0.00  0.00    +0.011 C 
ATOM     18  O   UNL     1       1.480   1.838 -22.068  0.00  0.00    -0.251 OA
ATOM     19  C   UNL     1      -1.663   2.717 -22.883  0.00  0.00    +0.046 C 
ENDROOT
TORSDOF 0
ENDMDL
MODEL 3
REMARK VINA RESULT:    -9.596      0.865      4.289
REMARK INTER + INTRA:          -9.596
REMARK INTER:                  -9.596
REMARK INTRA:                   0.000
REMARK UNBOUND:                 0.000
REMARK  Name = ZINC000004104820
REMARK  3 active torsions:
REMARK  status: ('A' for Active; 'I' for Inactive)
REMARK    1  A    between atoms: C_1  and  C_2
REMARK    2  A    between atoms: C_10  and  C_11
REMARK    3  A    between atoms: C_16  and  C_17
REMARK                            x       y       z     vdW  Elec       q    Type
REMARK                         _______ _______ _______ _____ _____    ______ ____
ROOT
ATOM      1  C   UNL     1      -4.098   2.369 -20.674  0.00  0.00    +0.019 C 
ATOM      2  C   UNL     1      -4.420   2.842 -21.841  0.00  0.00    +0.101 C 
ATOM      3  C   UNL     1      -5.609   3.214 -22.213  0.00  0.00    +0.311 C 
ATOM      4  O   UNL     1      -5.534   3.628 -23.442  0.00  0.00    -0.458 OA
ATOM      5  C   UNL     1      -4.299   3.512 -23.830  0.00  0.00    +0.212 C 
ATOM      6  C   UNL     1      -3.712   3.786 -24.958  0.00  0.00    +0.191 C 
ATOM      7  O   UNL     1      -3.125   4.061 -26.085  0.00  0.00    -0.361 OA
ATOM      8  C   UNL     1      -2.437   3.575 -25.095  0.00  0.00    +0.097 C 
ATOM      9  C   UNL     1      -1.361   3.611 -25.825  0.00  0.00    +0.044 C 
ATOM     10  C   UNL     1      -1.749   3.089 -24.105  0.00  0.00    +0.040 C 
ATOM     11  C   UNL     1      -0.473   2.877 -24.243  0.00  0.00    +0.037 C 
ATOM     12  C   UNL     1       0.216   2.392 -23.253  0.00  0.00    +0.151 C 
ATOM     13  O   UNL     1       0.904   1.906 -22.262  0.00  0.00    -0.365 OA
ATOM     14  C   UNL     1      -0.371   2.118 -22.125  0.00  0.00    +0.093 C 
ATOM     15  C   UNL     1      -0.313   1.679 -20.903  0.00  0.00    +0.044 C 
ATOM     16  C   UNL     1      -1.647   2.329 -21.988  0.00  0.00    +0.038 C 
ATOM     17  C   UNL     1      -2.335   2.815 -22.978  0.00  0.00    +0.011 C 
ATOM     18  O   UNL     1      -6.684   3.178 -21.483  0.00  0.00    -0.251 OA
ATOM     19  C   UNL     1      -3.610   3.027 -22.841  0.00  0.00    +0.046 C 
ENDROOT
TORSDOF 0
ENDMDL
MODEL 4
REMARK VINA RESULT:    -9.224      1.127      4.570
REMARK INTER + INTRA:          -9.224
REMARK INTER:                  -9.224
REMARK INTRA:                   0.000
REMARK UNBOUND:                 0.000
REMARK  Name = ZINC000004104820
REMARK  3 active torsions:
REMARK  status: ('A' for Active; 'I' for Inactive)
REMARK    1  A    between atoms: C_1  and  C_2
REMARK    2  A    between atoms: C_10  and  C_11
REMARK    3  A    between atoms: C_16  and  C_17
REMARK                            x       y       z     vdW  Elec       q    Type
REMARK                         _______ _______ _______ _____ _____    ______ ____
ROOT
ATOM      1  C   UNL     1      -1.554   3.480 -25.932  0.00  0.00    +0.019 C 
ATOM      2  C   UNL     1      -2.765   3.665 -25.499  0.00  0.00    +0.101 C 
ATOM      3  C   UNL     1      -3.772   4.092 -26.203  0.00  0.00    +0.311 C 
ATOM      4  O   UNL     1      -4.811   4.145 -25.425  0.00  0.00    -0.458 OA
ATOM      5  C   UNL     1      -4.448   3.751 -24.241  0.00  0.00    +0.212 C 
ATOM      6  C   UNL     1      -5.106   3.625 -23.126  0.00  0.00    +0.191 C 
ATOM      7  O   UNL     1      -5.763   3.498 -22.011  0.00  0.00    -0.361 OA
ATOM      8  C   UNL     1      -4.498   3.201 -22.058  0.00  0.00    +0.097 C 
ATOM      9  C   UNL     1      -4.527   2.884 -20.797  0.00  0.00    +0.044 C 
ATOM     10  C   UNL     1      -3.234   2.904 -22.104  0.00  0.00    +0.040 C 
ATOM     11  C   UNL     1      -2.626   2.481 -21.034  0.00  0.00    +0.037 C 
ATOM     12  C   UNL     1      -1.362   2.184 -21.080  0.00  0.00    +0.151 C 
ATOM     13  O   UNL     1      -0.097   1.887 -21.127  0.00  0.00    -0.365 OA
ATOM     14  C   UNL     1      -0.704   2.310 -22.195  0.00  0.00    +0.093 C 
ATOM     15  C   UNL     1       0.406   2.212 -22.865  0.00  0.00    +0.044 C 
ATOM     16  C   UNL     1      -1.311   2.734 -23.264  0.00  0.00    +0.038 C 
ATOM     17  C   UNL     1      -2.576   3.031 -23.217  0.00  0.00    +0.011 C 
ATOM     18  O   UNL     1      -3.743   4.409 -27.463  0.00  0.00    -0.251 OA
ATOM     19  C   UNL     1      -3.183   3.454 -24.286  0.00  0.00    +0.046 C 
ENDROOT
TORSDOF 0
ENDMDL
MODEL 5
REMARK VINA RESULT:    -8.975      1.048      3.655
REMARK INTER + INTRA:          -8.975
REMARK INTER:                  -8.975
REMARK INTRA:                   0.000
REMARK UNBOUND:                 0.000
REMARK  Name = ZINC000004104820
REMARK  3 active torsions:
REMARK  status: ('A' for Active; 'I' for Inactive)
REMARK    1  A    between atoms: C_1  and  C_2
REMARK    2  A    between atoms: C_10  and  C_11
REMARK    3  A    between atoms: C_16  and  C_17
REMARK                            x       y       z     vdW  Elec       q    Type
REMARK                         _______ _______ _______ _____ _____    ______ ____
ROOT
ATOM      1  C   UNL     1      -4.874   3.522 -25.479  0.00  0.00    +0.019 C 
ATOM      2  C   UNL     1      -3.581   3.423 -25.566  0.00  0.00    +0.101 C 
ATOM      3  C   UNL     1      -2.877   3.537 -26.652  0.00  0.00    +0.311 C 
ATOM      4  O   UNL     1      -1.626   3.378 -26.339  0.00  0.00    -0.458 OA
ATOM      5  C   UNL     1      -1.557   3.166 -25.058  0.00  0.00    +0.212 C 
ATOM      6  C   UNL     1      -0.549   2.951 -24.265  0.00  0.00    +0.191 C 
ATOM      7  O   UNL     1       0.459   2.736 -23.472  0.00  0.00    -0.361 OA
ATOM      8  C   UNL     1      -0.750   2.764 -22.994  0.00  0.00    +0.097 C 
ATOM      9  C   UNL     1      -0.284   2.532 -21.803  0.00  0.00    +0.044 C 
ATOM     10  C   UNL     1      -1.958   2.793 -22.517  0.00  0.00    +0.040 C 
ATOM     11  C   UNL     1      -2.159   2.606 -21.245  0.00  0.00    +0.037 C 
ATOM     12  C   UNL     1      -3.368   2.634 -20.768  0.00  0.00    +0.151 C 
ATOM     13  O   UNL     1      -4.576   2.663 -20.290  0.00  0.00    -0.365 OA
ATOM     14  C   UNL     1      -4.375   2.849 -21.561  0.00  0.00    +0.093 C 
ATOM     15  C   UNL     1      -5.655   2.990 -21.742  0.00  0.00    +0.044 C 
ATOM     16  C   UNL     1      -4.175   3.036 -22.831  0.00  0.00    +0.038 C 
ATOM     17  C   UNL     1      -2.966   3.008 -23.309  0.00  0.00    +0.011 C 
ATOM     18  O   UNL     1      -3.342   3.769 -27.844  0.00  0.00    -0.251 OA
ATOM     19  C   UNL     1      -2.765   3.194 -24.580  0.00  0.00    +0.046 C 
ENDROOT
TORSDOF 0
ENDMDL
MODEL 6
REMARK VINA RESULT:    -8.813      2.030      3.038
REMARK INTER + INTRA:          -8.813
REMARK INTER:                  -8.813
REMARK INTRA:                   0.000
REMARK UNBOUND:                 0.000
REMARK  Name = ZINC000004104820
REMARK  3 active torsions:
REMARK  status: ('A' for Active; 'I' for Inactive)
REMARK    1  A    between atoms: C_1  and  C_2
REMARK    2  A    between atoms: C_10  and  C_11
REMARK    3  A    between atoms: C_16  and  C_17
REMARK                            x       y       z     vdW  Elec       q    Type
REMARK                         _______ _______ _______ _____ _____    ______ ____
ROOT
ATOM      1  C   UNL     1       0.784   1.433 -20.392  0.00  0.00    +0.019 C 
ATOM      2  C   UNL     1       1.466   1.513 -21.496  0.00  0.00    +0.101 C 
ATOM      3  C   UNL     1       2.654   1.024 -21.698  0.00  0.00    +0.311 C 
ATOM      4  O   UNL     1       3.002   1.306 -22.918  0.00  0.00    -0.458 OA
ATOM      5  C   UNL     1       2.030   1.969 -23.470  0.00  0.00    +0.212 C 
ATOM      6  C   UNL     1       1.887   2.473 -24.660  0.00  0.00    +0.191 C 
ATOM      7  O   UNL     1       1.743   2.977 -25.850  0.00  0.00    -0.361 OA
ATOM      8  C   UNL     1       0.794   3.106 -24.971  0.00  0.00    +0.097 C 
ATOM      9  C   UNL     1       0.081   3.762 -25.837  0.00  0.00    +0.044 C 
ATOM     10  C   UNL     1      -0.155   3.234 -24.092  0.00  0.00    +0.040 C 
ATOM     11  C   UNL     1      -1.248   3.867 -24.403  0.00  0.00    +0.037 C 
ATOM     12  C   UNL     1      -2.196   3.995 -23.524  0.00  0.00    +0.151 C 
ATOM     13  O   UNL     1      -3.145   4.123 -22.645  0.00  0.00    -0.365 OA
ATOM     14  C   UNL     1      -2.053   3.491 -22.334  0.00  0.00    +0.093 C 
ATOM     15  C   UNL     1      -2.518   3.274 -21.140  0.00  0.00    +0.044 C 
ATOM     16  C   UNL     1      -0.961   2.859 -22.023  0.00  0.00    +0.038 C 
ATOM     17  C   UNL     1      -0.012   2.730 -22.902  0.00  0.00    +0.011 C 
ATOM     18  O   UNL     1       3.367   0.368 -20.832  0.00  0.00    -0.251 OA
ATOM     19  C   UNL     1       1.081   2.098 -22.592  0.00  0.00    +0.046 C 
ENDROOT
TORSDOF 0
ENDMDL
MODEL 7
REMARK VINA RESULT:    -8.746      1.597      3.930
REMARK INTER + INTRA:          -8.746
REMARK INTER:                  -8.746
REMARK INTRA:                   0.000
REMARK UNBOUND:                 0.000
REMARK  Name = ZINC000004104820
REMARK  3 active torsions:
REMARK  status: ('A' for Active; 'I' for Inactive)
REMARK    1  A    between atoms: C_1  and  C_2
REMARK    2  A    between atoms: C_10  and  C_11
REMARK    3  A    between atoms: C_16  and  C_17
REMARK                            x       y       z     vdW  Elec       q    Type
REMARK                         _______ _______ _______ _____ _____    ______ ____
ROOT
ATOM      1  C   UNL     1      -4.813   3.351 -21.977  0.00  0.00    +0.019 C 
ATOM      2  C   UNL     1      -3.534   3.382 -21.748  0.00  0.00    +0.101 C 
ATOM      3  C   UNL     1      -2.966   3.385 -20.579  0.00  0.00    +0.311 C 
ATOM      4  O   UNL     1      -1.680   3.420 -20.757  0.00  0.00    -0.458 OA
ATOM      5  C   UNL     1      -1.452   3.438 -22.037  0.00  0.00    +0.212 C 
ATOM      6  C   UNL     1      -0.348   3.473 -22.724  0.00  0.00    +0.191 C 
ATOM      7  O   UNL     1       0.756   3.508 -23.410  0.00  0.00    -0.361 OA
ATOM      8  C   UNL     1      -0.391   3.484 -24.023  0.00  0.00    +0.097 C 
ATOM      9  C   UNL     1       0.221   3.511 -25.169  0.00  0.00    +0.044 C 
ATOM     10  C   UNL     1      -1.537   3.460 -24.635  0.00  0.00    +0.040 C 
ATOM     11  C   UNL     1      -1.580   3.472 -25.935  0.00  0.00    +0.037 C 
ATOM     12  C   UNL     1      -2.726   3.448 -26.547  0.00  0.00    +0.151 C 
ATOM     13  O   UNL     1      -3.873   3.425 -27.160  0.00  0.00    -0.365 OA
ATOM     14  C   UNL     1      -3.830   3.413 -25.861  0.00  0.00    +0.093 C 
ATOM     15  C   UNL     1      -5.129   3.380 -25.818  0.00  0.00    +0.044 C 
ATOM     16  C   UNL     1      -3.787   3.402 -24.562  0.00  0.00    +0.038 C 
ATOM     17  C   UNL     1      -2.641   3.426 -23.949  0.00  0.00    +0.011 C 
ATOM     18  O   UNL     1      -3.578   3.359 -19.432  0.00  0.00    -0.251 OA
ATOM     19  C   UNL     1      -2.598   3.414 -22.650  0.00  0.00    +0.046 C 
ENDROOT
TORSDOF 0
ENDMDL
MODEL 8
REMARK VINA RESULT:    -8.729      1.641      5.546
REMARK INTER + INTRA:          -8.729
REMARK INTER:                  -8.729
REMARK INTRA:                   0.000
REMARK UNBOUND:                 0.000
REMARK  Name = ZINC000004104820
REMARK  3 active torsions:
REMARK  status: ('A' for Active; 'I' for Inactive)
REMARK    1  A    between atoms: C_1  and  C_2
REMARK    2  A    between atoms: C_10  and  C_11
REMARK    3  A    between atoms: C_16  and  C_17
REMARK                            x       y       z     vdW  Elec       q    Type
REMARK                         _______ _______ _______ _____ _____    ______ ____
ROOT
ATOM      1  C   UNL     1      -3.041   3.902 -24.144  0.00  0.00    +0.019 C 
ATOM      2  C   UNL     1      -2.751   3.283 -23.039  0.00  0.00    +0.101 C 
ATOM      3  C   UNL     1      -3.571   3.047 -22.057  0.00  0.00    +0.311 C 
ATOM      4  O   UNL     1      -2.917   2.410 -21.133  0.00  0.00    -0.458 OA
ATOM      5  C   UNL     1      -1.693   2.251 -21.542  0.00  0.00    +0.212 C 
ATOM      6  C   UNL     1      -0.659   1.685 -20.994  0.00  0.00    +0.191 C 
ATOM      7  O   UNL     1       0.375   1.118 -20.446  0.00  0.00    -0.361 OA
ATOM      8  C   UNL     1       0.478   1.658 -21.625  0.00  0.00    +0.097 C 
ATOM      9  C   UNL     1       1.731   1.316 -21.673  0.00  0.00    +0.044 C 
ATOM     10  C   UNL     1       0.580   2.198 -22.803  0.00  0.00    +0.040 C 
ATOM     11  C   UNL     1       1.717   2.172 -23.433  0.00  0.00    +0.037 C 
ATOM     12  C   UNL     1       1.819   2.712 -24.611  0.00  0.00    +0.151 C 
ATOM     13  O   UNL     1       1.922   3.252 -25.789  0.00  0.00    -0.365 OA
ATOM     14  C   UNL     1       0.785   3.278 -25.159  0.00  0.00    +0.093 C 
ATOM     15  C   UNL     1       0.247   3.917 -26.155  0.00  0.00    +0.044 C 
ATOM     16  C   UNL     1      -0.352   3.304 -24.529  0.00  0.00    +0.038 C 
ATOM     17  C   UNL     1      -0.454   2.764 -23.351  0.00  0.00    +0.011 C 
ATOM     18  O   UNL     1      -4.824   3.389 -22.009  0.00  0.00    -0.251 OA
ATOM     19  C   UNL     1      -1.590   2.791 -22.720  0.00  0.00    +0.046 C 
ENDROOT
TORSDOF 0
ENDMDL
MODEL 9
REMARK VINA RESULT:    -8.544      1.281      4.459
REMARK INTER + INTRA:          -8.544
REMARK INTER:                  -8.544
REMARK INTRA:                   0.000
REMARK UNBOUND:                 0.000
REMARK  Name = ZINC000004104820
REMARK  3 active torsions:
REMARK  status: ('A' for Active; 'I' for Inactive)
REMARK    1  A    between atoms: C_1  and  C_2
REMARK    2  A    between atoms: C_10  and  C_11
REMARK    3  A    between atoms: C_16  and  C_17
REMARK                            x       y       z     vdW  Elec       q    Type
REMARK                         _______ _______ _______ _____ _____    ______ ____
ROOT
ATOM      1  C   UNL     1      -3.131   2.515 -21.278  0.00  0.00    +0.019 C 
ATOM      2  C   UNL     1      -3.067   2.969 -22.495  0.00  0.00    +0.101 C 
ATOM      3  C   UNL     1      -4.058   3.454 -23.183  0.00  0.00    +0.311 C 
ATOM      4  O   UNL     1      -3.603   3.802 -24.350  0.00  0.00    -0.458 OA
ATOM      5  C   UNL     1      -2.332   3.532 -24.383  0.00  0.00    +0.212 C 
ATOM      6  C   UNL     1      -1.434   3.689 -25.310  0.00  0.00    +0.191 C 
ATOM      7  O   UNL     1      -0.535   3.845 -26.236  0.00  0.00    -0.361 OA
ATOM      8  C   UNL     1      -0.204   3.330 -25.089  0.00  0.00    +0.097 C 
ATOM      9  C   UNL     1       1.025   3.214 -25.497  0.00  0.00    +0.044 C 
ATOM     10  C   UNL     1       0.128   2.815 -23.943  0.00  0.00    +0.040 C 
ATOM     11  C   UNL     1       1.359   2.457 -23.723  0.00  0.00    +0.037 C 
ATOM     12  C   UNL     1       1.690   1.942 -22.576  0.00  0.00    +0.151 C 
ATOM     13  O   UNL     1       2.021   1.427 -21.429  0.00  0.00    -0.365 OA
ATOM     14  C   UNL     1       0.791   1.786 -21.649  0.00  0.00    +0.093 C 
ATOM     15  C   UNL     1       0.464   1.398 -20.452  0.00  0.00    +0.044 C 
ATOM     16  C   UNL     1      -0.439   2.144 -21.869  0.00  0.00    +0.038 C 
ATOM     17  C   UNL     1      -0.770   2.659 -23.016  0.00  0.00    +0.011 C 
ATOM     18  O   UNL     1      -5.287   3.570 -22.775  0.00  0.00    -0.251 OA
ATOM     19  C   UNL     1      -2.000   3.017 -23.236  0.00  0.00    +0.046 C 
ENDROOT
TORSDOF 0
ENDMDL
