MODEL 1
REMARK VINA RESULT:    -9.523      0.000      0.000
REMARK INTER + INTRA:          -4.941
REMARK INTER:                 -12.286
REMARK INTRA:                   7.345
REMARK UNBOUND:                 8.201
REMARK  Name = CCCC[C@@H](O)[C@@]12Oc3c(OC)ccc4c3[C@]13CCN(C)[C@H](C4)C3=CC=C2OC    ZINC000100393893
REMARK  11 active torsions:
REMARK  status: ('A' for Active; 'I' for Inactive)
REMARK    1  A    between atoms: C_1  and  C_2
REMARK    2  A    between atoms: C_2  and  C_3
REMARK    3  A    between atoms: C_3  and  C_4
REMARK    4  A    between atoms: C_4  and  C_5
REMARK    5  A    between atoms: C_5  and  O_6
REMARK    6  A    between atoms: C_5  and  C_7
REMARK    7  A    between atoms: C_10  and  O_11
REMARK    8  A    between atoms: O_11  and  C_12
REMARK    9  A    between atoms: N_20  and  C_21
REMARK   10  A    between atoms: C_27  and  O_28
REMARK   11  A    between atoms: O_28  and  C_29
REMARK                            x       y       z     vdW  Elec       q    Type
REMARK                         _______ _______ _______ _____ _____    ______ ____
ROOT
ATOM      1  C   UNL     1      -1.567   3.225 -23.781  0.00  0.00    +0.206 C 
ATOM      2  O   UNL     1      -1.912   3.097 -22.314  0.00  0.00    -0.470 OA
ATOM      3  C   UNL     1      -3.381   3.161 -22.032  0.00  0.00    +0.168 A 
ATOM      4  C   UNL     1      -4.294   3.130 -21.153  0.00  0.00    +0.162 A 
ATOM      5  C   UNL     1      -5.506   3.242 -21.499  0.00  0.00    +0.050 A 
ATOM      6  C   UNL     1      -5.803   3.385 -22.708  0.00  0.00    +0.008 A 
ATOM      7  C   UNL     1      -4.904   3.416 -23.576  0.00  0.00    -0.034 A 
ATOM      8  C   UNL     1      -5.203   3.561 -24.804  0.00  0.00    +0.094 C 
ATOM      9  C   UNL     1      -4.306   3.593 -25.674  0.00  0.00    +0.096 C 
ATOM     10  C   UNL     1      -3.096   3.480 -25.323  0.00  0.00    -0.007 C 
ATOM     11  C   UNL     1      -2.186   3.512 -26.200  0.00  0.00    +0.009 C 
ATOM     12  C   UNL     1      -0.984   3.401 -25.869  0.00  0.00    +0.045 C 
ATOM     13  N   UNL     1      -3.359   3.641 -26.734  0.00  0.00    +0.239 N 
ATOM     14  H   UNL     1      -3.662   3.759 -27.700  0.00  0.00    +0.204 HD
ATOM     15  C   UNL     1      -3.718   3.786 -27.924  0.00  0.00    +0.191 C 
ATOM     16  C   UNL     1      -1.997   3.519 -26.386  0.00  0.00    +0.133 C 
ATOM     17  C   UNL     1      -1.691   3.359 -25.018  0.00  0.00    +0.071 C 
ATOM     18  C   UNL     1      -3.693   3.306 -23.250  0.00  0.00    +0.016 A 
ATOM     19  C   UNL     1      -0.669   3.257 -24.656  0.00  0.00    +0.144 C 
ATOM     20  C   UNL     1      -2.792   3.337 -24.117  0.00  0.00    +0.080 C 
ENDROOT
BRANCH   4  21
ATOM     21  O   UNL     1      -3.997   2.987 -19.944  0.00  0.00    -0.491 OA
ATOM     22  C   UNL     1      -3.138   3.729 -19.418  0.00  0.00    +0.277 C 
ENDBRANCH   4  21
BRANCH  19  23
ATOM     23  O   UNL     1       0.674   3.157 -24.517  0.00  0.00    -0.495 OA
ATOM     24  C   UNL     1       1.419   3.011 -25.559  0.00  0.00    +0.276 C 
ENDBRANCH  19  23
BRANCH   1  25
ATOM     25  C   UNL     1      -0.416   3.079 -23.079  0.00  0.00    +0.167 C 
BRANCH  25  26
ATOM     26  O   UNL     1       0.239   4.089 -22.750  0.00  0.00    -0.387 OA
ATOM     27  H   UNL     1       0.405   4.636 -23.534  0.00  0.00    +0.210 HD
ENDBRANCH  25  26
BRANCH  25  28
ATOM     28  C   UNL     1       0.018   1.942 -22.744  0.00  0.00    +0.036 C 
BRANCH  28  29
ATOM     29  C   UNL     1       0.721   1.761 -21.711  0.00  0.00    +0.002 C 
BRANCH  29  31
ATOM     30  C   UNL     1       2.923   1.875 -21.823  0.00  0.00    +0.004 C 
ATOM     31  C   UNL     1       1.864   1.201 -21.844  0.00  0.00    -0.003 C 
ENDBRANCH  29  31
ENDBRANCH  28  29
ENDBRANCH  25  28
ENDBRANCH   1  25
TORSDOF 7
ENDMDL
MODEL 2
REMARK VINA RESULT:    -8.925      1.980      4.285
REMARK INTER + INTRA:          -4.115
REMARK INTER:                 -11.656
REMARK INTRA:                   7.542
REMARK UNBOUND:                 8.201
REMARK  Name = CCCC[C@@H](O)[C@@]12Oc3c(OC)ccc4c3[C@]13CCN(C)[C@H](C4)C3=CC=C2OC    ZINC000100393893
REMARK  11 active torsions:
REMARK  status: ('A' for Active; 'I' for Inactive)
REMARK    1  A    between atoms: C_1  and  C_2
REMARK    2  A    between atoms: C_2  and  C_3
REMARK    3  A    between atoms: C_3  and  C_4
REMARK    4  A    between atoms: C_4  and  C_5
REMARK    5  A    between atoms: C_5  and  O_6
REMARK    6  A    between atoms: C_5  and  C_7
REMARK    7  A    between atoms: C_10  and  O_11
REMARK    8  A    between atoms: O_11  and  C_12
REMARK    9  A    between atoms: N_20  and  C_21
REMARK   10  A    between atoms: C_27  and  O_28
REMARK   11  A    between atoms: O_28  and  C_29
REMARK                            x       y       z     vdW  Elec       q    Type
REMARK                         _______ _______ _______ _____ _____    ______ ____
ROOT
ATOM      1  C   UNL     1      -1.239   2.878 -23.252  0.00  0.00    +0.206 C 
ATOM      2  O   UNL     1      -1.298   3.094 -24.747  0.00  0.00    -0.470 OA
ATOM      3  C   UNL     1      -2.671   3.400 -25.260  0.00  0.00    +0.168 A 
ATOM      4  C   UNL     1      -3.392   3.663 -26.269  0.00  0.00    +0.162 A 
ATOM      5  C   UNL     1      -4.634   3.855 -26.124  0.00  0.00    +0.050 A 
ATOM      6  C   UNL     1      -5.151   3.786 -24.984  0.00  0.00    +0.008 A 
ATOM      7  C   UNL     1      -4.442   3.527 -23.988  0.00  0.00    -0.034 A 
ATOM      8  C   UNL     1      -4.964   3.457 -22.830  0.00  0.00    +0.094 C 
ATOM      9  C   UNL     1      -4.256   3.198 -21.832  0.00  0.00    +0.096 C 
ATOM     10  C   UNL     1      -3.015   3.007 -21.983  0.00  0.00    -0.007 C 
ATOM     11  C   UNL     1      -2.297   2.745 -20.975  0.00  0.00    +0.009 C 
ATOM     12  C   UNL     1      -1.067   2.553 -21.108  0.00  0.00    +0.045 C 
ATOM     13  N   UNL     1      -3.536   2.910 -20.640  0.00  0.00    +0.239 N 
ATOM     14  H   UNL     1      -4.013   2.868 -19.739  0.00  0.00    +0.204 HD
ATOM     15  C   UNL     1      -4.110   2.855 -19.528  0.00  0.00    +0.191 C 
ATOM     16  C   UNL     1      -2.148   2.690 -20.763  0.00  0.00    +0.133 C 
ATOM     17  C   UNL     1      -1.593   2.774 -22.058  0.00  0.00    +0.071 C 
ATOM     18  C   UNL     1      -3.204   3.333 -24.114  0.00  0.00    +0.016 A 
ATOM     19  C   UNL     1      -0.532   2.619 -22.249  0.00  0.00    +0.144 C 
ATOM     20  C   UNL     1      -2.493   3.074 -23.118  0.00  0.00    +0.080 C 
ENDROOT
BRANCH   4  21
ATOM     21  O   UNL     1      -2.875   3.731 -27.409  0.00  0.00    -0.491 OA
ATOM     22  C   UNL     1      -3.518   3.354 -28.413  0.00  0.00    +0.277 C 
ENDBRANCH   4  21
BRANCH  19  23
ATOM     23  O   UNL     1       0.798   2.380 -22.170  0.00  0.00    -0.495 OA
ATOM     24  C   UNL     1       1.262   1.629 -21.232  0.00  0.00    +0.276 C 
ENDBRANCH  19  23
BRANCH   1  25
ATOM     25  C   UNL     1       0.011   2.734 -23.757  0.00  0.00    +0.167 C 
BRANCH  25  26
ATOM     26  O   UNL     1       0.444   1.594 -24.020  0.00  0.00    -0.387 OA
ATOM     27  H   UNL     1       1.173   1.378 -23.418  0.00  0.00    +0.210 HD
ENDBRANCH  25  26
BRANCH  25  28
ATOM     28  C   UNL     1       0.758   3.729 -23.972  0.00  0.00    +0.036 C 
BRANCH  28  29
ATOM     29  C   UNL     1       1.888   3.622 -24.525  0.00  0.00    +0.002 C 
BRANCH  29  31
ATOM     30  C   UNL     1       2.808   5.084 -23.150  0.00  0.00    +0.004 C 
ATOM     31  C   UNL     1       2.909   4.096 -23.918  0.00  0.00    -0.003 C 
ENDBRANCH  29  31
ENDBRANCH  28  29
ENDBRANCH  25  28
ENDBRANCH   1  25
TORSDOF 7
ENDMDL
MODEL 3
REMARK VINA RESULT:    -7.774      2.320      5.320
REMARK INTER + INTRA:          -2.527
REMARK INTER:                 -10.522
REMARK INTRA:                   7.995
REMARK UNBOUND:                 8.201
REMARK  Name = CCCC[C@@H](O)[C@@]12Oc3c(OC)ccc4c3[C@]13CCN(C)[C@H](C4)C3=CC=C2OC    ZINC000100393893
REMARK  11 active torsions:
REMARK  status: ('A' for Active; 'I' for Inactive)
REMARK    1  A    between atoms: C_1  and  C_2
REMARK    2  A    between atoms: C_2  and  C_3
REMARK    3  A    between atoms: C_3  and  C_4
REMARK    4  A    between atoms: C_4  and  C_5
REMARK    5  A    between atoms: C_5  and  O_6
REMARK    6  A    between atoms: C_5  and  C_7
REMARK    7  A    between atoms: C_10  and  O_11
REMARK    8  A    between atoms: O_11  and  C_12
REMARK    9  A    between atoms: N_20  and  C_21
REMARK   10  A    between atoms: C_27  and  O_28
REMARK   11  A    between atoms: O_28  and  C_29
REMARK                            x       y       z     vdW  Elec       q    Type
REMARK                         _______ _______ _______ _____ _____    ______ ____
ROOT
ATOM      1  C   UNL     1       0.104   2.775 -23.952  0.00  0.00    +0.206 C 
ATOM      2  O   UNL     1       1.603   2.581 -23.990  0.00  0.00    -0.470 OA
ATOM      3  C   UNL     1       2.172   2.025 -22.721  0.00  0.00    +0.168 A 
ATOM      4  C   UNL     1       3.211   1.648 -22.101  0.00  0.00    +0.162 A 
ATOM      5  C   UNL     1       3.116   1.216 -20.916  0.00  0.00    +0.050 A 
ATOM      6  C   UNL     1       1.997   1.162 -20.355  0.00  0.00    +0.008 A 
ATOM      7  C   UNL     1       0.970   1.534 -20.965  0.00  0.00    -0.034 A 
ATOM      8  C   UNL     1      -0.167   1.480 -20.399  0.00  0.00    +0.094 C 
ATOM      9  C   UNL     1      -1.195   1.851 -21.007  0.00  0.00    +0.096 C 
ATOM     10  C   UNL     1      -1.095   2.282 -22.192  0.00  0.00    -0.007 C 
ATOM     11  C   UNL     1      -2.132   2.658 -22.809  0.00  0.00    +0.009 C 
ATOM     12  C   UNL     1      -2.049   3.087 -23.982  0.00  0.00    +0.045 C 
ATOM     13  N   UNL     1      -2.418   2.249 -21.614  0.00  0.00    +0.239 N 
ATOM     14  H   UNL     1      -3.299   2.182 -21.107  0.00  0.00    +0.204 HD
ATOM     15  C   UNL     1      -3.507   2.171 -21.001  0.00  0.00    +0.191 C 
ATOM     16  C   UNL     1      -2.351   2.736 -22.937  0.00  0.00    +0.133 C 
ATOM     17  C   UNL     1      -1.077   2.786 -23.543  0.00  0.00    +0.071 C 
ATOM     18  C   UNL     1       1.046   1.966 -22.145  0.00  0.00    +0.016 A 
ATOM     19  C   UNL     1      -0.928   3.147 -24.560  0.00  0.00    +0.144 C 
ATOM     20  C   UNL     1       0.021   2.338 -22.757  0.00  0.00    +0.080 C 
ENDROOT
BRANCH   4  21
ATOM     21  O   UNL     1       4.331   1.702 -22.662  0.00  0.00    -0.491 OA
ATOM     22  C   UNL     1       4.963   2.781 -22.697  0.00  0.00    +0.277 C 
ENDBRANCH   4  21
BRANCH  19  23
ATOM     23  O   UNL     1      -1.061   3.637 -25.815  0.00  0.00    -0.495 OA
ATOM     24  C   UNL     1      -2.212   3.615 -26.395  0.00  0.00    +0.276 C 
ENDBRANCH  19  23
BRANCH   1  25
ATOM     25  C   UNL     1       0.559   3.168 -25.168  0.00  0.00    +0.167 C 
BRANCH  25  26
ATOM     26  O   UNL     1       0.644   2.337 -26.094  0.00  0.00    -0.387 OA
ATOM     27  H   UNL     1       1.565   2.275 -26.390  0.00  0.00    +0.210 HD
ENDBRANCH  25  26
BRANCH  25  28
ATOM     28  C   UNL     1       0.902   4.363 -25.394  0.00  0.00    +0.036 C 
BRANCH  28  29
ATOM     29  C   UNL     1       1.914   4.890 -24.855  0.00  0.00    +0.002 C 
BRANCH  29  31
ATOM     30  C   UNL     1       2.702   5.703 -22.959  0.00  0.00    +0.004 C 
ATOM     31  C   UNL     1       1.752   5.540 -23.765  0.00  0.00    -0.003 C 
ENDBRANCH  29  31
ENDBRANCH  28  29
ENDBRANCH  25  28
ENDBRANCH   1  25
TORSDOF 7
ENDMDL
MODEL 4
REMARK VINA RESULT:    -7.502      1.332      4.284
REMARK INTER + INTRA:          -2.152
REMARK INTER:                 -10.813
REMARK INTRA:                   8.662
REMARK UNBOUND:                 8.201
REMARK  Name = CCCC[C@@H](O)[C@@]12Oc3c(OC)ccc4c3[C@]13CCN(C)[C@H](C4)C3=CC=C2OC    ZINC000100393893
REMARK  11 active torsions:
REMARK  status: ('A' for Active; 'I' for Inactive)
REMARK    1  A    between atoms: C_1  and  C_2
REMARK    2  A    between atoms: C_2  and  C_3
REMARK    3  A    between atoms: C_3  and  C_4
REMARK    4  A    between atoms: C_4  and  C_5
REMARK    5  A    between atoms: C_5  and  O_6
REMARK    6  A    between atoms: C_5  and  C_7
REMARK    7  A    between atoms: C_10  and  O_11
REMARK    8  A    between atoms: O_11  and  C_12
REMARK    9  A    between atoms: N_20  and  C_21
REMARK   10  A    between atoms: C_27  and  O_28
REMARK   11  A    between atoms: O_28  and  C_29
REMARK                            x       y       z     vdW  Elec       q    Type
REMARK                         _______ _______ _______ _____ _____    ______ ____
ROOT
ATOM      1  C   UNL     1      -2.249   3.750 -22.691  0.00  0.00    +0.206 C 
ATOM      2  O   UNL     1      -0.820   4.008 -22.270  0.00  0.00    -0.470 OA
ATOM      3  C   UNL     1       0.141   4.095 -23.415  0.00  0.00    +0.168 A 
ATOM      4  C   UNL     1       1.342   4.268 -23.780  0.00  0.00    +0.162 A 
ATOM      5  C   UNL     1       1.637   4.241 -25.010  0.00  0.00    +0.050 A 
ATOM      6  C   UNL     1       0.743   4.044 -25.866  0.00  0.00    +0.008 A 
ATOM      7  C   UNL     1      -0.442   3.873 -25.508  0.00  0.00    -0.034 A 
ATOM      8  C   UNL     1      -1.351   3.672 -26.375  0.00  0.00    +0.094 C 
ATOM      9  C   UNL     1      -2.538   3.501 -26.019  0.00  0.00    +0.096 C 
ATOM     10  C   UNL     1      -2.828   3.529 -24.788  0.00  0.00    -0.007 C 
ATOM     11  C   UNL     1      -4.026   3.356 -24.424  0.00  0.00    +0.009 C 
ATOM     12  C   UNL     1      -4.329   3.380 -23.210  0.00  0.00    +0.045 C 
ATOM     13  N   UNL     1      -3.912   3.296 -25.713  0.00  0.00    +0.239 N 
ATOM     14  H   UNL     1      -4.594   3.140 -26.454  0.00  0.00    +0.204 HD
ATOM     15  C   UNL     1      -4.759   3.103 -26.614  0.00  0.00    +0.191 C 
ATOM     16  C   UNL     1      -4.279   3.319 -24.351  0.00  0.00    +0.133 C 
ATOM     17  C   UNL     1      -3.252   3.544 -23.409  0.00  0.00    +0.071 C 
ATOM     18  C   UNL     1      -0.754   3.896 -24.289  0.00  0.00    +0.016 A 
ATOM     19  C   UNL     1      -3.440   3.578 -22.337  0.00  0.00    +0.144 C 
ATOM     20  C   UNL     1      -1.939   3.725 -23.928  0.00  0.00    +0.080 C 
ENDROOT
BRANCH   4  21
ATOM     21  O   UNL     1       2.236   4.466 -22.924  0.00  0.00    -0.491 OA
ATOM     22  C   UNL     1       3.214   3.690 -22.849  0.00  0.00    +0.277 C 
ENDBRANCH   4  21
BRANCH  19  23
ATOM     23  O   UNL     1      -3.977   3.566 -21.094  0.00  0.00    -0.495 OA
ATOM     24  C   UNL     1      -5.043   2.880 -20.861  0.00  0.00    +0.276 C 
ENDBRANCH  19  23
BRANCH   1  25
ATOM     25  C   UNL     1      -2.208   3.839 -21.338  0.00  0.00    +0.167 C 
BRANCH  25  26
ATOM     26  O   UNL     1      -2.544   4.902 -20.778  0.00  0.00    -0.387 OA
ATOM     27  H   UNL     1      -2.992   5.477 -21.418  0.00  0.00    +0.210 HD
ENDBRANCH  25  26
BRANCH  25  28
ATOM     28  C   UNL     1      -1.837   2.869 -20.620  0.00  0.00    +0.036 C 
BRANCH  28  29
ATOM     29  C   UNL     1      -1.342   1.815 -21.108  0.00  0.00    +0.002 C 
BRANCH  29  31
ATOM     30  C   UNL     1       0.671   1.146 -21.724  0.00  0.00    +0.004 C 
ATOM     31  C   UNL     1      -0.125   1.532 -20.832  0.00  0.00    -0.003 C 
ENDBRANCH  29  31
ENDBRANCH  28  29
ENDBRANCH  25  28
ENDBRANCH   1  25
TORSDOF 7
ENDMDL
MODEL 5
REMARK VINA RESULT:    -7.414      5.827      8.786
REMARK INTER + INTRA:          -2.030
REMARK INTER:                  -9.395
REMARK INTRA:                   7.365
REMARK UNBOUND:                 8.201
REMARK  Name = CCCC[C@@H](O)[C@@]12Oc3c(OC)ccc4c3[C@]13CCN(C)[C@H](C4)C3=CC=C2OC    ZINC000100393893
REMARK  11 active torsions:
REMARK  status: ('A' for Active; 'I' for Inactive)
REMARK    1  A    between atoms: C_1  and  C_2
REMARK    2  A    between atoms: C_2  and  C_3
REMARK    3  A    between atoms: C_3  and  C_4
REMARK    4  A    between atoms: C_4  and  C_5
REMARK    5  A    between atoms: C_5  and  O_6
REMARK    6  A    between atoms: C_5  and  C_7
REMARK    7  A    between atoms: C_10  and  O_11
REMARK    8  A    between atoms: O_11  and  C_12
REMARK    9  A    between atoms: N_20  and  C_21
REMARK   10  A    between atoms: C_27  and  O_28
REMARK   11  A    between atoms: O_28  and  C_29
REMARK                            x       y       z     vdW  Elec       q    Type
REMARK                         _______ _______ _______ _____ _____    ______ ____
ROOT
ATOM      1  C   UNL     1       4.959   6.615 -22.139  0.00  0.00    +0.206 C 
ATOM      2  O   UNL     1       3.458   6.734 -22.267  0.00  0.00    -0.470 OA
ATOM      3  C   UNL     1       2.812   5.550 -22.917  0.00  0.00    +0.168 A 
ATOM      4  C   UNL     1       1.732   5.013 -23.309  0.00  0.00    +0.162 A 
ATOM      5  C   UNL     1       1.757   3.872 -23.855  0.00  0.00    +0.050 A 
ATOM      6  C   UNL     1       2.847   3.274 -24.009  0.00  0.00    +0.008 A 
ATOM      7  C   UNL     1       3.913   3.801 -23.623  0.00  0.00    -0.034 A 
ATOM      8  C   UNL     1       5.021   3.196 -23.778  0.00  0.00    +0.094 C 
ATOM      9  C   UNL     1       6.088   3.722 -23.393  0.00  0.00    +0.096 C 
ATOM     10  C   UNL     1       6.058   4.862 -22.847  0.00  0.00    -0.007 C 
ATOM     11  C   UNL     1       7.135   5.397 -22.457  0.00  0.00    +0.009 C 
ATOM     12  C   UNL     1       7.122   6.525 -21.915  0.00  0.00    +0.045 C 
ATOM     13  N   UNL     1       7.351   4.236 -22.989  0.00  0.00    +0.239 N 
ATOM     14  H   UNL     1       8.206   3.702 -23.140  0.00  0.00    +0.204 HD
ATOM     15  C   UNL     1       8.408   3.589 -23.169  0.00  0.00    +0.191 C 
ATOM     16  C   UNL     1       7.363   5.507 -22.375  0.00  0.00    +0.133 C 
ATOM     17  C   UNL     1       6.120   6.158 -22.216  0.00  0.00    +0.071 C 
ATOM     18  C   UNL     1       3.907   4.936 -23.078  0.00  0.00    +0.016 A 
ATOM     19  C   UNL     1       6.031   7.140 -21.754  0.00  0.00    +0.144 C 
ATOM     20  C   UNL     1       4.972   5.466 -22.691  0.00  0.00    +0.080 C 
ENDROOT
BRANCH   4  21
ATOM     21  O   UNL     1       0.642   5.612 -23.156  0.00  0.00    -0.491 OA
ATOM     22  C   UNL     1      -0.437   5.004 -23.331  0.00  0.00    +0.277 C 
ENDBRANCH   4  21
BRANCH  19  23
ATOM     23  O   UNL     1       6.239   8.336 -21.152  0.00  0.00    -0.495 OA
ATOM     24  C   UNL     1       7.441   8.767 -20.978  0.00  0.00    +0.276 C 
ENDBRANCH  19  23
BRANCH   1  25
ATOM     25  C   UNL     1       4.575   7.805 -21.613  0.00  0.00    +0.167 C 
BRANCH  25  26
ATOM     26  O   UNL     1       4.391   7.907 -20.384  0.00  0.00    -0.387 OA
ATOM     27  H   UNL     1       5.111   7.463 -19.911  0.00  0.00    +0.210 HD
ENDBRANCH  25  26
BRANCH  25  28
ATOM     28  C   UNL     1       4.397   8.824 -22.338  0.00  0.00    +0.036 C 
BRANCH  28  29
ATOM     29  C   UNL     1       3.809   9.860 -21.920  0.00  0.00    +0.002 C 
BRANCH  29  31
ATOM     30  C   UNL     1       3.370  11.997 -22.259  0.00  0.00    +0.004 C 
ATOM     31  C   UNL     1       3.763  10.883 -22.686  0.00  0.00    -0.003 C 
ENDBRANCH  29  31
ENDBRANCH  28  29
ENDBRANCH  25  28
ENDBRANCH   1  25
TORSDOF 7
ENDMDL
MODEL 6
REMARK VINA RESULT:    -7.324      1.803      4.637
REMARK INTER + INTRA:          -1.906
REMARK INTER:                  -9.645
REMARK INTRA:                   7.739
REMARK UNBOUND:                 8.201
REMARK  Name = CCCC[C@@H](O)[C@@]12Oc3c(OC)ccc4c3[C@]13CCN(C)[C@H](C4)C3=CC=C2OC    ZINC000100393893
REMARK  11 active torsions:
REMARK  status: ('A' for Active; 'I' for Inactive)
REMARK    1  A    between atoms: C_1  and  C_2
REMARK    2  A    between atoms: C_2  and  C_3
REMARK    3  A    between atoms: C_3  and  C_4
REMARK    4  A    between atoms: C_4  and  C_5
REMARK    5  A    between atoms: C_5  and  O_6
REMARK    6  A    between atoms: C_5  and  C_7
REMARK    7  A    between atoms: C_10  and  O_11
REMARK    8  A    between atoms: O_11  and  C_12
REMARK    9  A    between atoms: N_20  and  C_21
REMARK   10  A    between atoms: C_27  and  O_28
REMARK   11  A    between atoms: O_28  and  C_29
REMARK                            x       y       z     vdW  Elec       q    Type
REMARK                         _______ _______ _______ _____ _____    ______ ____
ROOT
ATOM      1  C   UNL     1      -0.987   2.470 -22.719  0.00  0.00    +0.206 C 
ATOM      2  O   UNL     1      -2.468   2.627 -22.982  0.00  0.00    -0.470 OA
ATOM      3  C   UNL     1      -2.789   3.077 -24.374  0.00  0.00    +0.168 A 
ATOM      4  C   UNL     1      -3.695   3.382 -25.207  0.00  0.00    +0.162 A 
ATOM      5  C   UNL     1      -3.379   3.732 -26.381  0.00  0.00    +0.050 A 
ATOM      6  C   UNL     1      -2.173   3.776 -26.720  0.00  0.00    +0.008 A 
ATOM      7  C   UNL     1      -1.279   3.475 -25.900  0.00  0.00    -0.034 A 
ATOM      8  C   UNL     1      -0.054   3.520 -26.242  0.00  0.00    +0.094 C 
ATOM      9  C   UNL     1       0.842   3.219 -25.424  0.00  0.00    +0.096 C 
ATOM     10  C   UNL     1       0.521   2.870 -24.251  0.00  0.00    -0.007 C 
ATOM     11  C   UNL     1       1.425   2.565 -23.421  0.00  0.00    +0.009 C 
ATOM     12  C   UNL     1       1.124   2.218 -22.257  0.00  0.00    +0.045 C 
ATOM     13  N   UNL     1       1.930   2.896 -24.566  0.00  0.00    +0.239 N 
ATOM     14  H   UNL     1       2.892   2.951 -24.900  0.00  0.00    +0.204 HD
ATOM     15  C   UNL     1       3.116   2.960 -24.964  0.00  0.00    +0.191 C 
ATOM     16  C   UNL     1       1.617   2.502 -23.249  0.00  0.00    +0.133 C 
ATOM     17  C   UNL     1       0.251   2.461 -22.894  0.00  0.00    +0.071 C 
ATOM     18  C   UNL     1      -1.574   3.125 -24.728  0.00  0.00    +0.016 A 
ATOM     19  C   UNL     1      -0.086   2.169 -21.900  0.00  0.00    +0.144 C 
ATOM     20  C   UNL     1      -0.681   2.824 -23.906  0.00  0.00    +0.080 C 
ENDROOT
BRANCH   4  21
ATOM     21  O   UNL     1      -4.900   3.338 -24.868  0.00  0.00    -0.491 OA
ATOM     22  C   UNL     1      -5.437   4.332 -24.331  0.00  0.00    +0.277 C 
ENDBRANCH   4  21
BRANCH  19  23
ATOM     23  O   UNL     1      -0.190   1.772 -20.610  0.00  0.00    -0.495 OA
ATOM     24  C   UNL     1       0.868   1.448 -19.949  0.00  0.00    +0.276 C 
ENDBRANCH  19  23
BRANCH   1  25
ATOM     25  C   UNL     1      -1.662   2.151 -21.587  0.00  0.00    +0.167 C 
BRANCH  25  26
ATOM     26  O   UNL     1      -1.857   0.953 -21.300  0.00  0.00    -0.387 OA
ATOM     27  H   UNL     1      -1.419   0.388 -21.956  0.00  0.00    +0.210 HD
ENDBRANCH  25  26
BRANCH  25  28
ATOM     28  C   UNL     1      -2.103   3.040 -20.805  0.00  0.00    +0.036 C 
BRANCH  28  29
ATOM     29  C   UNL     1      -3.243   2.965 -20.268  0.00  0.00    +0.002 C 
BRANCH  29  31
ATOM     30  C   UNL     1      -5.238   2.710 -21.180  0.00  0.00    +0.004 C 
ATOM     31  C   UNL     1      -4.247   3.433 -20.908  0.00  0.00    -0.003 C 
ENDBRANCH  29  31
ENDBRANCH  28  29
ENDBRANCH  25  28
ENDBRANCH   1  25
TORSDOF 7
ENDMDL
MODEL 7
REMARK VINA RESULT:    -7.221      5.355      9.015
REMARK INTER + INTRA:          -1.764
REMARK INTER:                  -9.195
REMARK INTRA:                   7.431
REMARK UNBOUND:                 8.201
REMARK  Name = CCCC[C@@H](O)[C@@]12Oc3c(OC)ccc4c3[C@]13CCN(C)[C@H](C4)C3=CC=C2OC    ZINC000100393893
REMARK  11 active torsions:
REMARK  status: ('A' for Active; 'I' for Inactive)
REMARK    1  A    between atoms: C_1  and  C_2
REMARK    2  A    between atoms: C_2  and  C_3
REMARK    3  A    between atoms: C_3  and  C_4
REMARK    4  A    between atoms: C_4  and  C_5
REMARK    5  A    between atoms: C_5  and  O_6
REMARK    6  A    between atoms: C_5  and  C_7
REMARK    7  A    between atoms: C_10  and  O_11
REMARK    8  A    between atoms: O_11  and  C_12
REMARK    9  A    between atoms: N_20  and  C_21
REMARK   10  A    between atoms: C_27  and  O_28
REMARK   11  A    between atoms: O_28  and  C_29
REMARK                            x       y       z     vdW  Elec       q    Type
REMARK                         _______ _______ _______ _____ _____    ______ ____
ROOT
ATOM      1  C   UNL     1       4.745   4.580 -22.961  0.00  0.00    +0.206 C 
ATOM      2  O   UNL     1       4.056   5.752 -22.301  0.00  0.00    -0.470 OA
ATOM      3  C   UNL     1       4.985   6.865 -21.924  0.00  0.00    +0.168 A 
ATOM      4  C   UNL     1       5.106   8.014 -21.402  0.00  0.00    +0.162 A 
ATOM      5  C   UNL     1       6.248   8.555 -21.329  0.00  0.00    +0.050 A 
ATOM      6  C   UNL     1       7.256   7.957 -21.770  0.00  0.00    +0.008 A 
ATOM      7  C   UNL     1       7.138   6.823 -22.285  0.00  0.00    -0.034 A 
ATOM      8  C   UNL     1       8.160   6.213 -22.734  0.00  0.00    +0.094 C 
ATOM      9  C   UNL     1       8.045   5.080 -23.249  0.00  0.00    +0.096 C 
ATOM     10  C   UNL     1       6.902   4.543 -23.320  0.00  0.00    -0.007 C 
ATOM     11  C   UNL     1       6.781   3.397 -23.841  0.00  0.00    +0.009 C 
ATOM     12  C   UNL     1       5.657   2.853 -23.919  0.00  0.00    +0.045 C 
ATOM     13  N   UNL     1       8.015   3.791 -23.851  0.00  0.00    +0.239 N 
ATOM     14  H   UNL     1       8.870   3.354 -24.192  0.00  0.00    +0.204 HD
ATOM     15  C   UNL     1       9.059   3.244 -24.273  0.00  0.00    +0.191 C 
ATOM     16  C   UNL     1       6.759   3.157 -23.950  0.00  0.00    +0.133 C 
ATOM     17  C   UNL     1       5.641   3.854 -23.445  0.00  0.00    +0.071 C 
ATOM     18  C   UNL     1       6.011   6.270 -22.367  0.00  0.00    +0.016 A 
ATOM     19  C   UNL     1       4.632   3.443 -23.479  0.00  0.00    +0.144 C 
ATOM     20  C   UNL     1       5.890   5.136 -22.881  0.00  0.00    +0.080 C 
ENDROOT
BRANCH   4  21
ATOM     21  O   UNL     1       4.098   8.613 -20.961  0.00  0.00    -0.491 OA
ATOM     22  C   UNL     1       4.150   9.840 -20.727  0.00  0.00    +0.277 C 
ENDBRANCH   4  21
BRANCH  19  23
ATOM     23  O   UNL     1       3.526   2.684 -23.661  0.00  0.00    -0.495 OA
ATOM     24  C   UNL     1       3.603   1.585 -24.329  0.00  0.00    +0.276 C 
ENDBRANCH  19  23
BRANCH   1  25
ATOM     25  C   UNL     1       3.419   4.309 -22.879  0.00  0.00    +0.167 C 
BRANCH  25  26
ATOM     26  O   UNL     1       3.005   3.507 -22.018  0.00  0.00    -0.387 OA
ATOM     27  H   UNL     1       2.036   3.467 -22.053  0.00  0.00    +0.210 HD
ENDBRANCH  25  26
BRANCH  25  28
ATOM     28  C   UNL     1       2.582   4.850 -23.655  0.00  0.00    +0.036 C 
BRANCH  28  29
ATOM     29  C   UNL     1       1.340   4.837 -23.428  0.00  0.00    +0.002 C 
BRANCH  29  31
ATOM     30  C   UNL     1       1.006   4.052 -25.465  0.00  0.00    +0.004 C 
ATOM     31  C   UNL     1       0.556   4.455 -24.364  0.00  0.00    -0.003 C 
ENDBRANCH  29  31
ENDBRANCH  28  29
ENDBRANCH  25  28
ENDBRANCH   1  25
TORSDOF 7
ENDMDL
MODEL 8
REMARK VINA RESULT:    -7.219      2.291      4.707
REMARK INTER + INTRA:          -1.761
REMARK INTER:                  -9.962
REMARK INTRA:                   8.201
REMARK UNBOUND:                 8.201
REMARK  Name = CCCC[C@@H](O)[C@@]12Oc3c(OC)ccc4c3[C@]13CCN(C)[C@H](C4)C3=CC=C2OC    ZINC000100393893
REMARK  11 active torsions:
REMARK  status: ('A' for Active; 'I' for Inactive)
REMARK    1  A    between atoms: C_1  and  C_2
REMARK    2  A    between atoms: C_2  and  C_3
REMARK    3  A    between atoms: C_3  and  C_4
REMARK    4  A    between atoms: C_4  and  C_5
REMARK    5  A    between atoms: C_5  and  O_6
REMARK    6  A    between atoms: C_5  and  C_7
REMARK    7  A    between atoms: C_10  and  O_11
REMARK    8  A    between atoms: O_11  and  C_12
REMARK    9  A    between atoms: N_20  and  C_21
REMARK   10  A    between atoms: C_27  and  O_28
REMARK   11  A    between atoms: O_28  and  C_29
REMARK                            x       y       z     vdW  Elec       q    Type
REMARK                         _______ _______ _______ _____ _____    ______ ____
ROOT
ATOM      1  C   UNL     1       0.686   2.537 -23.968  0.00  0.00    +0.206 C 
ATOM      2  O   UNL     1      -0.391   3.085 -24.877  0.00  0.00    -0.470 OA
ATOM      3  C   UNL     1      -1.744   3.152 -24.237  0.00  0.00    +0.168 A 
ATOM      4  C   UNL     1      -2.966   3.461 -24.371  0.00  0.00    +0.162 A 
ATOM      5  C   UNL     1      -3.767   3.297 -23.406  0.00  0.00    +0.050 A 
ATOM      6  C   UNL     1      -3.353   2.829 -22.319  0.00  0.00    +0.008 A 
ATOM      7  C   UNL     1      -2.149   2.524 -22.185  0.00  0.00    -0.034 A 
ATOM      8  C   UNL     1      -1.726   2.050 -21.083  0.00  0.00    +0.094 C 
ATOM      9  C   UNL     1      -0.521   1.744 -20.946  0.00  0.00    +0.096 C 
ATOM     10  C   UNL     1       0.276   1.910 -21.914  0.00  0.00    -0.007 C 
ATOM     11  C   UNL     1       1.495   1.602 -21.779  0.00  0.00    +0.009 C 
ATOM     12  C   UNL     1       2.296   1.760 -22.728  0.00  0.00    +0.045 C 
ATOM     13  N   UNL     1       0.827   1.367 -20.695  0.00  0.00    +0.239 N 
ATOM     14  H   UNL     1       1.104   0.992 -19.788  0.00  0.00    +0.204 HD
ATOM     15  C   UNL     1       1.180   0.905 -19.586  0.00  0.00    +0.191 C 
ATOM     16  C   UNL     1       1.750   1.536 -21.749  0.00  0.00    +0.133 C 
ATOM     17  C   UNL     1       1.256   2.064 -22.961  0.00  0.00    +0.071 C 
ATOM     18  C   UNL     1      -1.337   2.681 -23.134  0.00  0.00    +0.016 A 
ATOM     19  C   UNL     1       1.894   2.230 -23.828  0.00  0.00    +0.144 C 
ATOM     20  C   UNL     1      -0.131   2.376 -23.002  0.00  0.00    +0.080 C 
ENDROOT
BRANCH   4  21
ATOM     21  O   UNL     1      -3.379   3.928 -25.458  0.00  0.00    -0.491 OA
ATOM     22  C   UNL     1      -3.859   3.166 -26.326  0.00  0.00    +0.277 C 
ENDBRANCH   4  21
BRANCH  19  23
ATOM     23  O   UNL     1       2.915   2.319 -24.713  0.00  0.00    -0.495 OA
ATOM     24  C   UNL     1       4.133   2.248 -24.299  0.00  0.00    +0.276 C 
ENDBRANCH  19  23
BRANCH   1  25
ATOM     25  C   UNL     1       1.245   2.835 -25.168  0.00  0.00    +0.167 C 
BRANCH  25  26
ATOM     26  O   UNL     1       1.430   1.929 -26.005  0.00  0.00    -0.387 OA
ATOM     27  H   UNL     1       2.264   1.474 -25.809  0.00  0.00    +0.210 HD
ENDBRANCH  25  26
BRANCH  25  28
ATOM     28  C   UNL     1       1.586   4.014 -25.466  0.00  0.00    +0.036 C 
BRANCH  28  29
ATOM     29  C   UNL     1       1.369   4.996 -24.704  0.00  0.00    +0.002 C 
BRANCH  29  31
ATOM     30  C   UNL     1       2.363   5.610 -22.830  0.00  0.00    +0.004 C 
ATOM     31  C   UNL     1       2.360   5.513 -24.082  0.00  0.00    -0.003 C 
ENDBRANCH  29  31
ENDBRANCH  28  29
ENDBRANCH  25  28
ENDBRANCH   1  25
TORSDOF 7
ENDMDL
MODEL 9
REMARK VINA RESULT:    -7.203      4.376      8.006
REMARK INTER + INTRA:          -1.739
REMARK INTER:                  -9.168
REMARK INTRA:                   7.429
REMARK UNBOUND:                 8.201
REMARK  Name = CCCC[C@@H](O)[C@@]12Oc3c(OC)ccc4c3[C@]13CCN(C)[C@H](C4)C3=CC=C2OC    ZINC000100393893
REMARK  11 active torsions:
REMARK  status: ('A' for Active; 'I' for Inactive)
REMARK    1  A    between atoms: C_1  and  C_2
REMARK    2  A    between atoms: C_2  and  C_3
REMARK    3  A    between atoms: C_3  and  C_4
REMARK    4  A    between atoms: C_4  and  C_5
REMARK    5  A    between atoms: C_5  and  O_6
REMARK    6  A    between atoms: C_5  and  C_7
REMARK    7  A    between atoms: C_10  and  O_11
REMARK    8  A    between atoms: O_11  and  C_12
REMARK    9  A    between atoms: N_20  and  C_21
REMARK   10  A    between atoms: C_27  and  O_28
REMARK   11  A    between atoms: O_28  and  C_29
REMARK                            x       y       z     vdW  Elec       q    Type
REMARK                         _______ _______ _______ _____ _____    ______ ____
ROOT
ATOM      1  C   UNL     1       3.139   4.673 -23.313  0.00  0.00    +0.206 C 
ATOM      2  O   UNL     1       2.838   6.125 -23.020  0.00  0.00    -0.470 OA
ATOM      3  C   UNL     1       3.996   6.875 -22.436  0.00  0.00    +0.168 A 
ATOM      4  C   UNL     1       4.427   7.983 -21.995  0.00  0.00    +0.162 A 
ATOM      5  C   UNL     1       5.619   8.074 -21.578  0.00  0.00    +0.050 A 
ATOM      6  C   UNL     1       6.371   7.072 -21.602  0.00  0.00    +0.008 A 
ATOM      7  C   UNL     1       5.947   5.979 -22.037  0.00  0.00    -0.034 A 
ATOM      8  C   UNL     1       6.708   4.960 -22.062  0.00  0.00    +0.094 C 
ATOM      9  C   UNL     1       6.286   3.866 -22.496  0.00  0.00    +0.096 C 
ATOM     10  C   UNL     1       5.094   3.780 -22.912  0.00  0.00    -0.007 C 
ATOM     11  C   UNL     1       4.665   2.675 -23.352  0.00  0.00    +0.009 C 
ATOM     12  C   UNL     1       3.488   2.574 -23.766  0.00  0.00    +0.045 C 
ATOM     13  N   UNL     1       5.899   2.582 -22.971  0.00  0.00    +0.239 N 
ATOM     14  H   UNL     1       6.556   1.803 -22.965  0.00  0.00    +0.204 HD
ATOM     15  C   UNL     1       6.697   1.618 -22.969  0.00  0.00    +0.191 C 
ATOM     16  C   UNL     1       4.577   2.442 -23.444  0.00  0.00    +0.133 C 
ATOM     17  C   UNL     1       3.753   3.587 -23.405  0.00  0.00    +0.071 C 
ATOM     18  C   UNL     1       4.765   5.870 -22.455  0.00  0.00    +0.016 A 
ATOM     19  C   UNL     1       2.719   3.574 -23.749  0.00  0.00    +0.144 C 
ATOM     20  C   UNL     1       4.338   4.777 -22.891  0.00  0.00    +0.080 C 
ENDROOT
BRANCH   4  21
ATOM     21  O   UNL     1       3.676   8.985 -21.971  0.00  0.00    -0.491 OA
ATOM     22  C   UNL     1       4.087  10.087 -22.393  0.00  0.00    +0.277 C 
ENDBRANCH   4  21
BRANCH  19  23
ATOM     23  O   UNL     1       1.499   3.250 -24.238  0.00  0.00    -0.495 OA
ATOM     24  C   UNL     1       1.391   2.346 -25.150  0.00  0.00    +0.276 C 
ENDBRANCH  19  23
BRANCH   1  25
ATOM     25  C   UNL     1       1.855   4.927 -23.667  0.00  0.00    +0.167 C 
BRANCH  25  26
ATOM     26  O   UNL     1       1.586   5.218 -24.850  0.00  0.00    -0.387 OA
ATOM     27  H   UNL     1       1.859   6.131 -25.028  0.00  0.00    +0.210 HD
ENDBRANCH  25  26
BRANCH  25  28
ATOM     28  C   UNL     1       0.913   4.877 -22.827  0.00  0.00    +0.036 C 
BRANCH  28  29
ATOM     29  C   UNL     1      -0.237   5.336 -23.070  0.00  0.00    +0.002 C 
BRANCH  29  31
ATOM     30  C   UNL     1      -2.108   4.235 -23.474  0.00  0.00    +0.004 C 
ATOM     31  C   UNL     1      -1.254   4.673 -22.665  0.00  0.00    -0.003 C 
ENDBRANCH  29  31
ENDBRANCH  28  29
ENDBRANCH  25  28
ENDBRANCH   1  25
TORSDOF 7
ENDMDL
