MODEL 1
REMARK VINA RESULT:    -9.464      0.000      0.000
REMARK INTER + INTRA:          -4.967
REMARK INTER:                 -12.309
REMARK INTRA:                   7.341
REMARK UNBOUND:                 8.093
REMARK  Name = CCCC[C@@H](O)[C@@]12Oc3c(OC)ccc4c3[C@@]13CCN(C)[C@@H](C4)C3=CC=C2OC  ZINC000253505571
REMARK  11 active torsions:
REMARK  status: ('A' for Active; 'I' for Inactive)
REMARK    1  A    between atoms: C_1  and  C_2
REMARK    2  A    between atoms: C_2  and  C_3
REMARK    3  A    between atoms: C_3  and  C_4
REMARK    4  A    between atoms: C_4  and  C_5
REMARK    5  A    between atoms: C_5  and  O_6
REMARK    6  A    between atoms: C_5  and  C_7
REMARK    7  A    between atoms: C_10  and  O_11
REMARK    8  A    between atoms: O_11  and  C_12
REMARK    9  A    between atoms: N_20  and  C_21
REMARK   10  A    between atoms: C_27  and  O_28
REMARK   11  A    between atoms: O_28  and  C_29
REMARK                            x       y       z     vdW  Elec       q    Type
REMARK                         _______ _______ _______ _____ _____    ______ ____
ROOT
ATOM      1  C   UNL     1      -1.539   3.215 -23.793  0.00  0.00    +0.206 C 
ATOM      2  O   UNL     1      -1.897   3.085 -22.330  0.00  0.00    -0.470 OA
ATOM      3  C   UNL     1      -3.370   3.142 -22.062  0.00  0.00    +0.168 A 
ATOM      4  C   UNL     1      -4.290   3.106 -21.191  0.00  0.00    +0.162 A 
ATOM      5  C   UNL     1      -5.500   3.212 -21.549  0.00  0.00    +0.050 A 
ATOM      6  C   UNL     1      -5.786   3.352 -22.761  0.00  0.00    +0.008 A 
ATOM      7  C   UNL     1      -4.879   3.388 -23.620  0.00  0.00    -0.034 A 
ATOM      8  C   UNL     1      -5.167   3.531 -24.851  0.00  0.00    +0.094 C 
ATOM      9  C   UNL     1      -4.262   3.567 -25.712  0.00  0.00    +0.096 C 
ATOM     10  C   UNL     1      -3.055   3.461 -25.350  0.00  0.00    -0.007 C 
ATOM     11  C   UNL     1      -2.137   3.497 -26.219  0.00  0.00    +0.009 C 
ATOM     12  C   UNL     1      -0.937   3.393 -25.877  0.00  0.00    +0.045 C 
ATOM     13  N   UNL     1      -3.305   3.619 -26.764  0.00  0.00    +0.239 N 
ATOM     14  H   UNL     1      -3.599   3.735 -27.733  0.00  0.00    +0.204 HD
ATOM     15  C   UNL     1      -3.654   3.761 -27.958  0.00  0.00    +0.191 C 
ATOM     16  C   UNL     1      -1.946   3.505 -26.403  0.00  0.00    +0.133 C 
ATOM     17  C   UNL     1      -1.652   3.348 -25.032  0.00  0.00    +0.071 C 
ATOM     18  C   UNL     1      -3.671   3.285 -23.283  0.00  0.00    +0.016 A 
ATOM     19  C   UNL     1      -0.633   3.251 -24.660  0.00  0.00    +0.144 C 
ATOM     20  C   UNL     1      -2.762   3.320 -24.141  0.00  0.00    +0.080 C 
ENDROOT
BRANCH   4  21
ATOM     21  O   UNL     1      -4.004   2.966 -19.980  0.00  0.00    -0.491 OA
ATOM     22  C   UNL     1      -3.155   3.713 -19.446  0.00  0.00    +0.277 C 
ENDBRANCH   4  21
BRANCH  19  23
ATOM     23  O   UNL     1       0.709   3.159 -24.508  0.00  0.00    -0.495 OA
ATOM     24  C   UNL     1       1.464   3.009 -25.542  0.00  0.00    +0.276 C 
ENDBRANCH  19  23
BRANCH   1  25
ATOM     25  C   UNL     1      -0.394   3.076 -23.080  0.00  0.00    +0.167 C 
BRANCH  25  26
ATOM     26  O   UNL     1       0.256   4.089 -22.752  0.00  0.00    -0.387 OA
ATOM     27  H   UNL     1       0.357   4.110 -21.788  0.00  0.00    +0.210 HD
ENDBRANCH  25  26
BRANCH  25  28
ATOM     28  C   UNL     1       0.040   1.941 -22.736  0.00  0.00    +0.036 C 
BRANCH  28  29
ATOM     29  C   UNL     1       0.741   1.769 -21.700  0.00  0.00    +0.002 C 
BRANCH  29  31
ATOM     30  C   UNL     1       2.943   1.931 -21.719  0.00  0.00    +0.004 C 
ATOM     31  C   UNL     1       1.899   1.242 -21.831  0.00  0.00    -0.003 C 
ENDBRANCH  29  31
ENDBRANCH  28  29
ENDBRANCH  25  28
ENDBRANCH   1  25
TORSDOF 7
ENDMDL
MODEL 2
REMARK VINA RESULT:    -8.871      1.980      4.278
REMARK INTER + INTRA:          -4.148
REMARK INTER:                 -11.652
REMARK INTRA:                   7.504
REMARK UNBOUND:                 8.093
REMARK  Name = CCCC[C@@H](O)[C@@]12Oc3c(OC)ccc4c3[C@@]13CCN(C)[C@@H](C4)C3=CC=C2OC  ZINC000253505571
REMARK  11 active torsions:
REMARK  status: ('A' for Active; 'I' for Inactive)
REMARK    1  A    between atoms: C_1  and  C_2
REMARK    2  A    between atoms: C_2  and  C_3
REMARK    3  A    between atoms: C_3  and  C_4
REMARK    4  A    between atoms: C_4  and  C_5
REMARK    5  A    between atoms: C_5  and  O_6
REMARK    6  A    between atoms: C_5  and  C_7
REMARK    7  A    between atoms: C_10  and  O_11
REMARK    8  A    between atoms: O_11  and  C_12
REMARK    9  A    between atoms: N_20  and  C_21
REMARK   10  A    between atoms: C_27  and  O_28
REMARK   11  A    between atoms: O_28  and  C_29
REMARK                            x       y       z     vdW  Elec       q    Type
REMARK                         _______ _______ _______ _____ _____    ______ ____
ROOT
ATOM      1  C   UNL     1      -1.247   2.875 -23.268  0.00  0.00    +0.206 C 
ATOM      2  O   UNL     1      -1.305   3.095 -24.763  0.00  0.00    -0.470 OA
ATOM      3  C   UNL     1      -2.680   3.393 -25.276  0.00  0.00    +0.168 A 
ATOM      4  C   UNL     1      -3.401   3.653 -26.286  0.00  0.00    +0.162 A 
ATOM      5  C   UNL     1      -4.645   3.837 -26.141  0.00  0.00    +0.050 A 
ATOM      6  C   UNL     1      -5.163   3.762 -25.002  0.00  0.00    +0.008 A 
ATOM      7  C   UNL     1      -4.453   3.505 -24.006  0.00  0.00    -0.034 A 
ATOM      8  C   UNL     1      -4.976   3.428 -22.849  0.00  0.00    +0.094 C 
ATOM      9  C   UNL     1      -4.268   3.171 -21.851  0.00  0.00    +0.096 C 
ATOM     10  C   UNL     1      -3.025   2.989 -22.000  0.00  0.00    -0.007 C 
ATOM     11  C   UNL     1      -2.306   2.729 -20.993  0.00  0.00    +0.009 C 
ATOM     12  C   UNL     1      -1.075   2.546 -21.124  0.00  0.00    +0.045 C 
ATOM     13  N   UNL     1      -3.547   2.885 -20.658  0.00  0.00    +0.239 N 
ATOM     14  H   UNL     1      -4.024   2.837 -19.758  0.00  0.00    +0.204 HD
ATOM     15  C   UNL     1      -4.122   2.823 -19.547  0.00  0.00    +0.191 C 
ATOM     16  C   UNL     1      -2.158   2.675 -20.780  0.00  0.00    +0.133 C 
ATOM     17  C   UNL     1      -1.602   2.766 -22.074  0.00  0.00    +0.071 C 
ATOM     18  C   UNL     1      -3.214   3.319 -24.131  0.00  0.00    +0.016 A 
ATOM     19  C   UNL     1      -0.539   2.618 -22.265  0.00  0.00    +0.144 C 
ATOM     20  C   UNL     1      -2.502   3.062 -23.135  0.00  0.00    +0.080 C 
ENDROOT
BRANCH   4  21
ATOM     21  O   UNL     1      -2.884   3.729 -27.424  0.00  0.00    -0.491 OA
ATOM     22  C   UNL     1      -3.526   3.357 -28.431  0.00  0.00    +0.277 C 
ENDBRANCH   4  21
BRANCH  19  23
ATOM     23  O   UNL     1       0.793   2.388 -22.185  0.00  0.00    -0.495 OA
ATOM     24  C   UNL     1       1.258   1.620 -21.261  0.00  0.00    +0.276 C 
ENDBRANCH  19  23
BRANCH   1  25
ATOM     25  C   UNL     1       0.005   2.741 -23.772  0.00  0.00    +0.167 C 
BRANCH  25  26
ATOM     26  O   UNL     1       0.433   1.608 -24.069  0.00  0.00    -0.387 OA
ATOM     27  H   UNL     1       1.096   1.331 -23.418  0.00  0.00    +0.210 HD
ENDBRANCH  25  26
BRANCH  25  28
ATOM     28  C   UNL     1       0.758   3.738 -23.951  0.00  0.00    +0.036 C 
BRANCH  28  29
ATOM     29  C   UNL     1       1.877   3.648 -24.528  0.00  0.00    +0.002 C 
BRANCH  29  31
ATOM     30  C   UNL     1       2.841   5.089 -23.161  0.00  0.00    +0.004 C 
ATOM     31  C   UNL     1       2.912   4.092 -23.921  0.00  0.00    -0.003 C 
ENDBRANCH  29  31
ENDBRANCH  28  29
ENDBRANCH  25  28
ENDBRANCH   1  25
TORSDOF 7
ENDMDL
MODEL 3
REMARK VINA RESULT:    -7.709      2.319      5.319
REMARK INTER + INTRA:          -2.545
REMARK INTER:                 -10.485
REMARK INTRA:                   7.940
REMARK UNBOUND:                 8.093
REMARK  Name = CCCC[C@@H](O)[C@@]12Oc3c(OC)ccc4c3[C@@]13CCN(C)[C@@H](C4)C3=CC=C2OC  ZINC000253505571
REMARK  11 active torsions:
REMARK  status: ('A' for Active; 'I' for Inactive)
REMARK    1  A    between atoms: C_1  and  C_2
REMARK    2  A    between atoms: C_2  and  C_3
REMARK    3  A    between atoms: C_3  and  C_4
REMARK    4  A    between atoms: C_4  and  C_5
REMARK    5  A    between atoms: C_5  and  O_6
REMARK    6  A    between atoms: C_5  and  C_7
REMARK    7  A    between atoms: C_10  and  O_11
REMARK    8  A    between atoms: O_11  and  C_12
REMARK    9  A    between atoms: N_20  and  C_21
REMARK   10  A    between atoms: C_27  and  O_28
REMARK   11  A    between atoms: O_28  and  C_29
REMARK                            x       y       z     vdW  Elec       q    Type
REMARK                         _______ _______ _______ _____ _____    ______ ____
ROOT
ATOM      1  C   UNL     1       0.137   2.772 -23.966  0.00  0.00    +0.206 C 
ATOM      2  O   UNL     1       1.635   2.569 -23.996  0.00  0.00    -0.470 OA
ATOM      3  C   UNL     1       2.193   2.006 -22.725  0.00  0.00    +0.168 A 
ATOM      4  C   UNL     1       3.226   1.621 -22.100  0.00  0.00    +0.162 A 
ATOM      5  C   UNL     1       3.122   1.187 -20.916  0.00  0.00    +0.050 A 
ATOM      6  C   UNL     1       1.999   1.138 -20.362  0.00  0.00    +0.008 A 
ATOM      7  C   UNL     1       0.978   1.517 -20.977  0.00  0.00    -0.034 A 
ATOM      8  C   UNL     1      -0.163   1.468 -20.417  0.00  0.00    +0.094 C 
ATOM      9  C   UNL     1      -1.185   1.847 -21.030  0.00  0.00    +0.096 C 
ATOM     10  C   UNL     1      -1.075   2.281 -22.214  0.00  0.00    -0.007 C 
ATOM     11  C   UNL     1      -2.106   2.665 -22.836  0.00  0.00    +0.009 C 
ATOM     12  C   UNL     1      -2.014   3.096 -24.008  0.00  0.00    +0.045 C 
ATOM     13  N   UNL     1      -2.402   2.255 -21.644  0.00  0.00    +0.239 N 
ATOM     14  H   UNL     1      -3.287   2.191 -21.142  0.00  0.00    +0.204 HD
ATOM     15  C   UNL     1      -3.495   2.181 -21.038  0.00  0.00    +0.191 C 
ATOM     16  C   UNL     1      -2.324   2.745 -22.965  0.00  0.00    +0.133 C 
ATOM     17  C   UNL     1      -1.047   2.789 -23.564  0.00  0.00    +0.071 C 
ATOM     18  C   UNL     1       1.064   1.952 -22.155  0.00  0.00    +0.016 A 
ATOM     19  C   UNL     1      -0.890   3.151 -24.579  0.00  0.00    +0.144 C 
ATOM     20  C   UNL     1       0.044   2.332 -22.773  0.00  0.00    +0.080 C 
ENDROOT
BRANCH   4  21
ATOM     21  O   UNL     1       4.349   1.671 -22.653  0.00  0.00    -0.491 OA
ATOM     22  C   UNL     1       5.014   2.730 -22.630  0.00  0.00    +0.277 C 
ENDBRANCH   4  21
BRANCH  19  23
ATOM     23  O   UNL     1      -1.012   3.645 -25.833  0.00  0.00    -0.495 OA
ATOM     24  C   UNL     1      -2.161   3.638 -26.418  0.00  0.00    +0.276 C 
ENDBRANCH  19  23
BRANCH   1  25
ATOM     25  C   UNL     1       0.601   3.165 -25.178  0.00  0.00    +0.167 C 
BRANCH  25  26
ATOM     26  O   UNL     1       0.692   2.335 -26.104  0.00  0.00    -0.387 OA
ATOM     27  H   UNL     1      -0.194   2.039 -26.362  0.00  0.00    +0.210 HD
ENDBRANCH  25  26
BRANCH  25  28
ATOM     28  C   UNL     1       0.947   4.359 -25.400  0.00  0.00    +0.036 C 
BRANCH  28  29
ATOM     29  C   UNL     1       1.959   4.884 -24.858  0.00  0.00    +0.002 C 
BRANCH  29  31
ATOM     30  C   UNL     1       2.728   5.685 -22.949  0.00  0.00    +0.004 C 
ATOM     31  C   UNL     1       1.793   5.548 -23.777  0.00  0.00    -0.003 C 
ENDBRANCH  29  31
ENDBRANCH  28  29
ENDBRANCH  25  28
ENDBRANCH   1  25
TORSDOF 7
ENDMDL
MODEL 4
REMARK VINA RESULT:    -7.339      5.768      8.725
REMARK INTER + INTRA:          -2.035
REMARK INTER:                  -9.413
REMARK INTRA:                   7.378
REMARK UNBOUND:                 8.093
REMARK  Name = CCCC[C@@H](O)[C@@]12Oc3c(OC)ccc4c3[C@@]13CCN(C)[C@@H](C4)C3=CC=C2OC  ZINC000253505571
REMARK  11 active torsions:
REMARK  status: ('A' for Active; 'I' for Inactive)
REMARK    1  A    between atoms: C_1  and  C_2
REMARK    2  A    between atoms: C_2  and  C_3
REMARK    3  A    between atoms: C_3  and  C_4
REMARK    4  A    between atoms: C_4  and  C_5
REMARK    5  A    between atoms: C_5  and  O_6
REMARK    6  A    between atoms: C_5  and  C_7
REMARK    7  A    between atoms: C_10  and  O_11
REMARK    8  A    between atoms: O_11  and  C_12
REMARK    9  A    between atoms: N_20  and  C_21
REMARK   10  A    between atoms: C_27  and  O_28
REMARK   11  A    between atoms: O_28  and  C_29
REMARK                            x       y       z     vdW  Elec       q    Type
REMARK                         _______ _______ _______ _____ _____    ______ ____
ROOT
ATOM      1  C   UNL     1       4.942   6.577 -22.148  0.00  0.00    +0.206 C 
ATOM      2  O   UNL     1       3.442   6.712 -22.274  0.00  0.00    -0.470 OA
ATOM      3  C   UNL     1       2.782   5.539 -22.931  0.00  0.00    +0.168 A 
ATOM      4  C   UNL     1       1.696   5.016 -23.324  0.00  0.00    +0.162 A 
ATOM      5  C   UNL     1       1.709   3.879 -23.878  0.00  0.00    +0.050 A 
ATOM      6  C   UNL     1       2.792   3.269 -24.036  0.00  0.00    +0.008 A 
ATOM      7  C   UNL     1       3.864   3.783 -23.649  0.00  0.00    -0.034 A 
ATOM      8  C   UNL     1       4.966   3.167 -23.809  0.00  0.00    +0.094 C 
ATOM      9  C   UNL     1       6.038   3.679 -23.422  0.00  0.00    +0.096 C 
ATOM     10  C   UNL     1       6.021   4.817 -22.869  0.00  0.00    -0.007 C 
ATOM     11  C   UNL     1       7.104   5.337 -22.477  0.00  0.00    +0.009 C 
ATOM     12  C   UNL     1       7.104   6.462 -21.928  0.00  0.00    +0.045 C 
ATOM     13  N   UNL     1       7.308   4.178 -23.016  0.00  0.00    +0.239 N 
ATOM     14  H   UNL     1       8.156   3.635 -23.172  0.00  0.00    +0.204 HD
ATOM     15  C   UNL     1       8.357   3.521 -23.203  0.00  0.00    +0.191 C 
ATOM     16  C   UNL     1       7.333   5.444 -22.395  0.00  0.00    +0.133 C 
ATOM     17  C   UNL     1       6.098   6.107 -22.229  0.00  0.00    +0.071 C 
ATOM     18  C   UNL     1       3.871   4.914 -23.096  0.00  0.00    +0.016 A 
ATOM     19  C   UNL     1       6.020   7.088 -21.761  0.00  0.00    +0.144 C 
ATOM     20  C   UNL     1       4.942   5.430 -22.708  0.00  0.00    +0.080 C 
ENDROOT
BRANCH   4  21
ATOM     21  O   UNL     1       0.613   5.626 -23.166  0.00  0.00    -0.491 OA
ATOM     22  C   UNL     1      -0.473   5.030 -23.342  0.00  0.00    +0.277 C 
ENDBRANCH   4  21
BRANCH  19  23
ATOM     23  O   UNL     1       6.241   8.277 -21.153  0.00  0.00    -0.495 OA
ATOM     24  C   UNL     1       7.439   8.615 -20.818  0.00  0.00    +0.276 C 
ENDBRANCH  19  23
BRANCH   1  25
ATOM     25  C   UNL     1       4.571   7.767 -21.615  0.00  0.00    +0.167 C 
BRANCH  25  26
ATOM     26  O   UNL     1       4.387   7.863 -20.385  0.00  0.00    -0.387 OA
ATOM     27  H   UNL     1       4.016   7.032 -20.049  0.00  0.00    +0.210 HD
ENDBRANCH  25  26
BRANCH  25  28
ATOM     28  C   UNL     1       4.405   8.793 -22.333  0.00  0.00    +0.036 C 
BRANCH  28  29
ATOM     29  C   UNL     1       3.842   9.837 -21.903  0.00  0.00    +0.002 C 
BRANCH  29  31
ATOM     30  C   UNL     1       3.453  11.989 -22.211  0.00  0.00    +0.004 C 
ATOM     31  C   UNL     1       3.845  10.879 -22.647  0.00  0.00    -0.003 C 
ENDBRANCH  29  31
ENDBRANCH  28  29
ENDBRANCH  25  28
ENDBRANCH   1  25
TORSDOF 7
ENDMDL
MODEL 5
REMARK VINA RESULT:    -7.201      5.327      9.003
REMARK INTER + INTRA:          -1.844
REMARK INTER:                  -9.249
REMARK INTRA:                   7.405
REMARK UNBOUND:                 8.093
REMARK  Name = CCCC[C@@H](O)[C@@]12Oc3c(OC)ccc4c3[C@@]13CCN(C)[C@@H](C4)C3=CC=C2OC  ZINC000253505571
REMARK  11 active torsions:
REMARK  status: ('A' for Active; 'I' for Inactive)
REMARK    1  A    between atoms: C_1  and  C_2
REMARK    2  A    between atoms: C_2  and  C_3
REMARK    3  A    between atoms: C_3  and  C_4
REMARK    4  A    between atoms: C_4  and  C_5
REMARK    5  A    between atoms: C_5  and  O_6
REMARK    6  A    between atoms: C_5  and  C_7
REMARK    7  A    between atoms: C_10  and  O_11
REMARK    8  A    between atoms: O_11  and  C_12
REMARK    9  A    between atoms: N_20  and  C_21
REMARK   10  A    between atoms: C_27  and  O_28
REMARK   11  A    between atoms: O_28  and  C_29
REMARK                            x       y       z     vdW  Elec       q    Type
REMARK                         _______ _______ _______ _____ _____    ______ ____
ROOT
ATOM      1  C   UNL     1       4.743   4.581 -22.958  0.00  0.00    +0.206 C 
ATOM      2  O   UNL     1       4.054   5.755 -22.301  0.00  0.00    -0.470 OA
ATOM      3  C   UNL     1       4.986   6.860 -21.910  0.00  0.00    +0.168 A 
ATOM      4  C   UNL     1       5.109   8.007 -21.383  0.00  0.00    +0.162 A 
ATOM      5  C   UNL     1       6.253   8.540 -21.294  0.00  0.00    +0.050 A 
ATOM      6  C   UNL     1       7.262   7.936 -21.726  0.00  0.00    +0.008 A 
ATOM      7  C   UNL     1       7.143   6.805 -22.246  0.00  0.00    -0.034 A 
ATOM      8  C   UNL     1       8.166   6.190 -22.685  0.00  0.00    +0.094 C 
ATOM      9  C   UNL     1       8.049   5.059 -23.205  0.00  0.00    +0.096 C 
ATOM     10  C   UNL     1       6.903   4.530 -23.292  0.00  0.00    -0.007 C 
ATOM     11  C   UNL     1       6.781   3.387 -23.818  0.00  0.00    +0.009 C 
ATOM     12  C   UNL     1       5.654   2.850 -23.911  0.00  0.00    +0.045 C 
ATOM     13  N   UNL     1       8.017   3.773 -23.811  0.00  0.00    +0.239 N 
ATOM     14  H   UNL     1       8.874   3.331 -24.144  0.00  0.00    +0.204 HD
ATOM     15  C   UNL     1       9.062   3.220 -24.224  0.00  0.00    +0.191 C 
ATOM     16  C   UNL     1       6.759   3.147 -23.928  0.00  0.00    +0.133 C 
ATOM     17  C   UNL     1       5.639   3.850 -23.434  0.00  0.00    +0.071 C 
ATOM     18  C   UNL     1       6.013   6.259 -22.343  0.00  0.00    +0.016 A 
ATOM     19  C   UNL     1       4.629   3.446 -23.481  0.00  0.00    +0.144 C 
ATOM     20  C   UNL     1       5.891   5.128 -22.862  0.00  0.00    +0.080 C 
ENDROOT
BRANCH   4  21
ATOM     21  O   UNL     1       4.099   8.611 -20.951  0.00  0.00    -0.491 OA
ATOM     22  C   UNL     1       4.177   9.820 -20.641  0.00  0.00    +0.277 C 
ENDBRANCH   4  21
BRANCH  19  23
ATOM     23  O   UNL     1       3.519   2.695 -23.678  0.00  0.00    -0.495 OA
ATOM     24  C   UNL     1       3.589   1.617 -24.380  0.00  0.00    +0.276 C 
ENDBRANCH  19  23
BRANCH   1  25
ATOM     25  C   UNL     1       3.414   4.318 -22.892  0.00  0.00    +0.167 C 
BRANCH  25  26
ATOM     26  O   UNL     1       2.984   3.514 -22.041  0.00  0.00    -0.387 OA
ATOM     27  H   UNL     1       2.415   2.859 -22.473  0.00  0.00    +0.210 HD
ENDBRANCH  25  26
BRANCH  25  28
ATOM     28  C   UNL     1       2.589   4.869 -23.674  0.00  0.00    +0.036 C 
BRANCH  28  29
ATOM     29  C   UNL     1       1.346   4.871 -23.457  0.00  0.00    +0.002 C 
BRANCH  29  31
ATOM     30  C   UNL     1       1.017   4.113 -25.504  0.00  0.00    +0.004 C 
ATOM     31  C   UNL     1       0.565   4.477 -24.390  0.00  0.00    -0.003 C 
ENDBRANCH  29  31
ENDBRANCH  28  29
ENDBRANCH  25  28
ENDBRANCH   1  25
TORSDOF 7
ENDMDL
MODEL 6
REMARK VINA RESULT:    -7.163      3.142      5.889
REMARK INTER + INTRA:          -1.792
REMARK INTER:                  -9.886
REMARK INTRA:                   8.093
REMARK UNBOUND:                 8.093
REMARK  Name = CCCC[C@@H](O)[C@@]12Oc3c(OC)ccc4c3[C@@]13CCN(C)[C@@H](C4)C3=CC=C2OC  ZINC000253505571
REMARK  11 active torsions:
REMARK  status: ('A' for Active; 'I' for Inactive)
REMARK    1  A    between atoms: C_1  and  C_2
REMARK    2  A    between atoms: C_2  and  C_3
REMARK    3  A    between atoms: C_3  and  C_4
REMARK    4  A    between atoms: C_4  and  C_5
REMARK    5  A    between atoms: C_5  and  O_6
REMARK    6  A    between atoms: C_5  and  C_7
REMARK    7  A    between atoms: C_10  and  O_11
REMARK    8  A    between atoms: O_11  and  C_12
REMARK    9  A    between atoms: N_20  and  C_21
REMARK   10  A    between atoms: C_27  and  O_28
REMARK   11  A    between atoms: O_28  and  C_29
REMARK                            x       y       z     vdW  Elec       q    Type
REMARK                         _______ _______ _______ _____ _____    ______ ____
ROOT
ATOM      1  C   UNL     1       3.159   2.490 -23.457  0.00  0.00    +0.206 C 
ATOM      2  O   UNL     1       1.809   1.883 -23.765  0.00  0.00    -0.470 OA
ATOM      3  C   UNL     1       0.689   2.877 -23.783  0.00  0.00    +0.168 A 
ATOM      4  C   UNL     1      -0.552   3.072 -23.947  0.00  0.00    +0.162 A 
ATOM      5  C   UNL     1      -1.027   4.240 -23.836  0.00  0.00    +0.050 A 
ATOM      6  C   UNL     1      -0.270   5.202 -23.564  0.00  0.00    +0.008 A 
ATOM      7  C   UNL     1       0.955   5.011 -23.403  0.00  0.00    -0.034 A 
ATOM      8  C   UNL     1       1.725   5.985 -23.127  0.00  0.00    +0.094 C 
ATOM      9  C   UNL     1       2.950   5.797 -22.965  0.00  0.00    +0.096 C 
ATOM     10  C   UNL     1       3.419   4.628 -23.077  0.00  0.00    -0.007 C 
ATOM     11  C   UNL     1       4.658   4.433 -22.913  0.00  0.00    +0.009 C 
ATOM     12  C   UNL     1       5.138   3.282 -23.021  0.00  0.00    +0.045 C 
ATOM     13  N   UNL     1       4.353   5.683 -22.763  0.00  0.00    +0.239 N 
ATOM     14  H   UNL     1       4.918   6.503 -22.544  0.00  0.00    +0.204 HD
ATOM     15  C   UNL     1       5.057   6.683 -22.493  0.00  0.00    +0.191 C 
ATOM     16  C   UNL     1       4.918   4.395 -22.879  0.00  0.00    +0.133 C 
ATOM     17  C   UNL     1       4.043   3.331 -23.185  0.00  0.00    +0.071 C 
ATOM     18  C   UNL     1       1.444   3.856 -23.509  0.00  0.00    +0.016 A 
ATOM     19  C   UNL     1       4.389   2.304 -23.294  0.00  0.00    +0.144 C 
ATOM     20  C   UNL     1       2.669   3.663 -23.348  0.00  0.00    +0.080 C 
ENDROOT
BRANCH   4  21
ATOM     21  O   UNL     1      -1.309   2.111 -24.218  0.00  0.00    -0.491 OA
ATOM     22  C   UNL     1      -2.497   2.321 -24.544  0.00  0.00    +0.277 C 
ENDBRANCH   4  21
BRANCH  19  23
ATOM     23  O   UNL     1       5.104   1.157 -23.364  0.00  0.00    -0.495 OA
ATOM     24  C   UNL     1       6.104   0.973 -22.572  0.00  0.00    +0.276 C 
ENDBRANCH  19  23
BRANCH   1  25
ATOM     25  C   UNL     1       3.319   1.156 -23.644  0.00  0.00    +0.167 C 
BRANCH  25  26
ATOM     26  O   UNL     1       3.557   0.717 -24.787  0.00  0.00    -0.387 OA
ATOM     27  H   UNL     1       4.415   1.052 -25.090  0.00  0.00    +0.210 HD
ENDBRANCH  25  26
BRANCH  25  28
ATOM     28  C   UNL     1       3.235   0.338 -22.686  0.00  0.00    +0.036 C 
BRANCH  28  29
ATOM     29  C   UNL     1       2.309   0.389 -21.830  0.00  0.00    +0.002 C 
BRANCH  29  31
ATOM     30  C   UNL     1       1.747   1.733 -20.170  0.00  0.00    +0.004 C 
ATOM     31  C   UNL     1       2.557   0.931 -20.698  0.00  0.00    -0.003 C 
ENDBRANCH  29  31
ENDBRANCH  28  29
ENDBRANCH  25  28
ENDBRANCH   1  25
TORSDOF 7
ENDMDL
MODEL 7
REMARK VINA RESULT:    -7.132      2.287      4.694
REMARK INTER + INTRA:          -1.748
REMARK INTER:                  -9.979
REMARK INTRA:                   8.231
REMARK UNBOUND:                 8.093
REMARK  Name = CCCC[C@@H](O)[C@@]12Oc3c(OC)ccc4c3[C@@]13CCN(C)[C@@H](C4)C3=CC=C2OC  ZINC000253505571
REMARK  11 active torsions:
REMARK  status: ('A' for Active; 'I' for Inactive)
REMARK    1  A    between atoms: C_1  and  C_2
REMARK    2  A    between atoms: C_2  and  C_3
REMARK    3  A    between atoms: C_3  and  C_4
REMARK    4  A    between atoms: C_4  and  C_5
REMARK    5  A    between atoms: C_5  and  O_6
REMARK    6  A    between atoms: C_5  and  C_7
REMARK    7  A    between atoms: C_10  and  O_11
REMARK    8  A    between atoms: O_11  and  C_12
REMARK    9  A    between atoms: N_20  and  C_21
REMARK   10  A    between atoms: C_27  and  O_28
REMARK   11  A    between atoms: O_28  and  C_29
REMARK                            x       y       z     vdW  Elec       q    Type
REMARK                         _______ _______ _______ _____ _____    ______ ____
ROOT
ATOM      1  C   UNL     1       0.693   2.546 -23.951  0.00  0.00    +0.206 C 
ATOM      2  O   UNL     1      -0.405   3.094 -24.834  0.00  0.00    -0.470 OA
ATOM      3  C   UNL     1      -1.742   3.164 -24.161  0.00  0.00    +0.168 A 
ATOM      4  C   UNL     1      -2.966   3.475 -24.266  0.00  0.00    +0.162 A 
ATOM      5  C   UNL     1      -3.744   3.312 -23.281  0.00  0.00    +0.050 A 
ATOM      6  C   UNL     1      -3.305   2.845 -22.205  0.00  0.00    +0.008 A 
ATOM      7  C   UNL     1      -2.097   2.538 -22.099  0.00  0.00    -0.034 A 
ATOM      8  C   UNL     1      -1.649   2.064 -21.007  0.00  0.00    +0.094 C 
ATOM      9  C   UNL     1      -0.442   1.757 -20.900  0.00  0.00    +0.096 C 
ATOM     10  C   UNL     1       0.332   1.921 -21.887  0.00  0.00    -0.007 C 
ATOM     11  C   UNL     1       1.553   1.611 -21.782  0.00  0.00    +0.009 C 
ATOM     12  C   UNL     1       2.331   1.767 -22.749  0.00  0.00    +0.045 C 
ATOM     13  N   UNL     1       0.912   1.378 -20.681  0.00  0.00    +0.239 N 
ATOM     14  H   UNL     1       1.210   1.003 -19.781  0.00  0.00    +0.204 HD
ATOM     15  C   UNL     1       1.291   0.917 -19.580  0.00  0.00    +0.191 C 
ATOM     16  C   UNL     1       1.809   1.545 -21.757  0.00  0.00    +0.133 C 
ATOM     17  C   UNL     1       1.287   2.073 -22.958  0.00  0.00    +0.071 C 
ATOM     18  C   UNL     1      -1.309   2.693 -23.068  0.00  0.00    +0.016 A 
ATOM     19  C   UNL     1       1.904   2.236 -23.840  0.00  0.00    +0.144 C 
ATOM     20  C   UNL     1      -0.100   2.387 -22.966  0.00  0.00    +0.080 C 
ENDROOT
BRANCH   4  21
ATOM     21  O   UNL     1      -3.405   3.941 -25.343  0.00  0.00    -0.491 OA
ATOM     22  C   UNL     1      -3.991   3.195 -26.157  0.00  0.00    +0.277 C 
ENDBRANCH   4  21
BRANCH  19  23
ATOM     23  O   UNL     1       2.903   2.324 -24.750  0.00  0.00    -0.495 OA
ATOM     24  C   UNL     1       4.131   2.279 -24.362  0.00  0.00    +0.276 C 
ENDBRANCH  19  23
BRANCH   1  25
ATOM     25  C   UNL     1       1.223   2.842 -25.164  0.00  0.00    +0.167 C 
BRANCH  25  26
ATOM     26  O   UNL     1       1.401   1.933 -25.999  0.00  0.00    -0.387 OA
ATOM     27  H   UNL     1       0.959   1.125 -25.696  0.00  0.00    +0.210 HD
ENDBRANCH  25  26
BRANCH  25  28
ATOM     28  C   UNL     1       1.545   4.022 -25.477  0.00  0.00    +0.036 C 
BRANCH  28  29
ATOM     29  C   UNL     1       1.347   5.005 -24.710  0.00  0.00    +0.002 C 
BRANCH  29  31
ATOM     30  C   UNL     1       2.351   5.614 -22.839  0.00  0.00    +0.004 C 
ATOM     31  C   UNL     1       2.349   5.504 -24.090  0.00  0.00    -0.003 C 
ENDBRANCH  29  31
ENDBRANCH  28  29
ENDBRANCH  25  28
ENDBRANCH   1  25
TORSDOF 7
ENDMDL
MODEL 8
REMARK VINA RESULT:    -7.102      4.289      7.960
REMARK INTER + INTRA:          -1.707
REMARK INTER:                  -9.161
REMARK INTRA:                   7.454
REMARK UNBOUND:                 8.093
REMARK  Name = CCCC[C@@H](O)[C@@]12Oc3c(OC)ccc4c3[C@@]13CCN(C)[C@@H](C4)C3=CC=C2OC  ZINC000253505571
REMARK  11 active torsions:
REMARK  status: ('A' for Active; 'I' for Inactive)
REMARK    1  A    between atoms: C_1  and  C_2
REMARK    2  A    between atoms: C_2  and  C_3
REMARK    3  A    between atoms: C_3  and  C_4
REMARK    4  A    between atoms: C_4  and  C_5
REMARK    5  A    between atoms: C_5  and  O_6
REMARK    6  A    between atoms: C_5  and  C_7
REMARK    7  A    between atoms: C_10  and  O_11
REMARK    8  A    between atoms: O_11  and  C_12
REMARK    9  A    between atoms: N_20  and  C_21
REMARK   10  A    between atoms: C_27  and  O_28
REMARK   11  A    between atoms: O_28  and  C_29
REMARK                            x       y       z     vdW  Elec       q    Type
REMARK                         _______ _______ _______ _____ _____    ______ ____
ROOT
ATOM      1  C   UNL     1       3.092   4.623 -23.333  0.00  0.00    +0.206 C 
ATOM      2  O   UNL     1       2.820   6.086 -23.069  0.00  0.00    -0.470 OA
ATOM      3  C   UNL     1       3.979   6.817 -22.463  0.00  0.00    +0.168 A 
ATOM      4  C   UNL     1       4.425   7.919 -22.026  0.00  0.00    +0.162 A 
ATOM      5  C   UNL     1       5.606   7.987 -21.576  0.00  0.00    +0.050 A 
ATOM      6  C   UNL     1       6.332   6.967 -21.563  0.00  0.00    +0.008 A 
ATOM      7  C   UNL     1       5.894   5.878 -21.994  0.00  0.00    -0.034 A 
ATOM      8  C   UNL     1       6.629   4.840 -21.982  0.00  0.00    +0.094 C 
ATOM      9  C   UNL     1       6.193   3.751 -22.412  0.00  0.00    +0.096 C 
ATOM     10  C   UNL     1       5.012   3.688 -22.861  0.00  0.00    -0.007 C 
ATOM     11  C   UNL     1       4.567   2.587 -23.297  0.00  0.00    +0.009 C 
ATOM     12  C   UNL     1       3.401   2.509 -23.744  0.00  0.00    +0.045 C 
ATOM     13  N   UNL     1       5.787   2.470 -22.879  0.00  0.00    +0.239 N 
ATOM     14  H   UNL     1       6.424   1.674 -22.843  0.00  0.00    +0.204 HD
ATOM     15  C   UNL     1       6.561   1.485 -22.840  0.00  0.00    +0.191 C 
ATOM     16  C   UNL     1       4.476   2.355 -23.388  0.00  0.00    +0.133 C 
ATOM     17  C   UNL     1       3.680   3.521 -23.391  0.00  0.00    +0.071 C 
ATOM     18  C   UNL     1       4.722   5.792 -22.445  0.00  0.00    +0.016 A 
ATOM     19  C   UNL     1       2.657   3.528 -23.764  0.00  0.00    +0.144 C 
ATOM     20  C   UNL     1       4.281   4.704 -22.877  0.00  0.00    +0.080 C 
ENDROOT
BRANCH   4  21
ATOM     21  O   UNL     1       3.698   8.940 -22.039  0.00  0.00    -0.491 OA
ATOM     22  C   UNL     1       4.155  10.029 -22.450  0.00  0.00    +0.277 C 
ENDBRANCH   4  21
BRANCH  19  23
ATOM     23  O   UNL     1       1.444   3.227 -24.283  0.00  0.00    -0.495 OA
ATOM     24  C   UNL     1       1.344   2.338 -25.212  0.00  0.00    +0.276 C 
ENDBRANCH  19  23
BRANCH   1  25
ATOM     25  C   UNL     1       1.825   4.903 -23.728  0.00  0.00    +0.167 C 
BRANCH  25  26
ATOM     26  O   UNL     1       1.601   5.199 -24.918  0.00  0.00    -0.387 OA
ATOM     27  H   UNL     1       2.407   5.558 -25.320  0.00  0.00    +0.210 HD
ENDBRANCH  25  26
BRANCH  25  28
ATOM     28  C   UNL     1       0.856   4.872 -22.919  0.00  0.00    +0.036 C 
BRANCH  28  29
ATOM     29  C   UNL     1      -0.277   5.350 -23.200  0.00  0.00    +0.002 C 
BRANCH  29  31
ATOM     30  C   UNL     1      -2.123   4.275 -23.760  0.00  0.00    +0.004 C 
ATOM     31  C   UNL     1      -1.317   4.675 -22.884  0.00  0.00    -0.003 C 
ENDBRANCH  29  31
ENDBRANCH  28  29
ENDBRANCH  25  28
ENDBRANCH   1  25
TORSDOF 7
ENDMDL
MODEL 9
REMARK VINA RESULT:    -7.089      1.870      4.744
REMARK INTER + INTRA:          -1.689
REMARK INTER:                  -9.419
REMARK INTRA:                   7.730
REMARK UNBOUND:                 8.093
REMARK  Name = CCCC[C@@H](O)[C@@]12Oc3c(OC)ccc4c3[C@@]13CCN(C)[C@@H](C4)C3=CC=C2OC  ZINC000253505571
REMARK  11 active torsions:
REMARK  status: ('A' for Active; 'I' for Inactive)
REMARK    1  A    between atoms: C_1  and  C_2
REMARK    2  A    between atoms: C_2  and  C_3
REMARK    3  A    between atoms: C_3  and  C_4
REMARK    4  A    between atoms: C_4  and  C_5
REMARK    5  A    between atoms: C_5  and  O_6
REMARK    6  A    between atoms: C_5  and  C_7
REMARK    7  A    between atoms: C_10  and  O_11
REMARK    8  A    between atoms: O_11  and  C_12
REMARK    9  A    between atoms: N_20  and  C_21
REMARK   10  A    between atoms: C_27  and  O_28
REMARK   11  A    between atoms: O_28  and  C_29
REMARK                            x       y       z     vdW  Elec       q    Type
REMARK                         _______ _______ _______ _____ _____    ______ ____
ROOT
ATOM      1  C   UNL     1      -0.704   2.318 -22.641  0.00  0.00    +0.206 C 
ATOM      2  O   UNL     1      -2.177   2.505 -22.924  0.00  0.00    -0.470 OA
ATOM      3  C   UNL     1      -2.467   3.012 -24.303  0.00  0.00    +0.168 A 
ATOM      4  C   UNL     1      -3.353   3.361 -25.139  0.00  0.00    +0.162 A 
ATOM      5  C   UNL     1      -3.012   3.751 -26.294  0.00  0.00    +0.050 A 
ATOM      6  C   UNL     1      -1.800   3.792 -26.610  0.00  0.00    +0.008 A 
ATOM      7  C   UNL     1      -0.925   3.448 -25.786  0.00  0.00    -0.034 A 
ATOM      8  C   UNL     1       0.306   3.488 -26.104  0.00  0.00    +0.094 C 
ATOM      9  C   UNL     1       1.184   3.145 -25.282  0.00  0.00    +0.096 C 
ATOM     10  C   UNL     1       0.837   2.756 -24.129  0.00  0.00    -0.007 C 
ATOM     11  C   UNL     1       1.722   2.408 -23.295  0.00  0.00    +0.009 C 
ATOM     12  C   UNL     1       1.395   2.021 -22.151  0.00  0.00    +0.045 C 
ATOM     13  N   UNL     1       2.252   2.775 -24.418  0.00  0.00    +0.239 N 
ATOM     14  H   UNL     1       3.220   2.830 -24.732  0.00  0.00    +0.204 HD
ATOM     15  C   UNL     1       3.445   2.838 -24.793  0.00  0.00    +0.191 C 
ATOM     16  C   UNL     1       1.910   2.335 -23.122  0.00  0.00    +0.133 C 
ATOM     17  C   UNL     1       0.537   2.299 -22.794  0.00  0.00    +0.071 C 
ATOM     18  C   UNL     1      -1.246   3.057 -24.633  0.00  0.00    +0.016 A 
ATOM     19  C   UNL     1       0.179   1.974 -21.818  0.00  0.00    +0.144 C 
ATOM     20  C   UNL     1      -0.372   2.713 -23.807  0.00  0.00    +0.080 C 
ENDROOT
BRANCH   4  21
ATOM     21  O   UNL     1      -4.565   3.320 -24.823  0.00  0.00    -0.491 OA
ATOM     22  C   UNL     1      -5.192   4.379 -24.604  0.00  0.00    +0.277 C 
ENDBRANCH   4  21
BRANCH  19  23
ATOM     23  O   UNL     1       0.046   1.530 -20.546  0.00  0.00    -0.495 OA
ATOM     24  C   UNL     1       1.092   1.347 -19.816  0.00  0.00    +0.276 C 
ENDBRANCH  19  23
BRANCH   1  25
ATOM     25  C   UNL     1      -1.403   1.966 -21.533  0.00  0.00    +0.167 C 
BRANCH  25  26
ATOM     26  O   UNL     1      -1.590   0.759 -21.279  0.00  0.00    -0.387 OA
ATOM     27  H   UNL     1      -2.165   0.371 -21.957  0.00  0.00    +0.210 HD
ENDBRANCH  25  26
BRANCH  25  28
ATOM     28  C   UNL     1      -1.875   2.831 -20.744  0.00  0.00    +0.036 C 
BRANCH  28  29
ATOM     29  C   UNL     1      -3.057   2.776 -20.306  0.00  0.00    +0.002 C 
BRANCH  29  31
ATOM     30  C   UNL     1      -4.996   3.050 -21.327  0.00  0.00    +0.004 C 
ATOM     31  C   UNL     1      -3.940   3.529 -20.845  0.00  0.00    -0.003 C 
ENDBRANCH  29  31
ENDBRANCH  28  29
ENDBRANCH  25  28
ENDBRANCH   1  25
TORSDOF 7
ENDMDL
