MODEL 1
REMARK VINA RESULT:    -9.767      0.000      0.000
REMARK INTER + INTRA:          -9.767
REMARK INTER:                  -9.767
REMARK INTRA:                   0.000
REMARK UNBOUND:                 0.000
REMARK  Name = ZINC000007997351
REMARK  2 active torsions:
REMARK  status: ('A' for Active; 'I' for Inactive)
REMARK    1  A    between atoms: C_10  and  C_11
REMARK    2  A    between atoms: C_15  and  C_16
REMARK                            x       y       z     vdW  Elec       q    Type
REMARK                         _______ _______ _______ _____ _____    ______ ____
ROOT
ATOM      1  C   UNL     1       0.199   2.618 -24.400  0.00  0.00    +0.020 C 
ATOM      2  C   UNL     1      -0.380   2.544 -23.238  0.00  0.00    +0.036 C 
ATOM      3  C   UNL     1       0.200   2.242 -22.114  0.00  0.00    +0.335 C 
ATOM      4  O   UNL     1      -0.701   2.271 -21.177  0.00  0.00    -0.455 OA
ATOM      5  C   UNL     1      -1.837   2.590 -21.723  0.00  0.00    +0.216 C 
ATOM      6  C   UNL     1      -3.027   2.749 -21.224  0.00  0.00    +0.192 C 
ATOM      7  O   UNL     1      -4.217   2.908 -20.725  0.00  0.00    -0.361 OA
ATOM      8  C   UNL     1      -4.018   3.076 -21.998  0.00  0.00    +0.097 C 
ATOM      9  C   UNL     1      -5.277   3.357 -22.158  0.00  0.00    +0.044 C 
ATOM     10  C   UNL     1      -3.819   3.245 -23.272  0.00  0.00    +0.041 C 
ATOM     11  C   UNL     1      -4.811   3.572 -24.047  0.00  0.00    +0.030 C 
ATOM     12  C   UNL     1      -4.612   3.741 -25.320  0.00  0.00    -0.028 C 
ATOM     13  C   UNL     1      -3.422   3.582 -25.819  0.00  0.00    -0.077 C 
ATOM     14  C   UNL     1      -3.223   3.751 -27.093  0.00  0.00    +0.039 C 
ATOM     15  C   UNL     1      -2.431   3.255 -25.045  0.00  0.00    +0.031 C 
ATOM     16  C   UNL     1      -2.629   3.086 -23.771  0.00  0.00    +0.016 C 
ATOM     17  O   UNL     1       1.459   1.962 -21.955  0.00  0.00    -0.245 OA
ATOM     18  C   UNL     1      -1.638   2.759 -22.996  0.00  0.00    +0.069 C 
ENDROOT
TORSDOF 0
ENDMDL
MODEL 2
REMARK VINA RESULT:    -9.716      1.917      3.491
REMARK INTER + INTRA:          -9.716
REMARK INTER:                  -9.716
REMARK INTRA:                   0.000
REMARK UNBOUND:                 0.000
REMARK  Name = ZINC000007997351
REMARK  2 active torsions:
REMARK  status: ('A' for Active; 'I' for Inactive)
REMARK    1  A    between atoms: C_10  and  C_11
REMARK    2  A    between atoms: C_15  and  C_16
REMARK                            x       y       z     vdW  Elec       q    Type
REMARK                         _______ _______ _______ _____ _____    ______ ____
ROOT
ATOM      1  C   UNL     1      -0.192   2.278 -22.252  0.00  0.00    +0.020 C 
ATOM      2  C   UNL     1      -0.542   2.775 -23.401  0.00  0.00    +0.036 C 
ATOM      3  C   UNL     1       0.247   2.991 -24.412  0.00  0.00    +0.335 C 
ATOM      4  O   UNL     1      -0.465   3.494 -25.377  0.00  0.00    -0.455 OA
ATOM      5  C   UNL     1      -1.693   3.589 -24.961  0.00  0.00    +0.216 C 
ATOM      6  C   UNL     1      -2.775   4.022 -25.538  0.00  0.00    +0.192 C 
ATOM      7  O   UNL     1      -3.857   4.456 -26.114  0.00  0.00    -0.361 OA
ATOM      8  C   UNL     1      -3.904   4.012 -24.893  0.00  0.00    +0.097 C 
ATOM      9  C   UNL     1      -5.180   4.256 -24.853  0.00  0.00    +0.044 C 
ATOM     10  C   UNL     1      -3.950   3.568 -23.672  0.00  0.00    +0.041 C 
ATOM     11  C   UNL     1      -5.079   3.558 -23.027  0.00  0.00    +0.030 C 
ATOM     12  C   UNL     1      -5.126   3.114 -21.806  0.00  0.00    -0.028 C 
ATOM     13  C   UNL     1      -4.045   2.680 -21.230  0.00  0.00    -0.077 C 
ATOM     14  C   UNL     1      -4.091   2.236 -20.009  0.00  0.00    +0.039 C 
ATOM     15  C   UNL     1      -2.916   2.691 -21.874  0.00  0.00    +0.031 C 
ATOM     16  C   UNL     1      -2.869   3.135 -23.096  0.00  0.00    +0.016 C 
ATOM     17  O   UNL     1       1.523   2.747 -24.452  0.00  0.00    -0.245 OA
ATOM     18  C   UNL     1      -1.740   3.145 -23.741  0.00  0.00    +0.069 C 
ENDROOT
TORSDOF 0
ENDMDL
MODEL 3
REMARK VINA RESULT:    -9.442      1.804      3.389
REMARK INTER + INTRA:          -9.442
REMARK INTER:                  -9.442
REMARK INTRA:                   0.000
REMARK UNBOUND:                 0.000
REMARK  Name = ZINC000007997351
REMARK  2 active torsions:
REMARK  status: ('A' for Active; 'I' for Inactive)
REMARK    1  A    between atoms: C_10  and  C_11
REMARK    2  A    between atoms: C_15  and  C_16
REMARK                            x       y       z     vdW  Elec       q    Type
REMARK                         _______ _______ _______ _____ _____    ______ ____
ROOT
ATOM      1  C   UNL     1      -0.163   1.883 -21.373  0.00  0.00    +0.020 C 
ATOM      2  C   UNL     1      -0.178   2.281 -22.610  0.00  0.00    +0.036 C 
ATOM      3  C   UNL     1       0.842   2.309 -23.416  0.00  0.00    +0.335 C 
ATOM      4  O   UNL     1       0.436   2.766 -24.563  0.00  0.00    -0.455 OA
ATOM      5  C   UNL     1      -0.836   3.020 -24.466  0.00  0.00    +0.216 C 
ATOM      6  C   UNL     1      -1.697   3.486 -25.321  0.00  0.00    +0.192 C 
ATOM      7  O   UNL     1      -2.558   3.953 -26.176  0.00  0.00    -0.361 OA
ATOM      8  C   UNL     1      -2.937   3.653 -24.969  0.00  0.00    +0.097 C 
ATOM      9  C   UNL     1      -4.150   4.018 -25.259  0.00  0.00    +0.044 C 
ATOM     10  C   UNL     1      -3.316   3.353 -23.762  0.00  0.00    +0.041 C 
ATOM     11  C   UNL     1      -4.557   3.519 -23.410  0.00  0.00    +0.030 C 
ATOM     12  C   UNL     1      -4.935   3.219 -22.203  0.00  0.00    -0.028 C 
ATOM     13  C   UNL     1      -4.074   2.753 -21.348  0.00  0.00    -0.077 C 
ATOM     14  C   UNL     1      -4.453   2.453 -20.142  0.00  0.00    +0.039 C 
ATOM     15  C   UNL     1      -2.834   2.587 -21.700  0.00  0.00    +0.031 C 
ATOM     16  C   UNL     1      -2.454   2.887 -22.907  0.00  0.00    +0.016 C 
ATOM     17  O   UNL     1       2.055   1.944 -23.126  0.00  0.00    -0.245 OA
ATOM     18  C   UNL     1      -1.214   2.720 -23.259  0.00  0.00    +0.069 C 
ENDROOT
TORSDOF 0
ENDMDL
MODEL 4
REMARK VINA RESULT:    -8.821      2.832      4.520
REMARK INTER + INTRA:          -8.821
REMARK INTER:                  -8.821
REMARK INTRA:                   0.000
REMARK UNBOUND:                 0.000
REMARK  Name = ZINC000007997351
REMARK  2 active torsions:
REMARK  status: ('A' for Active; 'I' for Inactive)
REMARK    1  A    between atoms: C_10  and  C_11
REMARK    2  A    between atoms: C_15  and  C_16
REMARK                            x       y       z     vdW  Elec       q    Type
REMARK                         _______ _______ _______ _____ _____    ______ ____
ROOT
ATOM      1  C   UNL     1       0.901   1.438 -20.354  0.00  0.00    +0.020 C 
ATOM      2  C   UNL     1       1.541   1.479 -21.485  0.00  0.00    +0.036 C 
ATOM      3  C   UNL     1       2.692   0.927 -21.732  0.00  0.00    +0.335 C 
ATOM      4  O   UNL     1       3.005   1.187 -22.966  0.00  0.00    -0.455 OA
ATOM      5  C   UNL     1       2.047   1.899 -23.482  0.00  0.00    +0.216 C 
ATOM      6  C   UNL     1       1.883   2.406 -24.668  0.00  0.00    +0.192 C 
ATOM      7  O   UNL     1       1.718   2.914 -25.853  0.00  0.00    -0.361 OA
ATOM      8  C   UNL     1       0.814   3.095 -24.937  0.00  0.00    +0.097 C 
ATOM      9  C   UNL     1       0.101   3.785 -25.777  0.00  0.00    +0.044 C 
ATOM     10  C   UNL     1      -0.091   3.275 -24.021  0.00  0.00    +0.041 C 
ATOM     11  C   UNL     1      -1.161   3.964 -24.291  0.00  0.00    +0.030 C 
ATOM     12  C   UNL     1      -2.065   4.145 -23.375  0.00  0.00    -0.028 C 
ATOM     13  C   UNL     1      -1.900   3.637 -22.189  0.00  0.00    -0.077 C 
ATOM     14  C   UNL     1      -2.805   3.818 -21.273  0.00  0.00    +0.039 C 
ATOM     15  C   UNL     1      -0.831   2.949 -21.920  0.00  0.00    +0.031 C 
ATOM     16  C   UNL     1       0.074   2.768 -22.836  0.00  0.00    +0.016 C 
ATOM     17  O   UNL     1       3.404   0.237 -20.892  0.00  0.00    -0.245 OA
ATOM     18  C   UNL     1       1.143   2.080 -22.566  0.00  0.00    +0.069 C 
ENDROOT
TORSDOF 0
ENDMDL
MODEL 5
REMARK VINA RESULT:    -8.655      1.424      4.368
REMARK INTER + INTRA:          -8.655
REMARK INTER:                  -8.655
REMARK INTRA:                   0.000
REMARK UNBOUND:                 0.000
REMARK  Name = ZINC000007997351
REMARK  2 active torsions:
REMARK  status: ('A' for Active; 'I' for Inactive)
REMARK    1  A    between atoms: C_10  and  C_11
REMARK    2  A    between atoms: C_15  and  C_16
REMARK                            x       y       z     vdW  Elec       q    Type
REMARK                         _______ _______ _______ _____ _____    ______ ____
ROOT
ATOM      1  C   UNL     1      -2.976   4.190 -24.370  0.00  0.00    +0.020 C 
ATOM      2  C   UNL     1      -2.798   3.458 -23.310  0.00  0.00    +0.036 C 
ATOM      3  C   UNL     1      -3.719   3.099 -22.466  0.00  0.00    +0.335 C 
ATOM      4  O   UNL     1      -3.158   2.376 -21.542  0.00  0.00    -0.455 OA
ATOM      5  C   UNL     1      -1.890   2.290 -21.815  0.00  0.00    +0.216 C 
ATOM      6  C   UNL     1      -0.909   1.689 -21.209  0.00  0.00    +0.192 C 
ATOM      7  O   UNL     1       0.071   1.087 -20.604  0.00  0.00    -0.361 OA
ATOM      8  C   UNL     1       0.294   1.756 -21.696  0.00  0.00    +0.097 C 
ATOM      9  C   UNL     1       1.555   1.448 -21.628  0.00  0.00    +0.044 C 
ATOM     10  C   UNL     1       0.516   2.424 -22.788  0.00  0.00    +0.041 C 
ATOM     11  C   UNL     1       1.720   2.492 -23.276  0.00  0.00    +0.030 C 
ATOM     12  C   UNL     1       1.943   3.161 -24.368  0.00  0.00    -0.028 C 
ATOM     13  C   UNL     1       0.962   3.762 -24.973  0.00  0.00    -0.077 C 
ATOM     14  C   UNL     1       1.184   4.431 -26.066  0.00  0.00    +0.039 C 
ATOM     15  C   UNL     1      -0.241   3.695 -24.487  0.00  0.00    +0.031 C 
ATOM     16  C   UNL     1      -0.464   3.026 -23.394  0.00  0.00    +0.016 C 
ATOM     17  O   UNL     1      -4.980   3.407 -22.534  0.00  0.00    -0.245 OA
ATOM     18  C   UNL     1      -1.668   2.959 -22.907  0.00  0.00    +0.069 C 
ENDROOT
TORSDOF 0
ENDMDL
MODEL 6
REMARK VINA RESULT:    -8.417      1.246      3.552
REMARK INTER + INTRA:          -8.417
REMARK INTER:                  -8.417
REMARK INTRA:                   0.000
REMARK UNBOUND:                 0.000
REMARK  Name = ZINC000007997351
REMARK  2 active torsions:
REMARK  status: ('A' for Active; 'I' for Inactive)
REMARK    1  A    between atoms: C_10  and  C_11
REMARK    2  A    between atoms: C_15  and  C_16
REMARK                            x       y       z     vdW  Elec       q    Type
REMARK                         _______ _______ _______ _____ _____    ______ ____
ROOT
ATOM      1  C   UNL     1      -4.854   3.394 -21.777  0.00  0.00    +0.020 C 
ATOM      2  C   UNL     1      -3.564   3.484 -21.643  0.00  0.00    +0.036 C 
ATOM      3  C   UNL     1      -2.915   3.552 -20.519  0.00  0.00    +0.335 C 
ATOM      4  O   UNL     1      -1.647   3.632 -20.791  0.00  0.00    -0.455 OA
ATOM      5  C   UNL     1      -1.511   3.612 -22.084  0.00  0.00    +0.216 C 
ATOM      6  C   UNL     1      -0.462   3.666 -22.850  0.00  0.00    +0.192 C 
ATOM      7  O   UNL     1       0.587   3.720 -23.616  0.00  0.00    -0.361 OA
ATOM      8  C   UNL     1      -0.598   3.628 -24.142  0.00  0.00    +0.097 C 
ATOM      9  C   UNL     1      -0.071   3.638 -25.330  0.00  0.00    +0.044 C 
ATOM     10  C   UNL     1      -1.783   3.537 -24.668  0.00  0.00    +0.041 C 
ATOM     11  C   UNL     1      -1.920   3.499 -25.961  0.00  0.00    +0.030 C 
ATOM     12  C   UNL     1      -3.104   3.408 -26.487  0.00  0.00    -0.028 C 
ATOM     13  C   UNL     1      -4.154   3.354 -25.721  0.00  0.00    -0.077 C 
ATOM     14  C   UNL     1      -5.339   3.263 -26.248  0.00  0.00    +0.039 C 
ATOM     15  C   UNL     1      -4.018   3.392 -24.429  0.00  0.00    +0.031 C 
ATOM     16  C   UNL     1      -2.832   3.483 -23.902  0.00  0.00    +0.016 C 
ATOM     17  O   UNL     1      -3.442   3.543 -19.331  0.00  0.00    -0.245 OA
ATOM     18  C   UNL     1      -2.696   3.521 -22.610  0.00  0.00    +0.069 C 
ENDROOT
TORSDOF 0
ENDMDL
MODEL 7
REMARK VINA RESULT:    -8.243      1.373      2.384
REMARK INTER + INTRA:          -8.243
REMARK INTER:                  -8.243
REMARK INTRA:                   0.000
REMARK UNBOUND:                 0.000
REMARK  Name = ZINC000007997351
REMARK  2 active torsions:
REMARK  status: ('A' for Active; 'I' for Inactive)
REMARK    1  A    between atoms: C_10  and  C_11
REMARK    2  A    between atoms: C_15  and  C_16
REMARK                            x       y       z     vdW  Elec       q    Type
REMARK                         _______ _______ _______ _____ _____    ______ ____
ROOT
ATOM      1  C   UNL     1      -1.226   3.725 -26.221  0.00  0.00    +0.020 C 
ATOM      2  C   UNL     1      -0.693   3.343 -25.099  0.00  0.00    +0.036 C 
ATOM      3  C   UNL     1       0.563   3.068 -24.904  0.00  0.00    +0.335 C 
ATOM      4  O   UNL     1       0.710   2.724 -23.659  0.00  0.00    -0.455 OA
ATOM      5  C   UNL     1      -0.455   2.787 -23.084  0.00  0.00    +0.216 C 
ATOM      6  C   UNL     1      -0.837   2.545 -21.866  0.00  0.00    +0.192 C 
ATOM      7  O   UNL     1      -1.220   2.303 -20.647  0.00  0.00    -0.361 OA
ATOM      8  C   UNL     1      -2.087   2.685 -21.537  0.00  0.00    +0.097 C 
ATOM      9  C   UNL     1      -3.030   2.627 -20.644  0.00  0.00    +0.044 C 
ATOM     10  C   UNL     1      -2.954   3.068 -22.427  0.00  0.00    +0.041 C 
ATOM     11  C   UNL     1      -4.204   3.208 -22.099  0.00  0.00    +0.030 C 
ATOM     12  C   UNL     1      -5.071   3.590 -22.989  0.00  0.00    -0.028 C 
ATOM     13  C   UNL     1      -4.688   3.832 -24.207  0.00  0.00    -0.077 C 
ATOM     14  C   UNL     1      -5.555   4.214 -25.097  0.00  0.00    +0.039 C 
ATOM     15  C   UNL     1      -3.439   3.692 -24.536  0.00  0.00    +0.031 C 
ATOM     16  C   UNL     1      -2.571   3.309 -23.646  0.00  0.00    +0.016 C 
ATOM     17  O   UNL     1       1.505   3.127 -25.797  0.00  0.00    -0.245 OA
ATOM     18  C   UNL     1      -1.321   3.169 -23.974  0.00  0.00    +0.069 C 
ENDROOT
TORSDOF 0
ENDMDL
MODEL 8
REMARK VINA RESULT:    -8.105      2.786      6.185
REMARK INTER + INTRA:          -8.105
REMARK INTER:                  -8.105
REMARK INTRA:                   0.000
REMARK UNBOUND:                 0.000
REMARK  Name = ZINC000007997351
REMARK  2 active torsions:
REMARK  status: ('A' for Active; 'I' for Inactive)
REMARK    1  A    between atoms: C_10  and  C_11
REMARK    2  A    between atoms: C_15  and  C_16
REMARK                            x       y       z     vdW  Elec       q    Type
REMARK                         _______ _______ _______ _____ _____    ______ ____
ROOT
ATOM      1  C   UNL     1      -0.747   1.110 -21.594  0.00  0.00    +0.020 C 
ATOM      2  C   UNL     1      -0.698   2.246 -22.225  0.00  0.00    +0.036 C 
ATOM      3  C   UNL     1      -1.719   2.919 -22.666  0.00  0.00    +0.335 C 
ATOM      4  O   UNL     1      -1.272   3.997 -23.240  0.00  0.00    -0.455 OA
ATOM      5  C   UNL     1       0.025   3.989 -23.152  0.00  0.00    +0.216 C 
ATOM      6  C   UNL     1       0.930   4.829 -23.563  0.00  0.00    +0.192 C 
ATOM      7  O   UNL     1       1.834   5.668 -23.973  0.00  0.00    -0.361 OA
ATOM      8  C   UNL     1       2.188   4.586 -23.346  0.00  0.00    +0.097 C 
ATOM      9  C   UNL     1       3.436   4.929 -23.458  0.00  0.00    +0.044 C 
ATOM     10  C   UNL     1       2.542   3.504 -22.719  0.00  0.00    +0.041 C 
ATOM     11  C   UNL     1       3.801   3.260 -22.502  0.00  0.00    +0.030 C 
ATOM     12  C   UNL     1       4.155   2.178 -21.875  0.00  0.00    -0.028 C 
ATOM     13  C   UNL     1       3.251   1.339 -21.464  0.00  0.00    -0.077 C 
ATOM     14  C   UNL     1       3.605   0.257 -20.837  0.00  0.00    +0.039 C 
ATOM     15  C   UNL     1       1.993   1.582 -21.681  0.00  0.00    +0.031 C 
ATOM     16  C   UNL     1       1.638   2.665 -22.308  0.00  0.00    +0.016 C 
ATOM     17  O   UNL     1      -2.967   2.575 -22.554  0.00  0.00    -0.245 OA
ATOM     18  C   UNL     1       0.380   2.907 -22.525  0.00  0.00    +0.069 C 
ENDROOT
TORSDOF 0
ENDMDL
MODEL 9
REMARK VINA RESULT:    -7.766      4.034      7.261
REMARK INTER + INTRA:          -7.766
REMARK INTER:                  -7.766
REMARK INTRA:                   0.000
REMARK UNBOUND:                 0.000
REMARK  Name = ZINC000007997351
REMARK  2 active torsions:
REMARK  status: ('A' for Active; 'I' for Inactive)
REMARK    1  A    between atoms: C_10  and  C_11
REMARK    2  A    between atoms: C_15  and  C_16
REMARK                            x       y       z     vdW  Elec       q    Type
REMARK                         _______ _______ _______ _____ _____    ______ ____
ROOT
ATOM      1  C   UNL     1       1.931   5.246 -23.696  0.00  0.00    +0.020 C 
ATOM      2  C   UNL     1       1.631   4.037 -23.326  0.00  0.00    +0.036 C 
ATOM      3  C   UNL     1       0.447   3.500 -23.358  0.00  0.00    +0.335 C 
ATOM      4  O   UNL     1       0.546   2.283 -22.911  0.00  0.00    -0.455 OA
ATOM      5  C   UNL     1       1.790   2.068 -22.604  0.00  0.00    +0.216 C 
ATOM      6  C   UNL     1       2.400   1.025 -22.124  0.00  0.00    +0.192 C 
ATOM      7  O   UNL     1       3.009  -0.019 -21.644  0.00  0.00    -0.361 OA
ATOM      8  C   UNL     1       3.679   1.065 -21.900  0.00  0.00    +0.097 C 
ATOM      9  C   UNL     1       4.770   0.487 -21.494  0.00  0.00    +0.044 C 
ATOM     10  C   UNL     1       4.350   2.149 -22.157  0.00  0.00    +0.041 C 
ATOM     11  C   UNL     1       5.630   2.190 -21.933  0.00  0.00    +0.030 C 
ATOM     12  C   UNL     1       6.300   3.274 -22.190  0.00  0.00    -0.028 C 
ATOM     13  C   UNL     1       5.691   4.317 -22.670  0.00  0.00    -0.077 C 
ATOM     14  C   UNL     1       6.361   5.400 -22.927  0.00  0.00    +0.039 C 
ATOM     15  C   UNL     1       4.411   4.276 -22.894  0.00  0.00    +0.031 C 
ATOM     16  C   UNL     1       3.740   3.192 -22.637  0.00  0.00    +0.016 C 
ATOM     17  O   UNL     1      -0.644   4.079 -23.764  0.00  0.00    -0.245 OA
ATOM     18  C   UNL     1       2.461   3.151 -22.861  0.00  0.00    +0.069 C 
ENDROOT
TORSDOF 0
ENDMDL
