MODEL 1
REMARK VINA RESULT:   -10.053      0.000      0.000
REMARK INTER + INTRA:         -11.370
REMARK INTER:                 -11.267
REMARK INTRA:                  -0.103
REMARK UNBOUND:                -0.142
REMARK  Name = COc1ccc2c(c1O)[C@@]13CCN(C)[C@H](C2)[C@@H]1C(Br)=CC=C3C              ZINC000100393691
REMARK  5 active torsions:
REMARK  status: ('A' for Active; 'I' for Inactive)
REMARK    1  A    between atoms: C_1  and  O_2
REMARK    2  A    between atoms: O_2  and  C_3
REMARK    3  A    between atoms: C_8  and  O_9
REMARK    4  A    between atoms: N_13  and  C_14
REMARK    5  A    between atoms: C_22  and  C_23
REMARK                            x       y       z     vdW  Elec       q    Type
REMARK                         _______ _______ _______ _____ _____    ______ ____
ROOT
ATOM      1  C   UNL     1      -4.902   3.463 -22.896  0.00  0.00    +0.162 A 
ATOM      2  C   UNL     1      -5.208   3.796 -24.083  0.00  0.00    +0.049 A 
ATOM      3  C   UNL     1      -4.288   3.818 -24.961  0.00  0.00    +0.008 A 
ATOM      4  C   UNL     1      -2.908   3.459 -24.572  0.00  0.00    -0.034 A 
ATOM      5  C   UNL     1      -2.733   3.190 -23.550  0.00  0.00    +0.012 A 
ATOM      6  C   UNL     1      -1.931   2.928 -23.091  0.00  0.00    +0.038 C 
ATOM      7  C   UNL     1      -3.445   3.367 -23.716  0.00  0.00    +0.067 C 
ATOM      8  C   UNL     1      -3.563   3.719 -25.148  0.00  0.00    +0.132 C 
ATOM      9  N   UNL     1      -2.603   3.689 -25.832  0.00  0.00    +0.236 N 
ATOM     10  H   UNL     1      -1.642   3.575 -26.153  0.00  0.00    +0.203 HD
ATOM     11  C   UNL     1      -1.167   3.280 -25.271  0.00  0.00    +0.078 C 
ATOM     12  C   UNL     1      -3.353   4.072 -26.862  0.00  0.00    +0.190 C 
ATOM     13  C   UNL     1      -1.710   2.607 -21.885  0.00  0.00    -0.061 C 
ATOM     14  C   UNL     1      -2.615   2.585 -21.021  0.00  0.00    +0.040 C 
ATOM     15  C   UNL     1      -0.502   2.286 -21.511  0.00  0.00    +0.001 C 
ATOM     16  C   UNL     1       0.499   2.289 -22.375  0.00  0.00    +0.011 C 
ATOM     17  C   UNL     1       0.317   2.611 -23.623  0.00  0.00    +0.005 C 
ATOM     18 BR   UNL     1       1.302   2.611 -24.457  0.00  0.00    -0.054 Br
ATOM     19  C   UNL     1      -0.839   2.929 -24.024  0.00  0.00    +0.090 C 
ATOM     20  C   UNL     1      -1.994   3.483 -25.453  0.00  0.00    +0.090 C 
ATOM     21  C   UNL     1      -3.674   3.159 -22.615  0.00  0.00    +0.163 A 
ENDROOT
BRANCH   1  23
ATOM     22  C   UNL     1      -6.737   2.604 -21.656  0.00  0.00    +0.277 C 
ATOM     23  O   UNL     1      -5.733   3.372 -21.794  0.00  0.00    -0.491 OA
ENDBRANCH   1  23
BRANCH  21  24
ATOM     24  O   UNL     1      -3.394   2.828 -21.416  0.00  0.00    -0.503 OA
ATOM     25  H   UNL     1      -3.662   1.993 -21.084  0.00  0.00    +0.292 HD
ENDBRANCH  21  24
TORSDOF 2
ENDMDL
MODEL 2
REMARK VINA RESULT:    -9.855      2.203      4.073
REMARK INTER + INTRA:         -11.150
REMARK INTER:                 -11.004
REMARK INTRA:                  -0.146
REMARK UNBOUND:                -0.142
REMARK  Name = COc1ccc2c(c1O)[C@@]13CCN(C)[C@H](C2)[C@@H]1C(Br)=CC=C3C              ZINC000100393691
REMARK  5 active torsions:
REMARK  status: ('A' for Active; 'I' for Inactive)
REMARK    1  A    between atoms: C_1  and  O_2
REMARK    2  A    between atoms: O_2  and  C_3
REMARK    3  A    between atoms: C_8  and  O_9
REMARK    4  A    between atoms: N_13  and  C_14
REMARK    5  A    between atoms: C_22  and  C_23
REMARK                            x       y       z     vdW  Elec       q    Type
REMARK                         _______ _______ _______ _____ _____    ______ ____
ROOT
ATOM      1  C   UNL     1       0.138   3.036 -24.315  0.00  0.00    +0.162 A 
ATOM      2  C   UNL     1      -0.208   3.323 -25.503  0.00  0.00    +0.049 A 
ATOM      3  C   UNL     1      -1.443   3.501 -25.747  0.00  0.00    +0.008 A 
ATOM      4  C   UNL     1      -2.424   3.369 -24.650  0.00  0.00    -0.034 A 
ATOM      5  C   UNL     1      -2.051   3.125 -23.676  0.00  0.00    +0.012 A 
ATOM      6  C   UNL     1      -2.502   2.994 -22.837  0.00  0.00    +0.038 C 
ATOM      7  C   UNL     1      -1.527   3.185 -24.211  0.00  0.00    +0.067 C 
ATOM      8  C   UNL     1      -2.159   3.523 -25.505  0.00  0.00    +0.132 C 
ATOM      9  N   UNL     1      -3.329   3.655 -25.562  0.00  0.00    +0.236 N 
ATOM     10  H   UNL     1      -4.315   3.701 -25.305  0.00  0.00    +0.203 HD
ATOM     11  C   UNL     1      -4.270   3.481 -24.285  0.00  0.00    +0.078 C 
ATOM     12  C   UNL     1      -3.215   3.917 -26.861  0.00  0.00    +0.190 C 
ATOM     13  C   UNL     1      -2.074   2.705 -21.680  0.00  0.00    -0.061 C 
ATOM     14  C   UNL     1      -0.858   2.530 -21.439  0.00  0.00    +0.040 C 
ATOM     15  C   UNL     1      -2.915   2.582 -20.690  0.00  0.00    +0.001 C 
ATOM     16  C   UNL     1      -4.213   2.754 -20.877  0.00  0.00    +0.011 C 
ATOM     17  C   UNL     1      -4.696   3.051 -22.049  0.00  0.00    +0.005 C 
ATOM     18 BR   UNL     1      -5.964   3.217 -22.220  0.00  0.00    -0.054 Br
ATOM     19  C   UNL     1      -3.912   3.179 -23.034  0.00  0.00    +0.090 C 
ATOM     20  C   UNL     1      -3.656   3.548 -24.899  0.00  0.00    +0.090 C 
ATOM     21  C   UNL     1      -0.769   2.934 -23.394  0.00  0.00    +0.163 A 
ENDROOT
BRANCH   1  23
ATOM     22  C   UNL     1       2.369   2.230 -24.439  0.00  0.00    +0.277 C 
ATOM     23  O   UNL     1       1.412   2.803 -23.829  0.00  0.00    -0.491 OA
ENDBRANCH   1  23
BRANCH  21  24
ATOM     24  O   UNL     1      -0.394   2.645 -22.209  0.00  0.00    -0.503 OA
ATOM     25  H   UNL     1      -0.959   2.821 -21.482  0.00  0.00    +0.292 HD
ENDBRANCH  21  24
TORSDOF 2
ENDMDL
MODEL 3
REMARK VINA RESULT:    -9.563      2.329      3.902
REMARK INTER + INTRA:         -10.823
REMARK INTER:                 -10.677
REMARK INTRA:                  -0.146
REMARK UNBOUND:                -0.142
REMARK  Name = COc1ccc2c(c1O)[C@@]13CCN(C)[C@H](C2)[C@@H]1C(Br)=CC=C3C              ZINC000100393691
REMARK  5 active torsions:
REMARK  status: ('A' for Active; 'I' for Inactive)
REMARK    1  A    between atoms: C_1  and  O_2
REMARK    2  A    between atoms: O_2  and  C_3
REMARK    3  A    between atoms: C_8  and  O_9
REMARK    4  A    between atoms: N_13  and  C_14
REMARK    5  A    between atoms: C_22  and  C_23
REMARK                            x       y       z     vdW  Elec       q    Type
REMARK                         _______ _______ _______ _____ _____    ______ ____
ROOT
ATOM      1  C   UNL     1      -2.298   3.355 -25.163  0.00  0.00    +0.162 A 
ATOM      2  C   UNL     1      -3.248   3.237 -24.329  0.00  0.00    +0.049 A 
ATOM      3  C   UNL     1      -2.973   2.849 -23.149  0.00  0.00    +0.008 A 
ATOM      4  C   UNL     1      -1.570   2.551 -22.794  0.00  0.00    -0.034 A 
ATOM      5  C   UNL     1      -0.827   2.675 -23.556  0.00  0.00    +0.012 A 
ATOM      6  C   UNL     1       0.125   2.541 -23.543  0.00  0.00    +0.038 C 
ATOM      7  C   UNL     1      -1.530   2.835 -23.768  0.00  0.00    +0.067 C 
ATOM      8  C   UNL     1      -2.462   2.627 -22.638  0.00  0.00    +0.132 C 
ATOM      9  N   UNL     1      -2.041   2.261 -21.599  0.00  0.00    +0.236 N 
ATOM     10  H   UNL     1      -1.407   1.955 -20.862  0.00  0.00    +0.203 HD
ATOM     11  C   UNL     1      -0.490   1.977 -21.361  0.00  0.00    +0.078 C 
ATOM     12  C   UNL     1      -3.279   2.286 -21.114  0.00  0.00    +0.190 C 
ATOM     13  C   UNL     1       1.014   2.684 -24.434  0.00  0.00    -0.061 C 
ATOM     14  C   UNL     1       0.743   3.066 -25.595  0.00  0.00    +0.040 C 
ATOM     15  C   UNL     1       2.261   2.429 -24.152  0.00  0.00    +0.001 C 
ATOM     16  C   UNL     1       2.614   2.022 -22.945  0.00  0.00    +0.011 C 
ATOM     17  C   UNL     1       1.734   1.862 -21.999  0.00  0.00    +0.005 C 
ATOM     18 BR   UNL     1       2.090   1.464 -20.824  0.00  0.00    -0.054 Br
ATOM     19  C   UNL     1       0.514   2.099 -22.234  0.00  0.00    +0.090 C 
ATOM     20  C   UNL     1      -1.301   2.164 -21.615  0.00  0.00    +0.090 C 
ATOM     21  C   UNL     1      -1.087   3.078 -24.793  0.00  0.00    +0.163 A 
ENDROOT
BRANCH   1  23
ATOM     22  C   UNL     1      -3.284   3.479 -27.320  0.00  0.00    +0.277 C 
ATOM     23  O   UNL     1      -2.367   3.756 -26.484  0.00  0.00    -0.491 OA
ENDBRANCH   1  23
BRANCH  21  24
ATOM     24  O   UNL     1      -0.151   3.205 -25.651  0.00  0.00    -0.503 OA
ATOM     25  H   UNL     1       0.464   3.909 -25.574  0.00  0.00    +0.292 HD
ENDBRANCH  21  24
TORSDOF 2
ENDMDL
MODEL 4
REMARK VINA RESULT:    -9.518      1.921      4.156
REMARK INTER + INTRA:         -10.773
REMARK INTER:                 -10.629
REMARK INTRA:                  -0.144
REMARK UNBOUND:                -0.142
REMARK  Name = COc1ccc2c(c1O)[C@@]13CCN(C)[C@H](C2)[C@@H]1C(Br)=CC=C3C              ZINC000100393691
REMARK  5 active torsions:
REMARK  status: ('A' for Active; 'I' for Inactive)
REMARK    1  A    between atoms: C_1  and  O_2
REMARK    2  A    between atoms: O_2  and  C_3
REMARK    3  A    between atoms: C_8  and  O_9
REMARK    4  A    between atoms: N_13  and  C_14
REMARK    5  A    between atoms: C_22  and  C_23
REMARK                            x       y       z     vdW  Elec       q    Type
REMARK                         _______ _______ _______ _____ _____    ______ ____
ROOT
ATOM      1  C   UNL     1       0.206   2.035 -21.886  0.00  0.00    +0.162 A 
ATOM      2  C   UNL     1       0.996   2.286 -22.849  0.00  0.00    +0.049 A 
ATOM      3  C   UNL     1       0.520   2.826 -23.897  0.00  0.00    +0.008 A 
ATOM      4  C   UNL     1      -0.923   3.139 -23.957  0.00  0.00    -0.034 A 
ATOM      5  C   UNL     1      -1.521   2.896 -23.103  0.00  0.00    +0.012 A 
ATOM      6  C   UNL     1      -2.460   3.011 -22.931  0.00  0.00    +0.038 C 
ATOM      7  C   UNL     1      -0.792   2.724 -23.041  0.00  0.00    +0.067 C 
ATOM      8  C   UNL     1      -0.072   3.105 -24.275  0.00  0.00    +0.132 C 
ATOM      9  N   UNL     1      -0.667   3.601 -25.164  0.00  0.00    +0.236 N 
ATOM     10  H   UNL     1      -1.420   3.991 -25.730  0.00  0.00    +0.203 HD
ATOM     11  C   UNL     1      -2.236   3.881 -25.088  0.00  0.00    +0.078 C 
ATOM     12  C   UNL     1       0.466   3.668 -25.856  0.00  0.00    +0.190 C 
ATOM     13  C   UNL     1      -3.179   2.728 -21.927  0.00  0.00    -0.061 C 
ATOM     14  C   UNL     1      -2.711   2.197 -20.895  0.00  0.00    +0.040 C 
ATOM     15  C   UNL     1      -4.456   2.993 -21.950  0.00  0.00    +0.001 C 
ATOM     16  C   UNL     1      -5.014   3.554 -23.009  0.00  0.00    +0.011 C 
ATOM     17  C   UNL     1      -4.313   3.861 -24.063  0.00  0.00    +0.005 C 
ATOM     18 BR   UNL     1      -4.868   4.408 -25.091  0.00  0.00    -0.054 Br
ATOM     19  C   UNL     1      -3.071   3.620 -24.079  0.00  0.00    +0.090 C 
ATOM     20  C   UNL     1      -1.393   3.679 -25.007  0.00  0.00    +0.090 C 
ATOM     21  C   UNL     1      -1.050   2.333 -21.998  0.00  0.00    +0.163 A 
ENDROOT
BRANCH   1  23
ATOM     22  C   UNL     1       1.653   1.352 -20.130  0.00  0.00    +0.277 C 
ATOM     23  O   UNL     1       0.505   1.457 -20.665  0.00  0.00    -0.491 OA
ENDBRANCH   1  23
BRANCH  21  24
ATOM     24  O   UNL     1      -1.821   2.070 -21.016  0.00  0.00    -0.503 OA
ATOM     25  H   UNL     1      -1.591   1.397 -20.406  0.00  0.00    +0.292 HD
ENDBRANCH  21  24
TORSDOF 2
ENDMDL
MODEL 5
REMARK VINA RESULT:    -9.384      2.513      4.900
REMARK INTER + INTRA:         -10.623
REMARK INTER:                 -10.478
REMARK INTRA:                  -0.145
REMARK UNBOUND:                -0.142
REMARK  Name = COc1ccc2c(c1O)[C@@]13CCN(C)[C@H](C2)[C@@H]1C(Br)=CC=C3C              ZINC000100393691
REMARK  5 active torsions:
REMARK  status: ('A' for Active; 'I' for Inactive)
REMARK    1  A    between atoms: C_1  and  O_2
REMARK    2  A    between atoms: O_2  and  C_3
REMARK    3  A    between atoms: C_8  and  O_9
REMARK    4  A    between atoms: N_13  and  C_14
REMARK    5  A    between atoms: C_22  and  C_23
REMARK                            x       y       z     vdW  Elec       q    Type
REMARK                         _______ _______ _______ _____ _____    ______ ____
ROOT
ATOM      1  C   UNL     1      -0.007   2.253 -22.332  0.00  0.00    +0.162 A 
ATOM      2  C   UNL     1      -0.540   2.132 -21.185  0.00  0.00    +0.049 A 
ATOM      3  C   UNL     1      -1.779   2.390 -21.063  0.00  0.00    +0.008 A 
ATOM      4  C   UNL     1      -2.549   2.816 -22.251  0.00  0.00    -0.034 A 
ATOM      5  C   UNL     1      -2.026   2.893 -23.182  0.00  0.00    +0.012 A 
ATOM      6  C   UNL     1      -2.324   3.146 -24.060  0.00  0.00    +0.038 C 
ATOM      7  C   UNL     1      -1.606   2.674 -22.598  0.00  0.00    +0.067 C 
ATOM      8  C   UNL     1      -2.434   2.605 -21.374  0.00  0.00    +0.132 C 
ATOM      9  N   UNL     1      -3.580   2.878 -21.433  0.00  0.00    +0.236 N 
ATOM     10  H   UNL     1      -4.494   3.161 -21.785  0.00  0.00    +0.203 HD
ATOM     11  C   UNL     1      -4.280   3.326 -22.794  0.00  0.00    +0.078 C 
ATOM     12  C   UNL     1      -3.684   2.627 -20.131  0.00  0.00    +0.190 C 
ATOM     13  C   UNL     1      -1.718   3.242 -25.168  0.00  0.00    -0.061 C 
ATOM     14  C   UNL     1      -0.497   2.989 -25.287  0.00  0.00    +0.040 C 
ATOM     15  C   UNL     1      -2.370   3.616 -26.234  0.00  0.00    +0.001 C 
ATOM     16  C   UNL     1      -3.660   3.898 -26.176  0.00  0.00    +0.011 C 
ATOM     17  C   UNL     1      -4.324   3.813 -25.058  0.00  0.00    +0.005 C 
ATOM     18 BR   UNL     1      -5.582   4.091 -25.013  0.00  0.00    -0.054 Br
ATOM     19  C   UNL     1      -3.726   3.454 -24.003  0.00  0.00    +0.090 C 
ATOM     20  C   UNL     1      -3.787   3.071 -22.123  0.00  0.00    +0.090 C 
ATOM     21  C   UNL     1      -0.734   2.631 -23.336  0.00  0.00    +0.163 A 
ENDROOT
BRANCH   1  23
ATOM     22  C   UNL     1       2.120   1.213 -22.145  0.00  0.00    +0.277 C 
ATOM     23  O   UNL     1       1.310   2.028 -22.689  0.00  0.00    -0.491 OA
ENDBRANCH   1  23
BRANCH  21  24
ATOM     24  O   UNL     1      -0.174   2.744 -24.476  0.00  0.00    -0.503 OA
ATOM     25  H   UNL     1       0.023   1.978 -24.980  0.00  0.00    +0.292 HD
ENDBRANCH  21  24
TORSDOF 2
ENDMDL
MODEL 6
REMARK VINA RESULT:    -9.044      2.599      5.251
REMARK INTER + INTRA:         -10.244
REMARK INTER:                 -10.103
REMARK INTRA:                  -0.141
REMARK UNBOUND:                -0.142
REMARK  Name = COc1ccc2c(c1O)[C@@]13CCN(C)[C@H](C2)[C@@H]1C(Br)=CC=C3C              ZINC000100393691
REMARK  5 active torsions:
REMARK  status: ('A' for Active; 'I' for Inactive)
REMARK    1  A    between atoms: C_1  and  O_2
REMARK    2  A    between atoms: O_2  and  C_3
REMARK    3  A    between atoms: C_8  and  O_9
REMARK    4  A    between atoms: N_13  and  C_14
REMARK    5  A    between atoms: C_22  and  C_23
REMARK                            x       y       z     vdW  Elec       q    Type
REMARK                         _______ _______ _______ _____ _____    ______ ____
ROOT
ATOM      1  C   UNL     1       0.471   2.681 -24.497  0.00  0.00    +0.162 A 
ATOM      2  C   UNL     1       0.933   2.290 -23.380  0.00  0.00    +0.049 A 
ATOM      3  C   UNL     1       0.135   2.196 -22.394  0.00  0.00    +0.008 A 
ATOM      4  C   UNL     1      -1.290   2.542 -22.582  0.00  0.00    -0.034 A 
ATOM      5  C   UNL     1      -1.600   2.863 -23.555  0.00  0.00    +0.012 A 
ATOM      6  C   UNL     1      -2.459   3.131 -23.892  0.00  0.00    +0.038 C 
ATOM      7  C   UNL     1      -0.870   2.695 -23.493  0.00  0.00    +0.067 C 
ATOM      8  C   UNL     1      -0.562   2.266 -22.111  0.00  0.00    +0.132 C 
ATOM      9  N   UNL     1      -1.426   2.234 -21.308  0.00  0.00    +0.236 N 
ATOM     10  H   UNL     1      -2.339   2.307 -20.861  0.00  0.00    +0.203 HD
ATOM     11  C   UNL     1      -2.929   2.639 -21.657  0.00  0.00    +0.078 C 
ATOM     12  C   UNL     1      -0.543   1.813 -20.408  0.00  0.00    +0.190 C 
ATOM     13  C   UNL     1      -2.840   3.513 -25.039  0.00  0.00    -0.061 C 
ATOM     14  C   UNL     1      -2.054   3.605 -26.009  0.00  0.00    +0.040 C 
ATOM     15  C   UNL     1      -4.091   3.825 -25.236  0.00  0.00    +0.001 C 
ATOM     16  C   UNL     1      -4.972   3.749 -24.253  0.00  0.00    +0.011 C 
ATOM     17  C   UNL     1      -4.625   3.362 -23.059  0.00  0.00    +0.005 C 
ATOM     18 BR   UNL     1      -5.494   3.292 -22.107  0.00  0.00    -0.054 Br
ATOM     19  C   UNL     1      -3.421   3.051 -22.828  0.00  0.00    +0.090 C 
ATOM     20  C   UNL     1      -2.082   2.446 -21.594  0.00  0.00    +0.090 C 
ATOM     21  C   UNL     1      -0.789   2.970 -24.599  0.00  0.00    +0.163 A 
ENDROOT
BRANCH   1  23
ATOM     22  C   UNL     1       1.979   2.048 -26.219  0.00  0.00    +0.277 C 
ATOM     23  O   UNL     1       1.151   2.853 -25.689  0.00  0.00    -0.491 OA
ENDBRANCH   1  23
BRANCH  21  24
ATOM     24  O   UNL     1      -1.226   3.360 -25.732  0.00  0.00    -0.503 OA
ATOM     25  H   UNL     1      -2.150   3.431 -25.879  0.00  0.00    +0.292 HD
ENDBRANCH  21  24
TORSDOF 2
ENDMDL
MODEL 7
REMARK VINA RESULT:    -8.499      1.676      2.874
REMARK INTER + INTRA:          -9.635
REMARK INTER:                  -9.489
REMARK INTRA:                  -0.146
REMARK UNBOUND:                -0.142
REMARK  Name = COc1ccc2c(c1O)[C@@]13CCN(C)[C@H](C2)[C@@H]1C(Br)=CC=C3C              ZINC000100393691
REMARK  5 active torsions:
REMARK  status: ('A' for Active; 'I' for Inactive)
REMARK    1  A    between atoms: C_1  and  O_2
REMARK    2  A    between atoms: O_2  and  C_3
REMARK    3  A    between atoms: C_8  and  O_9
REMARK    4  A    between atoms: N_13  and  C_14
REMARK    5  A    between atoms: C_22  and  C_23
REMARK                            x       y       z     vdW  Elec       q    Type
REMARK                         _______ _______ _______ _____ _____    ______ ____
ROOT
ATOM      1  C   UNL     1      -2.472   3.160 -23.889  0.00  0.00    +0.162 A 
ATOM      2  C   UNL     1      -2.066   3.687 -24.971  0.00  0.00    +0.049 A 
ATOM      3  C   UNL     1      -0.813   3.753 -25.180  0.00  0.00    +0.008 A 
ATOM      4  C   UNL     1       0.118   3.218 -24.165  0.00  0.00    -0.034 A 
ATOM      5  C   UNL     1      -0.304   2.789 -23.279  0.00  0.00    +0.012 A 
ATOM      6  C   UNL     1       0.108   2.392 -22.507  0.00  0.00    +0.038 C 
ATOM      7  C   UNL     1      -0.804   3.052 -23.775  0.00  0.00    +0.067 C 
ATOM      8  C   UNL     1      -0.106   3.617 -24.951  0.00  0.00    +0.132 C 
ATOM      9  N   UNL     1       1.072   3.599 -24.989  0.00  0.00    +0.236 N 
ATOM     10  H   UNL     1       2.050   3.446 -24.743  0.00  0.00    +0.203 HD
ATOM     11  C   UNL     1       1.954   2.984 -23.811  0.00  0.00    +0.078 C 
ATOM     12  C   UNL     1       1.020   4.193 -26.178  0.00  0.00    +0.190 C 
ATOM     13  C   UNL     1      -0.378   1.882 -21.454  0.00  0.00    -0.061 C 
ATOM     14  C   UNL     1      -1.611   1.817 -21.248  0.00  0.00    +0.040 C 
ATOM     15  C   UNL     1       0.418   1.401 -20.540  0.00  0.00    +0.001 C 
ATOM     16  C   UNL     1       1.731   1.438 -20.695  0.00  0.00    +0.011 C 
ATOM     17  C   UNL     1       2.273   1.953 -21.761  0.00  0.00    +0.005 C 
ATOM     18 BR   UNL     1       3.555   1.984 -21.903  0.00  0.00    -0.054 Br
ATOM     19  C   UNL     1       1.534   2.429 -22.671  0.00  0.00    +0.090 C 
ATOM     20  C   UNL     1       1.368   3.286 -24.380  0.00  0.00    +0.090 C 
ATOM     21  C   UNL     1      -1.606   2.709 -23.036  0.00  0.00    +0.163 A 
ENDROOT
BRANCH   1  23
ATOM     22  C   UNL     1      -4.770   3.736 -23.716  0.00  0.00    +0.277 C 
ATOM     23  O   UNL     1      -3.775   2.987 -23.460  0.00  0.00    -0.491 OA
ENDBRANCH   1  23
BRANCH  21  24
ATOM     24  O   UNL     1      -2.040   2.184 -21.958  0.00  0.00    -0.503 OA
ATOM     25  H   UNL     1      -2.919   2.350 -21.676  0.00  0.00    +0.292 HD
ENDBRANCH  21  24
TORSDOF 2
ENDMDL
MODEL 8
REMARK VINA RESULT:    -8.463      4.360      7.488
REMARK INTER + INTRA:          -9.595
REMARK INTER:                  -9.450
REMARK INTRA:                  -0.145
REMARK UNBOUND:                -0.142
REMARK  Name = COc1ccc2c(c1O)[C@@]13CCN(C)[C@H](C2)[C@@H]1C(Br)=CC=C3C              ZINC000100393691
REMARK  5 active torsions:
REMARK  status: ('A' for Active; 'I' for Inactive)
REMARK    1  A    between atoms: C_1  and  O_2
REMARK    2  A    between atoms: O_2  and  C_3
REMARK    3  A    between atoms: C_8  and  O_9
REMARK    4  A    between atoms: N_13  and  C_14
REMARK    5  A    between atoms: C_22  and  C_23
REMARK                            x       y       z     vdW  Elec       q    Type
REMARK                         _______ _______ _______ _____ _____    ______ ____
ROOT
ATOM      1  C   UNL     1       5.008   3.894 -22.749  0.00  0.00    +0.162 A 
ATOM      2  C   UNL     1       5.489   2.872 -22.167  0.00  0.00    +0.049 A 
ATOM      3  C   UNL     1       4.685   1.976 -21.756  0.00  0.00    +0.008 A 
ATOM      4  C   UNL     1       3.233   2.155 -21.967  0.00  0.00    -0.034 A 
ATOM      5  C   UNL     1       2.909   3.046 -22.466  0.00  0.00    +0.012 A 
ATOM      6  C   UNL     1       2.031   3.358 -22.702  0.00  0.00    +0.038 C 
ATOM      7  C   UNL     1       3.652   2.985 -22.374  0.00  0.00    +0.067 C 
ATOM      8  C   UNL     1       3.977   1.721 -21.677  0.00  0.00    +0.132 C 
ATOM      9  N   UNL     1       3.105   0.993 -21.360  0.00  0.00    +0.236 N 
ATOM     10  H   UNL     1       2.179   0.590 -21.220  0.00  0.00    +0.203 HD
ATOM     11  C   UNL     1       1.572   1.320 -21.656  0.00  0.00    +0.078 C 
ATOM     12  C   UNL     1       4.012   0.166 -20.848  0.00  0.00    +0.190 C 
ATOM     13  C   UNL     1       1.634   4.407 -23.291  0.00  0.00    -0.061 C 
ATOM     14  C   UNL     1       2.425   5.289 -23.696  0.00  0.00    +0.040 C 
ATOM     15  C   UNL     1       0.358   4.594 -23.492  0.00  0.00    +0.001 C 
ATOM     16  C   UNL     1      -0.530   3.702 -23.089  0.00  0.00    +0.011 C 
ATOM     17  C   UNL     1      -0.167   2.610 -22.480  0.00  0.00    +0.005 C 
ATOM     18 BR   UNL     1      -1.042   1.746 -22.091  0.00  0.00    -0.054 Br
ATOM     19  C   UNL     1       1.061   2.393 -22.267  0.00  0.00    +0.090 C 
ATOM     20  C   UNL     1       2.435   1.258 -21.554  0.00  0.00    +0.090 C 
ATOM     21  C   UNL     1       3.726   3.995 -22.905  0.00  0.00    +0.163 A 
ENDROOT
BRANCH   1  23
ATOM     22  C   UNL     1       6.824   5.417 -22.900  0.00  0.00    +0.277 C 
ATOM     23  O   UNL     1       5.690   4.978 -23.270  0.00  0.00    -0.491 OA
ENDBRANCH   1  23
BRANCH  21  24
ATOM     24  O   UNL     1       3.270   5.032 -23.491  0.00  0.00    -0.503 OA
ATOM     25  H   UNL     1       2.460   4.987 -23.962  0.00  0.00    +0.292 HD
ENDBRANCH  21  24
TORSDOF 2
ENDMDL
MODEL 9
REMARK VINA RESULT:    -8.236      1.708      3.684
REMARK INTER + INTRA:          -9.341
REMARK INTER:                  -9.199
REMARK INTRA:                  -0.142
REMARK UNBOUND:                -0.142
REMARK  Name = COc1ccc2c(c1O)[C@@]13CCN(C)[C@H](C2)[C@@H]1C(Br)=CC=C3C              ZINC000100393691
REMARK  5 active torsions:
REMARK  status: ('A' for Active; 'I' for Inactive)
REMARK    1  A    between atoms: C_1  and  O_2
REMARK    2  A    between atoms: O_2  and  C_3
REMARK    3  A    between atoms: C_8  and  O_9
REMARK    4  A    between atoms: N_13  and  C_14
REMARK    5  A    between atoms: C_22  and  C_23
REMARK                            x       y       z     vdW  Elec       q    Type
REMARK                         _______ _______ _______ _____ _____    ______ ____
ROOT
ATOM      1  C   UNL     1      -3.192   2.907 -22.509  0.00  0.00    +0.162 A 
ATOM      2  C   UNL     1      -2.870   2.384 -21.398  0.00  0.00    +0.049 A 
ATOM      3  C   UNL     1      -1.651   2.077 -21.204  0.00  0.00    +0.008 A 
ATOM      4  C   UNL     1      -0.661   2.339 -22.270  0.00  0.00    -0.034 A 
ATOM      5  C   UNL     1      -1.013   2.783 -23.178  0.00  0.00    +0.012 A 
ATOM      6  C   UNL     1      -0.552   3.034 -23.983  0.00  0.00    +0.038 C 
ATOM      7  C   UNL     1      -1.541   2.663 -22.657  0.00  0.00    +0.067 C 
ATOM      8  C   UNL     1      -0.938   2.049 -21.453  0.00  0.00    +0.132 C 
ATOM      9  N   UNL     1       0.220   1.827 -21.435  0.00  0.00    +0.236 N 
ATOM     10  H   UNL     1       1.200   1.759 -21.707  0.00  0.00    +0.203 HD
ATOM     11  C   UNL     1       1.173   2.165 -22.669  0.00  0.00    +0.078 C 
ATOM     12  C   UNL     1       0.084   1.339 -20.205  0.00  0.00    +0.190 C 
ATOM     13  C   UNL     1      -0.956   3.559 -25.063  0.00  0.00    -0.061 C 
ATOM     14  C   UNL     1      -2.156   3.861 -25.254  0.00  0.00    +0.040 C 
ATOM     15  C   UNL     1      -0.106   3.802 -26.023  0.00  0.00    +0.001 C 
ATOM     16  C   UNL     1       1.175   3.507 -25.885  0.00  0.00    +0.011 C 
ATOM     17  C   UNL     1       1.633   2.967 -24.793  0.00  0.00    +0.005 C 
ATOM     18 BR   UNL     1       2.886   2.683 -24.670  0.00  0.00    -0.054 Br
ATOM     19  C   UNL     1       0.840   2.716 -23.840  0.00  0.00    +0.090 C 
ATOM     20  C   UNL     1       0.555   2.030 -22.070  0.00  0.00    +0.090 C 
ATOM     21  C   UNL     1      -2.278   3.112 -23.406  0.00  0.00    +0.163 A 
ENDROOT
BRANCH   1  23
ATOM     22  C   UNL     1      -5.512   3.338 -22.239  0.00  0.00    +0.277 C 
ATOM     23  O   UNL     1      -4.444   3.315 -22.930  0.00  0.00    -0.491 OA
ENDBRANCH   1  23
BRANCH  21  24
ATOM     24  O   UNL     1      -2.629   3.639 -24.513  0.00  0.00    -0.503 OA
ATOM     25  H   UNL     1      -2.307   3.290 -25.322  0.00  0.00    +0.292 HD
ENDBRANCH  21  24
TORSDOF 2
ENDMDL
