MODEL 1
REMARK VINA RESULT:    -6.605      0.000      0.000
REMARK INTER + INTRA:          -9.161
REMARK INTER:                  -9.061
REMARK INTRA:                  -0.100
REMARK UNBOUND:                -0.239
REMARK  Name = ZINC000001628282
REMARK  9 active torsions:
REMARK  status: ('A' for Active; 'I' for Inactive)
REMARK    1  A    between atoms: C_1  and  O_2
REMARK    2  A    between atoms: O_2  and  C_3
REMARK    3  A    between atoms: C_5  and  C_6
REMARK    4  A    between atoms: C_6  and  C_7
REMARK    5  A    between atoms: C_7  and  C_9
REMARK    6  A    between atoms: C_13  and  O_14
REMARK    7  A    between atoms: O_14  and  C_15
REMARK    8  A    between atoms: C_16  and  O_17
REMARK    9  A    between atoms: O_17  and  C_18
REMARK                            x       y       z     vdW  Elec       q    Type
REMARK                         _______ _______ _______ _____ _____    ______ ____
ROOT
ATOM      1  C   UNL     1      -0.151   2.856 -24.106  0.00  0.00    +0.165 A 
ATOM      2  C   UNL     1       0.838   2.430 -23.377  0.00  0.00    +0.053 A 
ATOM      3  C   UNL     1       0.612   1.950 -22.191  0.00  0.00    -0.033 A 
ATOM      4  C   UNL     1      -0.603   1.894 -21.733  0.00  0.00    +0.053 A 
ATOM      5  C   UNL     1      -1.592   2.319 -22.461  0.00  0.00    +0.165 A 
ATOM      6  C   UNL     1      -1.366   2.799 -23.647  0.00  0.00    +0.204 A 
ENDROOT
BRANCH   5   7
ATOM      7  O   UNL     1      -2.807   2.263 -22.003  0.00  0.00    -0.491 OA
ATOM      8  C   UNL     1      -3.138   2.954 -20.951  0.00  0.00    +0.277 C 
ENDBRANCH   5   7
BRANCH   6   9
ATOM      9  O   UNL     1      -2.356   3.225 -24.376  0.00  0.00    -0.488 OA
ATOM     10  C   UNL     1      -2.690   4.481 -24.348  0.00  0.00    +0.277 C 
ENDBRANCH   6   9
BRANCH   1  12
ATOM     11  C   UNL     1       1.129   4.065 -25.508  0.00  0.00    +0.277 C 
ATOM     12  O   UNL     1       0.075   3.336 -25.293  0.00  0.00    -0.491 OA
ENDBRANCH   1  12
BRANCH   3  13
ATOM     13  C   UNL     1       1.601   1.525 -21.463  0.00  0.00    +0.116 C 
BRANCH  13  14
ATOM     14  C   UNL     1       2.606   0.916 -22.021  0.00  0.00    +0.182 C 
ATOM     15  O   UNL     1       2.409  -0.180 -22.692  0.00  0.00    -0.290 OA
BRANCH  14  16
ATOM     16  C   UNL     1       3.806   1.402 -21.907  0.00  0.00    +0.107 C 
ATOM     17  O   UNL     1       4.783   0.888 -22.593  0.00  0.00    -0.542 OA
ATOM     18  O   UNL     1       4.028   2.403 -21.108  0.00  0.00    -0.542 OA
ENDBRANCH  14  16
ENDBRANCH  13  14
ENDBRANCH   3  13
TORSDOF 6
ENDMDL
MODEL 2
REMARK VINA RESULT:    -6.561      0.168      2.906
REMARK INTER + INTRA:          -9.101
REMARK INTER:                  -9.024
REMARK INTRA:                  -0.077
REMARK UNBOUND:                -0.239
REMARK  Name = ZINC000001628282
REMARK  9 active torsions:
REMARK  status: ('A' for Active; 'I' for Inactive)
REMARK    1  A    between atoms: C_1  and  O_2
REMARK    2  A    between atoms: O_2  and  C_3
REMARK    3  A    between atoms: C_5  and  C_6
REMARK    4  A    between atoms: C_6  and  C_7
REMARK    5  A    between atoms: C_7  and  C_9
REMARK    6  A    between atoms: C_13  and  O_14
REMARK    7  A    between atoms: O_14  and  C_15
REMARK    8  A    between atoms: C_16  and  O_17
REMARK    9  A    between atoms: O_17  and  C_18
REMARK                            x       y       z     vdW  Elec       q    Type
REMARK                         _______ _______ _______ _____ _____    ______ ____
ROOT
ATOM      1  C   UNL     1      -1.696   2.313 -22.468  0.00  0.00    +0.165 A 
ATOM      2  C   UNL     1      -0.714   1.868 -21.741  0.00  0.00    +0.053 A 
ATOM      3  C   UNL     1       0.505   1.933 -22.185  0.00  0.00    -0.033 A 
ATOM      4  C   UNL     1       0.744   2.444 -23.357  0.00  0.00    +0.053 A 
ATOM      5  C   UNL     1      -0.237   2.889 -24.084  0.00  0.00    +0.165 A 
ATOM      6  C   UNL     1      -1.457   2.823 -23.639  0.00  0.00    +0.204 A 
ENDROOT
BRANCH   5   7
ATOM      7  O   UNL     1       0.002   3.399 -25.255  0.00  0.00    -0.491 OA
ATOM      8  C   UNL     1       1.142   3.978 -25.492  0.00  0.00    +0.277 C 
ENDBRANCH   5   7
BRANCH   6   9
ATOM      9  O   UNL     1      -2.439   3.269 -24.367  0.00  0.00    -0.488 OA
ATOM     10  C   UNL     1      -2.747   4.531 -24.339  0.00  0.00    +0.277 C 
ENDBRANCH   6   9
BRANCH   1  12
ATOM     11  C   UNL     1      -3.262   2.930 -20.973  0.00  0.00    +0.277 C 
ATOM     12  O   UNL     1      -2.916   2.248 -22.024  0.00  0.00    -0.491 OA
ENDBRANCH   1  12
BRANCH   3  13
ATOM     13  C   UNL     1       1.486   1.488 -21.458  0.00  0.00    +0.116 C 
BRANCH  13  14
ATOM     14  C   UNL     1       2.504   0.908 -22.022  0.00  0.00    +0.182 C 
ATOM     15  O   UNL     1       2.327  -0.169 -22.730  0.00  0.00    -0.290 OA
BRANCH  14  16
ATOM     16  C   UNL     1       3.697   1.403 -21.880  0.00  0.00    +0.107 C 
ATOM     17  O   UNL     1       3.850   2.602 -21.400  0.00  0.00    -0.542 OA
ATOM     18  O   UNL     1       4.736   0.700 -22.218  0.00  0.00    -0.542 OA
ENDBRANCH  14  16
ENDBRANCH  13  14
ENDBRANCH   3  13
TORSDOF 6
ENDMDL
MODEL 3
REMARK VINA RESULT:    -6.527      2.464      3.447
REMARK INTER + INTRA:          -9.055
REMARK INTER:                  -8.884
REMARK INTRA:                  -0.171
REMARK UNBOUND:                -0.239
REMARK  Name = ZINC000001628282
REMARK  9 active torsions:
REMARK  status: ('A' for Active; 'I' for Inactive)
REMARK    1  A    between atoms: C_1  and  O_2
REMARK    2  A    between atoms: O_2  and  C_3
REMARK    3  A    between atoms: C_5  and  C_6
REMARK    4  A    between atoms: C_6  and  C_7
REMARK    5  A    between atoms: C_7  and  C_9
REMARK    6  A    between atoms: C_13  and  O_14
REMARK    7  A    between atoms: O_14  and  C_15
REMARK    8  A    between atoms: C_16  and  O_17
REMARK    9  A    between atoms: O_17  and  C_18
REMARK                            x       y       z     vdW  Elec       q    Type
REMARK                         _______ _______ _______ _____ _____    ______ ____
ROOT
ATOM      1  C   UNL     1      -2.915   3.876 -24.286  0.00  0.00    +0.165 A 
ATOM      2  C   UNL     1      -1.724   4.376 -24.433  0.00  0.00    +0.053 A 
ATOM      3  C   UNL     1      -0.896   4.390 -23.430  0.00  0.00    -0.033 A 
ATOM      4  C   UNL     1      -1.259   3.904 -22.281  0.00  0.00    +0.053 A 
ATOM      5  C   UNL     1      -2.449   3.403 -22.133  0.00  0.00    +0.165 A 
ATOM      6  C   UNL     1      -3.277   3.389 -23.136  0.00  0.00    +0.204 A 
ENDROOT
BRANCH   5   7
ATOM      7  O   UNL     1      -2.812   2.917 -20.984  0.00  0.00    -0.491 OA
ATOM      8  C   UNL     1      -3.038   3.715 -19.982  0.00  0.00    +0.277 C 
ENDBRANCH   5   7
BRANCH   6   9
ATOM      9  O   UNL     1      -4.468   2.889 -22.989  0.00  0.00    -0.488 OA
ATOM     10  C   UNL     1      -5.481   3.675 -22.772  0.00  0.00    +0.277 C 
ENDBRANCH   6   9
BRANCH   1  12
ATOM     11  C   UNL     1      -3.358   3.401 -26.441  0.00  0.00    +0.277 C 
ATOM     12  O   UNL     1      -3.742   3.862 -25.288  0.00  0.00    -0.491 OA
ENDBRANCH   1  12
BRANCH   3  13
ATOM     13  C   UNL     1       0.294   4.891 -23.578  0.00  0.00    +0.116 C 
BRANCH  13  14
ATOM     14  C   UNL     1       1.322   4.103 -23.693  0.00  0.00    +0.182 C 
ATOM     15  O   UNL     1       2.281   4.153 -22.816  0.00  0.00    -0.290 OA
BRANCH  14  16
ATOM     16  C   UNL     1       1.391   3.265 -24.685  0.00  0.00    +0.107 C 
ATOM     17  O   UNL     1       1.456   3.707 -25.906  0.00  0.00    -0.542 OA
ATOM     18  O   UNL     1       1.396   1.986 -24.455  0.00  0.00    -0.542 OA
ENDBRANCH  14  16
ENDBRANCH  13  14
ENDBRANCH   3  13
TORSDOF 6
ENDMDL
MODEL 4
REMARK VINA RESULT:    -6.490      1.759      5.545
REMARK INTER + INTRA:          -9.005
REMARK INTER:                  -8.956
REMARK INTRA:                  -0.050
REMARK UNBOUND:                -0.239
REMARK  Name = ZINC000001628282
REMARK  9 active torsions:
REMARK  status: ('A' for Active; 'I' for Inactive)
REMARK    1  A    between atoms: C_1  and  O_2
REMARK    2  A    between atoms: O_2  and  C_3
REMARK    3  A    between atoms: C_5  and  C_6
REMARK    4  A    between atoms: C_6  and  C_7
REMARK    5  A    between atoms: C_7  and  C_9
REMARK    6  A    between atoms: C_13  and  O_14
REMARK    7  A    between atoms: O_14  and  C_15
REMARK    8  A    between atoms: C_16  and  O_17
REMARK    9  A    between atoms: O_17  and  C_18
REMARK                            x       y       z     vdW  Elec       q    Type
REMARK                         _______ _______ _______ _____ _____    ______ ____
ROOT
ATOM      1  C   UNL     1      -1.245   3.037 -24.346  0.00  0.00    +0.165 A 
ATOM      2  C   UNL     1      -2.283   2.858 -23.584  0.00  0.00    +0.053 A 
ATOM      3  C   UNL     1      -2.125   2.494 -22.346  0.00  0.00    -0.033 A 
ATOM      4  C   UNL     1      -0.930   2.309 -21.870  0.00  0.00    +0.053 A 
ATOM      5  C   UNL     1       0.108   2.487 -22.632  0.00  0.00    +0.165 A 
ATOM      6  C   UNL     1      -0.049   2.852 -23.870  0.00  0.00    +0.204 A 
ENDROOT
BRANCH   5   7
ATOM      7  O   UNL     1       1.304   2.302 -22.156  0.00  0.00    -0.491 OA
ATOM      8  C   UNL     1       1.785   1.098 -22.060  0.00  0.00    +0.277 C 
ENDBRANCH   5   7
BRANCH   6   9
ATOM      9  O   UNL     1       0.989   3.031 -24.632  0.00  0.00    -0.488 OA
ATOM     10  C   UNL     1       1.548   4.202 -24.704  0.00  0.00    +0.277 C 
ENDBRANCH   6   9
BRANCH   1  12
ATOM     11  C   UNL     1      -2.592   3.427 -26.107  0.00  0.00    +0.277 C 
ATOM     12  O   UNL     1      -1.402   3.401 -25.584  0.00  0.00    -0.491 OA
ENDBRANCH   1  12
BRANCH   3  13
ATOM     13  C   UNL     1      -3.163   2.315 -21.584  0.00  0.00    +0.116 C 
BRANCH  13  14
ATOM     14  C   UNL     1      -4.025   3.275 -21.423  0.00  0.00    +0.182 C 
ATOM     15  O   UNL     1      -3.723   4.302 -20.684  0.00  0.00    -0.290 OA
BRANCH  14  16
ATOM     16  C   UNL     1      -5.188   3.209 -22.000  0.00  0.00    +0.107 C 
ATOM     17  O   UNL     1      -6.138   2.500 -21.467  0.00  0.00    -0.542 OA
ATOM     18  O   UNL     1      -5.400   3.851 -23.109  0.00  0.00    -0.542 OA
ENDBRANCH  14  16
ENDBRANCH  13  14
ENDBRANCH   3  13
TORSDOF 6
ENDMDL
MODEL 5
REMARK VINA RESULT:    -6.464      2.104      3.861
REMARK INTER + INTRA:          -8.970
REMARK INTER:                  -8.761
REMARK INTRA:                  -0.209
REMARK UNBOUND:                -0.239
REMARK  Name = ZINC000001628282
REMARK  9 active torsions:
REMARK  status: ('A' for Active; 'I' for Inactive)
REMARK    1  A    between atoms: C_1  and  O_2
REMARK    2  A    between atoms: O_2  and  C_3
REMARK    3  A    between atoms: C_5  and  C_6
REMARK    4  A    between atoms: C_6  and  C_7
REMARK    5  A    between atoms: C_7  and  C_9
REMARK    6  A    between atoms: C_13  and  O_14
REMARK    7  A    between atoms: O_14  and  C_15
REMARK    8  A    between atoms: C_16  and  O_17
REMARK    9  A    between atoms: O_17  and  C_18
REMARK                            x       y       z     vdW  Elec       q    Type
REMARK                         _______ _______ _______ _____ _____    ______ ____
ROOT
ATOM      1  C   UNL     1      -2.632   3.714 -22.052  0.00  0.00    +0.165 A 
ATOM      2  C   UNL     1      -1.414   3.259 -22.033  0.00  0.00    +0.053 A 
ATOM      3  C   UNL     1      -0.921   2.677 -23.086  0.00  0.00    -0.033 A 
ATOM      4  C   UNL     1      -1.645   2.550 -24.158  0.00  0.00    +0.053 A 
ATOM      5  C   UNL     1      -2.863   3.005 -24.177  0.00  0.00    +0.165 A 
ATOM      6  C   UNL     1      -3.356   3.587 -23.125  0.00  0.00    +0.204 A 
ENDROOT
BRANCH   5   7
ATOM      7  O   UNL     1      -3.587   2.879 -25.250  0.00  0.00    -0.491 OA
ATOM      8  C   UNL     1      -3.259   3.517 -26.334  0.00  0.00    +0.277 C 
ENDBRANCH   5   7
BRANCH   6   9
ATOM      9  O   UNL     1      -4.574   4.043 -23.144  0.00  0.00    -0.488 OA
ATOM     10  C   UNL     1      -5.532   3.357 -22.595  0.00  0.00    +0.277 C 
ENDBRANCH   6   9
BRANCH   1  12
ATOM     11  C   UNL     1      -3.127   3.678 -19.856  0.00  0.00    +0.277 C 
ATOM     12  O   UNL     1      -3.125   4.296 -21.000  0.00  0.00    -0.491 OA
ENDBRANCH   1  12
BRANCH   3  13
ATOM     13  C   UNL     1       0.296   2.222 -23.066  0.00  0.00    +0.116 C 
BRANCH  13  14
ATOM     14  C   UNL     1       1.237   2.851 -23.705  0.00  0.00    +0.182 C 
ATOM     15  O   UNL     1       1.694   3.978 -23.243  0.00  0.00    -0.290 OA
BRANCH  14  16
ATOM     16  C   UNL     1       1.720   2.356 -24.805  0.00  0.00    +0.107 C 
ATOM     17  O   UNL     1       1.589   3.005 -25.924  0.00  0.00    -0.542 OA
ATOM     18  O   UNL     1       2.336   1.211 -24.786  0.00  0.00    -0.542 OA
ENDBRANCH  14  16
ENDBRANCH  13  14
ENDBRANCH   3  13
TORSDOF 6
ENDMDL
MODEL 6
REMARK VINA RESULT:    -6.195      1.641      5.470
REMARK INTER + INTRA:          -8.606
REMARK INTER:                  -8.666
REMARK INTRA:                   0.060
REMARK UNBOUND:                -0.239
REMARK  Name = ZINC000001628282
REMARK  9 active torsions:
REMARK  status: ('A' for Active; 'I' for Inactive)
REMARK    1  A    between atoms: C_1  and  O_2
REMARK    2  A    between atoms: O_2  and  C_3
REMARK    3  A    between atoms: C_5  and  C_6
REMARK    4  A    between atoms: C_6  and  C_7
REMARK    5  A    between atoms: C_7  and  C_9
REMARK    6  A    between atoms: C_13  and  O_14
REMARK    7  A    between atoms: O_14  and  C_15
REMARK    8  A    between atoms: C_16  and  O_17
REMARK    9  A    between atoms: O_17  and  C_18
REMARK                            x       y       z     vdW  Elec       q    Type
REMARK                         _______ _______ _______ _____ _____    ______ ____
ROOT
ATOM      1  C   UNL     1       0.163   2.019 -23.039  0.00  0.00    +0.165 A 
ATOM      2  C   UNL     1      -0.747   1.894 -22.118  0.00  0.00    +0.053 A 
ATOM      3  C   UNL     1      -1.928   2.406 -22.298  0.00  0.00    -0.033 A 
ATOM      4  C   UNL     1      -2.199   3.043 -23.398  0.00  0.00    +0.053 A 
ATOM      5  C   UNL     1      -1.290   3.168 -24.318  0.00  0.00    +0.165 A 
ATOM      6  C   UNL     1      -0.109   2.656 -24.138  0.00  0.00    +0.204 A 
ENDROOT
BRANCH   5   7
ATOM      7  O   UNL     1      -1.562   3.805 -25.419  0.00  0.00    -0.491 OA
ATOM      8  C   UNL     1      -2.527   3.392 -26.187  0.00  0.00    +0.277 C 
ENDBRANCH   5   7
BRANCH   6   9
ATOM      9  O   UNL     1       0.801   2.780 -25.059  0.00  0.00    -0.488 OA
ATOM     10  C   UNL     1       1.515   3.864 -25.125  0.00  0.00    +0.277 C 
ENDBRANCH   6   9
BRANCH   1  12
ATOM     11  C   UNL     1       2.047   1.843 -21.818  0.00  0.00    +0.277 C 
ATOM     12  O   UNL     1       1.344   1.506 -22.859  0.00  0.00    -0.491 OA
ENDBRANCH   1  12
BRANCH   3  13
ATOM     13  C   UNL     1      -2.837   2.282 -21.378  0.00  0.00    +0.116 C 
BRANCH  13  14
ATOM     14  C   UNL     1      -3.740   3.205 -21.225  0.00  0.00    +0.182 C 
ATOM     15  O   UNL     1      -3.456   4.288 -20.563  0.00  0.00    -0.290 OA
BRANCH  14  16
ATOM     16  C   UNL     1      -4.925   3.046 -21.734  0.00  0.00    +0.107 C 
ATOM     17  O   UNL     1      -5.715   2.126 -21.267  0.00  0.00    -0.542 OA
ATOM     18  O   UNL     1      -5.320   3.809 -22.710  0.00  0.00    -0.542 OA
ENDBRANCH  14  16
ENDBRANCH  13  14
ENDBRANCH   3  13
TORSDOF 6
ENDMDL
MODEL 7
REMARK VINA RESULT:    -6.167      1.917      3.544
REMARK INTER + INTRA:          -8.569
REMARK INTER:                  -8.441
REMARK INTRA:                  -0.128
REMARK UNBOUND:                -0.239
REMARK  Name = ZINC000001628282
REMARK  9 active torsions:
REMARK  status: ('A' for Active; 'I' for Inactive)
REMARK    1  A    between atoms: C_1  and  O_2
REMARK    2  A    between atoms: O_2  and  C_3
REMARK    3  A    between atoms: C_5  and  C_6
REMARK    4  A    between atoms: C_6  and  C_7
REMARK    5  A    between atoms: C_7  and  C_9
REMARK    6  A    between atoms: C_13  and  O_14
REMARK    7  A    between atoms: O_14  and  C_15
REMARK    8  A    between atoms: C_16  and  O_17
REMARK    9  A    between atoms: O_17  and  C_18
REMARK                            x       y       z     vdW  Elec       q    Type
REMARK                         _______ _______ _______ _____ _____    ______ ____
ROOT
ATOM      1  C   UNL     1      -1.286   2.724 -22.393  0.00  0.00    +0.165 A 
ATOM      2  C   UNL     1      -0.202   3.173 -22.956  0.00  0.00    +0.053 A 
ATOM      3  C   UNL     1      -0.283   3.993 -23.961  0.00  0.00    -0.033 A 
ATOM      4  C   UNL     1      -1.447   4.365 -24.405  0.00  0.00    +0.053 A 
ATOM      5  C   UNL     1      -2.530   3.917 -23.843  0.00  0.00    +0.165 A 
ATOM      6  C   UNL     1      -2.449   3.097 -22.838  0.00  0.00    +0.204 A 
ENDROOT
BRANCH   5   7
ATOM      7  O   UNL     1      -3.694   4.289 -24.286  0.00  0.00    -0.491 OA
ATOM      8  C   UNL     1      -3.993   4.129 -25.542  0.00  0.00    +0.277 C 
ENDBRANCH   5   7
BRANCH   6   9
ATOM      9  O   UNL     1      -3.533   2.649 -22.275  0.00  0.00    -0.488 OA
ATOM     10  C   UNL     1      -4.075   3.306 -21.293  0.00  0.00    +0.277 C 
ENDBRANCH   6   9
BRANCH   1  12
ATOM     11  C   UNL     1      -0.050   1.431 -21.027  0.00  0.00    +0.277 C 
ATOM     12  O   UNL     1      -1.205   1.905 -21.388  0.00  0.00    -0.491 OA
ENDBRANCH   1  12
BRANCH   3  13
ATOM     13  C   UNL     1       0.800   4.441 -24.523  0.00  0.00    +0.116 C 
BRANCH  13  14
ATOM     14  C   UNL     1       1.752   3.618 -24.849  0.00  0.00    +0.182 C 
ATOM     15  O   UNL     1       1.627   2.866 -25.904  0.00  0.00    -0.290 OA
BRANCH  14  16
ATOM     16  C   UNL     1       2.827   3.545 -24.124  0.00  0.00    +0.107 C 
ATOM     17  O   UNL     1       3.147   4.529 -23.336  0.00  0.00    -0.542 OA
ATOM     18  O   UNL     1       3.583   2.490 -24.185  0.00  0.00    -0.542 OA
ENDBRANCH  14  16
ENDBRANCH  13  14
ENDBRANCH   3  13
TORSDOF 6
ENDMDL
MODEL 8
REMARK VINA RESULT:    -6.040      1.498      5.536
REMARK INTER + INTRA:          -8.397
REMARK INTER:                  -8.271
REMARK INTRA:                  -0.126
REMARK UNBOUND:                -0.239
REMARK  Name = ZINC000001628282
REMARK  9 active torsions:
REMARK  status: ('A' for Active; 'I' for Inactive)
REMARK    1  A    between atoms: C_1  and  O_2
REMARK    2  A    between atoms: O_2  and  C_3
REMARK    3  A    between atoms: C_5  and  C_6
REMARK    4  A    between atoms: C_6  and  C_7
REMARK    5  A    between atoms: C_7  and  C_9
REMARK    6  A    between atoms: C_13  and  O_14
REMARK    7  A    between atoms: O_14  and  C_15
REMARK    8  A    between atoms: C_16  and  O_17
REMARK    9  A    between atoms: O_17  and  C_18
REMARK                            x       y       z     vdW  Elec       q    Type
REMARK                         _______ _______ _______ _____ _____    ______ ____
ROOT
ATOM      1  C   UNL     1       1.339   1.438 -22.098  0.00  0.00    +0.165 A 
ATOM      2  C   UNL     1       0.133   1.540 -21.622  0.00  0.00    +0.053 A 
ATOM      3  C   UNL     1      -0.800   2.102 -22.331  0.00  0.00    -0.033 A 
ATOM      4  C   UNL     1      -0.528   2.562 -23.516  0.00  0.00    +0.053 A 
ATOM      5  C   UNL     1       0.677   2.461 -23.992  0.00  0.00    +0.165 A 
ATOM      6  C   UNL     1       1.610   1.899 -23.283  0.00  0.00    +0.204 A 
ENDROOT
BRANCH   5   7
ATOM      7  O   UNL     1       0.949   2.922 -25.177  0.00  0.00    -0.491 OA
ATOM      8  C   UNL     1       0.890   4.201 -25.406  0.00  0.00    +0.277 C 
ENDBRANCH   5   7
BRANCH   6   9
ATOM      9  O   UNL     1       2.816   1.798 -23.759  0.00  0.00    -0.488 OA
ATOM     10  C   UNL     1       3.679   2.747 -23.549  0.00  0.00    +0.277 C 
ENDBRANCH   6   9
BRANCH   1  12
ATOM     11  C   UNL     1       2.658   1.420 -20.274  0.00  0.00    +0.277 C 
ATOM     12  O   UNL     1       2.273   0.876 -21.389  0.00  0.00    -0.491 OA
ENDBRANCH   1  12
BRANCH   3  13
ATOM     13  C   UNL     1      -2.005   2.203 -21.855  0.00  0.00    +0.116 C 
BRANCH  13  14
ATOM     14  C   UNL     1      -2.669   3.312 -21.994  0.00  0.00    +0.182 C 
ATOM     15  O   UNL     1      -2.174   4.426 -21.540  0.00  0.00    -0.290 OA
BRANCH  14  16
ATOM     16  C   UNL     1      -3.826   3.308 -22.585  0.00  0.00    +0.107 C 
ATOM     17  O   UNL     1      -3.896   3.425 -23.878  0.00  0.00    -0.542 OA
ATOM     18  O   UNL     1      -4.914   3.188 -21.884  0.00  0.00    -0.542 OA
ENDBRANCH  14  16
ENDBRANCH  13  14
ENDBRANCH   3  13
TORSDOF 6
ENDMDL
MODEL 9
REMARK VINA RESULT:    -5.929      2.620      4.524
REMARK INTER + INTRA:          -8.248
REMARK INTER:                  -8.009
REMARK INTRA:                  -0.239
REMARK UNBOUND:                -0.239
REMARK  Name = ZINC000001628282
REMARK  9 active torsions:
REMARK  status: ('A' for Active; 'I' for Inactive)
REMARK    1  A    between atoms: C_1  and  O_2
REMARK    2  A    between atoms: O_2  and  C_3
REMARK    3  A    between atoms: C_5  and  C_6
REMARK    4  A    between atoms: C_6  and  C_7
REMARK    5  A    between atoms: C_7  and  C_9
REMARK    6  A    between atoms: C_13  and  O_14
REMARK    7  A    between atoms: O_14  and  C_15
REMARK    8  A    between atoms: C_16  and  O_17
REMARK    9  A    between atoms: O_17  and  C_18
REMARK                            x       y       z     vdW  Elec       q    Type
REMARK                         _______ _______ _______ _____ _____    ______ ____
ROOT
ATOM      1  C   UNL     1       2.588   1.663 -22.019  0.00  0.00    +0.165 A 
ATOM      2  C   UNL     1       3.610   2.413 -22.312  0.00  0.00    +0.053 A 
ATOM      3  C   UNL     1       3.512   3.309 -23.249  0.00  0.00    -0.033 A 
ATOM      4  C   UNL     1       2.393   3.455 -23.894  0.00  0.00    +0.053 A 
ATOM      5  C   UNL     1       1.371   2.706 -23.602  0.00  0.00    +0.165 A 
ATOM      6  C   UNL     1       1.470   1.811 -22.665  0.00  0.00    +0.204 A 
ENDROOT
BRANCH   5   7
ATOM      7  O   UNL     1       0.252   2.853 -24.246  0.00  0.00    -0.491 OA
ATOM      8  C   UNL     1      -0.380   3.988 -24.201  0.00  0.00    +0.277 C 
ENDBRANCH   5   7
BRANCH   6   9
ATOM      9  O   UNL     1       0.448   1.061 -22.372  0.00  0.00    -0.488 OA
ATOM     10  C   UNL     1      -0.382   1.428 -21.442  0.00  0.00    +0.277 C 
ENDBRANCH   6   9
BRANCH   1  12
ATOM     11  C   UNL     1       3.858   0.375 -20.679  0.00  0.00    +0.277 C 
ATOM     12  O   UNL     1       2.687   0.768 -21.082  0.00  0.00    -0.491 OA
ENDBRANCH   1  12
BRANCH   3  13
ATOM     13  C   UNL     1       4.533   4.058 -23.541  0.00  0.00    +0.116 C 
BRANCH  13  14
ATOM     14  C   UNL     1       4.829   5.077 -22.790  0.00  0.00    +0.182 C 
ATOM     15  O   UNL     1       3.894   5.900 -22.415  0.00  0.00    -0.290 OA
BRANCH  14  16
ATOM     16  C   UNL     1       6.057   5.274 -22.414  0.00  0.00    +0.107 C 
ATOM     17  O   UNL     1       6.314   5.622 -21.188  0.00  0.00    -0.542 OA
ATOM     18  O   UNL     1       7.029   5.122 -23.264  0.00  0.00    -0.542 OA
ENDBRANCH  14  16
ENDBRANCH  13  14
ENDBRANCH   3  13
TORSDOF 6
ENDMDL
