MODEL 1
REMARK VINA RESULT:   -10.003      0.000      0.000
REMARK INTER + INTRA:          -9.038
REMARK INTER:                 -10.874
REMARK INTRA:                   1.836
REMARK UNBOUND:                 1.842
REMARK  Name = ZINC000013423769
REMARK  6 active torsions:
REMARK  status: ('A' for Active; 'I' for Inactive)
REMARK    1  A    between atoms: C_1  and  C_2
REMARK    2  A    between atoms: C_5  and  O_6
REMARK    3  A    between atoms: C_7  and  C_8
REMARK    4  A    between atoms: C_8  and  O_9
REMARK    5  A    between atoms: C_15  and  C_16
REMARK    6  A    between atoms: C_15  and  C_17
REMARK                            x       y       z     vdW  Elec       q    Type
REMARK                         _______ _______ _______ _____ _____    ______ ____
ROOT
ATOM      1  C   UNL     1      -3.734   2.505 -20.986  0.00  0.00    +0.008 C 
ATOM      2  C   UNL     1      -4.005   3.007 -22.155  0.00  0.00    -0.010 C 
ATOM      3  C   UNL     1      -5.222   3.361 -22.444  0.00  0.00    +0.006 C 
ATOM      4  C   UNL     1      -5.492   3.863 -23.612  0.00  0.00    +0.032 C 
ATOM      5  C   UNL     1      -4.545   4.013 -24.491  0.00  0.00    +0.123 C 
ATOM      6  C   UNL     1      -3.328   3.660 -24.201  0.00  0.00    +0.023 C 
ATOM      7  C   UNL     1      -2.381   3.810 -25.080  0.00  0.00    +0.012 C 
ATOM      8  C   UNL     1      -1.164   3.456 -24.790  0.00  0.00    +0.005 C 
ATOM      9  C   UNL     1      -0.894   2.954 -23.622  0.00  0.00    -0.001 C 
ATOM     10  C   UNL     1      -1.841   2.804 -22.743  0.00  0.00    +0.003 C 
ATOM     11  C   UNL     1      -0.624   2.451 -22.454  0.00  0.00    -0.028 C 
ATOM     12  C   UNL     1       0.654   2.248 -22.586  0.00  0.00    +0.011 C 
ATOM     13  C   UNL     1      -0.796   2.019 -21.240  0.00  0.00    +0.011 C 
ATOM     14  C   UNL     1      -3.058   3.157 -23.033  0.00  0.00    +0.007 C 
ENDROOT
BRANCH   5  15
ATOM     15  O   UNL     1      -4.816   4.516 -25.659  0.00  0.00    -0.391 OA
ATOM     16  H   UNL     1      -5.468   5.227 -25.561  0.00  0.00    +0.210 HD
ENDBRANCH   5  15
BRANCH   6  17
ATOM     17  C   UNL     1      -3.599   4.163 -25.369  0.00  0.00    +0.165 C 
BRANCH  17  18
ATOM     18  O   UNL     1      -4.093   5.362 -25.462  0.00  0.00    -0.394 OA
ATOM     19  H   UNL     1      -3.741   5.796 -26.256  0.00  0.00    +0.209 HD
ENDBRANCH  17  18
ENDBRANCH   6  17
TORSDOF 3
ENDMDL
MODEL 2
REMARK VINA RESULT:    -9.370      1.385      2.812
REMARK INTER + INTRA:          -8.349
REMARK INTER:                 -10.637
REMARK INTRA:                   2.288
REMARK UNBOUND:                 1.842
REMARK  Name = ZINC000013423769
REMARK  6 active torsions:
REMARK  status: ('A' for Active; 'I' for Inactive)
REMARK    1  A    between atoms: C_1  and  C_2
REMARK    2  A    between atoms: C_5  and  O_6
REMARK    3  A    between atoms: C_7  and  C_8
REMARK    4  A    between atoms: C_8  and  O_9
REMARK    5  A    between atoms: C_15  and  C_16
REMARK    6  A    between atoms: C_15  and  C_17
REMARK                            x       y       z     vdW  Elec       q    Type
REMARK                         _______ _______ _______ _____ _____    ______ ____
ROOT
ATOM      1  C   UNL     1      -1.659   3.589 -25.403  0.00  0.00    +0.008 C 
ATOM      2  C   UNL     1      -2.752   3.638 -24.701  0.00  0.00    -0.010 C 
ATOM      3  C   UNL     1      -3.842   4.111 -25.229  0.00  0.00    +0.006 C 
ATOM      4  C   UNL     1      -4.935   4.160 -24.527  0.00  0.00    +0.032 C 
ATOM      5  C   UNL     1      -4.939   3.735 -23.298  0.00  0.00    +0.123 C 
ATOM      6  C   UNL     1      -3.849   3.262 -22.771  0.00  0.00    +0.023 C 
ATOM      7  C   UNL     1      -3.853   2.837 -21.542  0.00  0.00    +0.012 C 
ATOM      8  C   UNL     1      -2.763   2.363 -21.015  0.00  0.00    +0.005 C 
ATOM      9  C   UNL     1      -1.670   2.314 -21.717  0.00  0.00    -0.001 C 
ATOM     10  C   UNL     1      -1.666   2.739 -22.946  0.00  0.00    +0.003 C 
ATOM     11  C   UNL     1      -0.576   2.265 -22.418  0.00  0.00    -0.028 C 
ATOM     12  C   UNL     1       0.231   1.746 -21.542  0.00  0.00    +0.011 C 
ATOM     13  C   UNL     1       0.237   2.397 -23.424  0.00  0.00    +0.011 C 
ATOM     14  C   UNL     1      -2.756   3.213 -23.473  0.00  0.00    +0.007 C 
ENDROOT
BRANCH   5  15
ATOM     15  O   UNL     1      -6.033   3.784 -22.597  0.00  0.00    -0.391 OA
ATOM     16  H   UNL     1      -6.584   4.517 -22.910  0.00  0.00    +0.210 HD
ENDBRANCH   5  15
BRANCH   6  17
ATOM     17  C   UNL     1      -4.943   3.311 -22.069  0.00  0.00    +0.165 C 
BRANCH  17  18
ATOM     18  O   UNL     1      -6.033   3.785 -22.596  0.00  0.00    -0.394 OA
ATOM     19  H   UNL     1      -6.284   4.603 -22.138  0.00  0.00    +0.209 HD
ENDBRANCH  17  18
ENDBRANCH   6  17
TORSDOF 3
ENDMDL
MODEL 3
REMARK VINA RESULT:    -9.185      2.349      4.711
REMARK INTER + INTRA:          -8.148
REMARK INTER:                  -9.984
REMARK INTRA:                   1.836
REMARK UNBOUND:                 1.842
REMARK  Name = ZINC000013423769
REMARK  6 active torsions:
REMARK  status: ('A' for Active; 'I' for Inactive)
REMARK    1  A    between atoms: C_1  and  C_2
REMARK    2  A    between atoms: C_5  and  O_6
REMARK    3  A    between atoms: C_7  and  C_8
REMARK    4  A    between atoms: C_8  and  O_9
REMARK    5  A    between atoms: C_15  and  C_16
REMARK    6  A    between atoms: C_15  and  C_17
REMARK                            x       y       z     vdW  Elec       q    Type
REMARK                         _______ _______ _______ _____ _____    ______ ____
ROOT
ATOM      1  C   UNL     1      -3.151   4.150 -25.467  0.00  0.00    +0.008 C 
ATOM      2  C   UNL     1      -2.224   3.657 -24.701  0.00  0.00    -0.010 C 
ATOM      3  C   UNL     1      -0.994   3.606 -25.120  0.00  0.00    +0.006 C 
ATOM      4  C   UNL     1      -0.066   3.113 -24.353  0.00  0.00    +0.032 C 
ATOM      5  C   UNL     1      -0.369   2.672 -23.168  0.00  0.00    +0.123 C 
ATOM      6  C   UNL     1      -1.598   2.724 -22.749  0.00  0.00    +0.023 C 
ATOM      7  C   UNL     1      -1.900   2.282 -21.564  0.00  0.00    +0.012 C 
ATOM      8  C   UNL     1      -3.130   2.334 -21.146  0.00  0.00    +0.005 C 
ATOM      9  C   UNL     1      -4.058   2.826 -21.912  0.00  0.00    -0.001 C 
ATOM     10  C   UNL     1      -3.755   3.267 -23.097  0.00  0.00    +0.003 C 
ATOM     11  C   UNL     1      -4.985   3.319 -22.678  0.00  0.00    -0.028 C 
ATOM     12  C   UNL     1      -6.017   3.183 -21.899  0.00  0.00    +0.011 C 
ATOM     13  C   UNL     1      -5.554   3.858 -23.715  0.00  0.00    +0.011 C 
ATOM     14  C   UNL     1      -2.526   3.216 -23.516  0.00  0.00    +0.007 C 
ENDROOT
BRANCH   5  15
ATOM     15  O   UNL     1       0.559   2.180 -22.402  0.00  0.00    -0.391 OA
ATOM     16  H   UNL     1       0.150   1.650 -21.700  0.00  0.00    +0.210 HD
ENDBRANCH   5  15
BRANCH   6  17
ATOM     17  C   UNL     1      -0.671   2.231 -21.983  0.00  0.00    +0.165 C 
BRANCH  17  18
ATOM     18  O   UNL     1      -0.086   1.115 -22.305  0.00  0.00    -0.394 OA
ATOM     19  H   UNL     1       0.093   1.107 -23.259  0.00  0.00    +0.209 HD
ENDBRANCH  17  18
ENDBRANCH   6  17
TORSDOF 3
ENDMDL
MODEL 4
REMARK VINA RESULT:    -9.116      1.824      3.340
REMARK INTER + INTRA:          -8.074
REMARK INTER:                  -9.913
REMARK INTRA:                   1.840
REMARK UNBOUND:                 1.842
REMARK  Name = ZINC000013423769
REMARK  6 active torsions:
REMARK  status: ('A' for Active; 'I' for Inactive)
REMARK    1  A    between atoms: C_1  and  C_2
REMARK    2  A    between atoms: C_5  and  O_6
REMARK    3  A    between atoms: C_7  and  C_8
REMARK    4  A    between atoms: C_8  and  O_9
REMARK    5  A    between atoms: C_15  and  C_16
REMARK    6  A    between atoms: C_15  and  C_17
REMARK                            x       y       z     vdW  Elec       q    Type
REMARK                         _______ _______ _______ _____ _____    ______ ____
ROOT
ATOM      1  C   UNL     1      -5.180   3.806 -24.187  0.00  0.00    +0.008 C 
ATOM      2  C   UNL     1      -3.966   3.659 -24.629  0.00  0.00    -0.010 C 
ATOM      3  C   UNL     1      -3.736   3.656 -25.908  0.00  0.00    +0.006 C 
ATOM      4  C   UNL     1      -2.522   3.509 -26.351  0.00  0.00    +0.032 C 
ATOM      5  C   UNL     1      -1.538   3.365 -25.513  0.00  0.00    +0.123 C 
ATOM      6  C   UNL     1      -1.768   3.368 -24.234  0.00  0.00    +0.023 C 
ATOM      7  C   UNL     1      -0.784   3.223 -23.396  0.00  0.00    +0.012 C 
ATOM      8  C   UNL     1      -1.014   3.226 -22.117  0.00  0.00    +0.005 C 
ATOM      9  C   UNL     1      -2.228   3.374 -21.675  0.00  0.00    -0.001 C 
ATOM     10  C   UNL     1      -3.212   3.518 -22.512  0.00  0.00    +0.003 C 
ATOM     11  C   UNL     1      -3.441   3.521 -21.232  0.00  0.00    -0.028 C 
ATOM     12  C   UNL     1      -3.223   3.466 -19.952  0.00  0.00    +0.011 C 
ATOM     13  C   UNL     1      -4.731   3.687 -21.235  0.00  0.00    +0.011 C 
ATOM     14  C   UNL     1      -2.982   3.515 -23.791  0.00  0.00    +0.007 C 
ENDROOT
BRANCH   5  15
ATOM     15  O   UNL     1      -0.325   3.217 -25.955  0.00  0.00    -0.391 OA
ATOM     16  H   UNL     1      -0.095   3.969 -26.523  0.00  0.00    +0.210 HD
ENDBRANCH   5  15
BRANCH   6  17
ATOM     17  C   UNL     1      -0.554   3.220 -24.676  0.00  0.00    +0.165 C 
BRANCH  17  18
ATOM     18  O   UNL     1       0.064   4.224 -25.225  0.00  0.00    -0.394 OA
ATOM     19  H   UNL     1      -0.505   5.010 -25.195  0.00  0.00    +0.209 HD
ENDBRANCH  17  18
ENDBRANCH   6  17
TORSDOF 3
ENDMDL
MODEL 5
REMARK VINA RESULT:    -9.011      1.312      2.225
REMARK INTER + INTRA:          -7.959
REMARK INTER:                 -10.247
REMARK INTRA:                   2.288
REMARK UNBOUND:                 1.842
REMARK  Name = ZINC000013423769
REMARK  6 active torsions:
REMARK  status: ('A' for Active; 'I' for Inactive)
REMARK    1  A    between atoms: C_1  and  C_2
REMARK    2  A    between atoms: C_5  and  O_6
REMARK    3  A    between atoms: C_7  and  C_8
REMARK    4  A    between atoms: C_8  and  O_9
REMARK    5  A    between atoms: C_15  and  C_16
REMARK    6  A    between atoms: C_15  and  C_17
REMARK                            x       y       z     vdW  Elec       q    Type
REMARK                         _______ _______ _______ _____ _____    ______ ____
ROOT
ATOM      1  C   UNL     1      -1.270   2.241 -21.308  0.00  0.00    +0.008 C 
ATOM      2  C   UNL     1      -2.436   2.617 -21.746  0.00  0.00    -0.010 C 
ATOM      3  C   UNL     1      -3.483   2.503 -20.985  0.00  0.00    +0.006 C 
ATOM      4  C   UNL     1      -4.649   2.879 -21.423  0.00  0.00    +0.032 C 
ATOM      5  C   UNL     1      -4.766   3.368 -22.622  0.00  0.00    +0.123 C 
ATOM      6  C   UNL     1      -3.718   3.481 -23.383  0.00  0.00    +0.023 C 
ATOM      7  C   UNL     1      -3.836   3.970 -24.582  0.00  0.00    +0.012 C 
ATOM      8  C   UNL     1      -2.788   4.083 -25.343  0.00  0.00    +0.005 C 
ATOM      9  C   UNL     1      -1.623   3.707 -24.905  0.00  0.00    -0.001 C 
ATOM     10  C   UNL     1      -1.506   3.219 -23.706  0.00  0.00    +0.003 C 
ATOM     11  C   UNL     1      -0.458   3.332 -24.468  0.00  0.00    -0.028 C 
ATOM     12  C   UNL     1       0.273   3.609 -25.507  0.00  0.00    +0.011 C 
ATOM     13  C   UNL     1       0.453   2.860 -23.670  0.00  0.00    +0.011 C 
ATOM     14  C   UNL     1      -2.553   3.105 -22.945  0.00  0.00    +0.007 C 
ENDROOT
BRANCH   5  15
ATOM     15  O   UNL     1      -5.931   3.743 -23.059  0.00  0.00    -0.391 OA
ATOM     16  H   UNL     1      -6.392   2.982 -23.443  0.00  0.00    +0.210 HD
ENDBRANCH   5  15
BRANCH   6  17
ATOM     17  C   UNL     1      -4.884   3.856 -23.821  0.00  0.00    +0.165 C 
BRANCH  17  18
ATOM     18  O   UNL     1      -5.928   3.762 -23.052  0.00  0.00    -0.394 OA
ATOM     19  H   UNL     1      -6.297   2.866 -23.116  0.00  0.00    +0.209 HD
ENDBRANCH  17  18
ENDBRANCH   6  17
TORSDOF 3
ENDMDL
MODEL 6
REMARK VINA RESULT:    -8.976      1.551      3.675
REMARK INTER + INTRA:          -7.921
REMARK INTER:                  -9.793
REMARK INTRA:                   1.872
REMARK UNBOUND:                 1.842
REMARK  Name = ZINC000013423769
REMARK  6 active torsions:
REMARK  status: ('A' for Active; 'I' for Inactive)
REMARK    1  A    between atoms: C_1  and  C_2
REMARK    2  A    between atoms: C_5  and  O_6
REMARK    3  A    between atoms: C_7  and  C_8
REMARK    4  A    between atoms: C_8  and  O_9
REMARK    5  A    between atoms: C_15  and  C_16
REMARK    6  A    between atoms: C_15  and  C_17
REMARK                            x       y       z     vdW  Elec       q    Type
REMARK                         _______ _______ _______ _____ _____    ______ ____
ROOT
ATOM      1  C   UNL     1      -1.443   2.207 -21.004  0.00  0.00    +0.008 C 
ATOM      2  C   UNL     1      -1.208   2.601 -22.221  0.00  0.00    -0.010 C 
ATOM      3  C   UNL     1       0.008   2.598 -22.682  0.00  0.00    +0.006 C 
ATOM      4  C   UNL     1       0.243   2.992 -23.898  0.00  0.00    +0.032 C 
ATOM      5  C   UNL     1      -0.738   3.390 -24.654  0.00  0.00    +0.123 C 
ATOM      6  C   UNL     1      -1.953   3.394 -24.193  0.00  0.00    +0.023 C 
ATOM      7  C   UNL     1      -2.934   3.792 -24.948  0.00  0.00    +0.012 C 
ATOM      8  C   UNL     1      -4.149   3.795 -24.487  0.00  0.00    +0.005 C 
ATOM      9  C   UNL     1      -4.384   3.401 -23.271  0.00  0.00    -0.001 C 
ATOM     10  C   UNL     1      -3.404   3.003 -22.515  0.00  0.00    +0.003 C 
ATOM     11  C   UNL     1      -4.619   3.007 -22.055  0.00  0.00    -0.028 C 
ATOM     12  C   UNL     1      -5.909   3.167 -22.011  0.00  0.00    +0.011 C 
ATOM     13  C   UNL     1      -4.407   2.557 -20.854  0.00  0.00    +0.011 C 
ATOM     14  C   UNL     1      -2.188   2.999 -22.976  0.00  0.00    +0.007 C 
ENDROOT
BRANCH   5  15
ATOM     15  O   UNL     1      -0.503   3.784 -25.870  0.00  0.00    -0.391 OA
ATOM     16  H   UNL     1      -1.137   4.476 -26.113  0.00  0.00    +0.210 HD
ENDBRANCH   5  15
BRANCH   6  17
ATOM     17  C   UNL     1      -1.718   3.788 -25.409  0.00  0.00    +0.165 C 
BRANCH  17  18
ATOM     18  O   UNL     1      -1.027   3.036 -26.214  0.00  0.00    -0.394 OA
ATOM     19  H   UNL     1      -0.990   3.450 -27.091  0.00  0.00    +0.209 HD
ENDBRANCH  17  18
ENDBRANCH   6  17
TORSDOF 3
ENDMDL
MODEL 7
REMARK VINA RESULT:    -8.952      2.229      4.139
REMARK INTER + INTRA:          -7.894
REMARK INTER:                  -9.779
REMARK INTRA:                   1.885
REMARK UNBOUND:                 1.842
REMARK  Name = ZINC000013423769
REMARK  6 active torsions:
REMARK  status: ('A' for Active; 'I' for Inactive)
REMARK    1  A    between atoms: C_1  and  C_2
REMARK    2  A    between atoms: C_5  and  O_6
REMARK    3  A    between atoms: C_7  and  C_8
REMARK    4  A    between atoms: C_8  and  O_9
REMARK    5  A    between atoms: C_15  and  C_16
REMARK    6  A    between atoms: C_15  and  C_17
REMARK                            x       y       z     vdW  Elec       q    Type
REMARK                         _______ _______ _______ _____ _____    ______ ____
ROOT
ATOM      1  C   UNL     1      -3.226   2.581 -21.025  0.00  0.00    +0.008 C 
ATOM      2  C   UNL     1      -2.124   2.578 -21.715  0.00  0.00    -0.010 C 
ATOM      3  C   UNL     1      -1.015   2.176 -21.168  0.00  0.00    +0.006 C 
ATOM      4  C   UNL     1       0.087   2.173 -21.858  0.00  0.00    +0.032 C 
ATOM      5  C   UNL     1       0.080   2.571 -23.096  0.00  0.00    +0.123 C 
ATOM      6  C   UNL     1      -1.029   2.972 -23.643  0.00  0.00    +0.023 C 
ATOM      7  C   UNL     1      -1.036   3.370 -24.881  0.00  0.00    +0.012 C 
ATOM      8  C   UNL     1      -2.144   3.771 -25.429  0.00  0.00    +0.005 C 
ATOM      9  C   UNL     1      -3.246   3.775 -24.738  0.00  0.00    -0.001 C 
ATOM     10  C   UNL     1      -3.239   3.377 -23.501  0.00  0.00    +0.003 C 
ATOM     11  C   UNL     1      -4.348   3.778 -24.048  0.00  0.00    -0.028 C 
ATOM     12  C   UNL     1      -5.174   4.233 -24.944  0.00  0.00    +0.011 C 
ATOM     13  C   UNL     1      -5.163   3.624 -23.048  0.00  0.00    +0.011 C 
ATOM     14  C   UNL     1      -2.131   2.976 -22.953  0.00  0.00    +0.007 C 
ENDROOT
BRANCH   5  15
ATOM     15  O   UNL     1       1.182   2.567 -23.786  0.00  0.00    -0.391 OA
ATOM     16  H   UNL     1       1.149   3.274 -24.449  0.00  0.00    +0.210 HD
ENDBRANCH   5  15
BRANCH   6  17
ATOM     17  C   UNL     1       0.073   2.969 -24.333  0.00  0.00    +0.165 C 
BRANCH  17  18
ATOM     18  O   UNL     1       0.820   1.905 -24.360  0.00  0.00    -0.394 OA
ATOM     19  H   UNL     1       1.602   2.073 -24.910  0.00  0.00    +0.209 HD
ENDBRANCH  17  18
ENDBRANCH   6  17
TORSDOF 3
ENDMDL
MODEL 8
REMARK VINA RESULT:    -8.654      2.046      3.286
REMARK INTER + INTRA:          -7.570
REMARK INTER:                  -9.459
REMARK INTRA:                   1.889
REMARK UNBOUND:                 1.842
REMARK  Name = ZINC000013423769
REMARK  6 active torsions:
REMARK  status: ('A' for Active; 'I' for Inactive)
REMARK    1  A    between atoms: C_1  and  C_2
REMARK    2  A    between atoms: C_5  and  O_6
REMARK    3  A    between atoms: C_7  and  C_8
REMARK    4  A    between atoms: C_8  and  O_9
REMARK    5  A    between atoms: C_15  and  C_16
REMARK    6  A    between atoms: C_15  and  C_17
REMARK                            x       y       z     vdW  Elec       q    Type
REMARK                         _______ _______ _______ _____ _____    ______ ____
ROOT
ATOM      1  C   UNL     1      -3.688   4.118 -25.404  0.00  0.00    +0.008 C 
ATOM      2  C   UNL     1      -3.985   3.761 -24.190  0.00  0.00    -0.010 C 
ATOM      3  C   UNL     1      -5.214   3.832 -23.774  0.00  0.00    +0.006 C 
ATOM      4  C   UNL     1      -5.511   3.475 -22.560  0.00  0.00    +0.032 C 
ATOM      5  C   UNL     1      -4.579   3.048 -21.761  0.00  0.00    +0.123 C 
ATOM      6  C   UNL     1      -3.349   2.977 -22.177  0.00  0.00    +0.023 C 
ATOM      7  C   UNL     1      -2.416   2.549 -21.379  0.00  0.00    +0.012 C 
ATOM      8  C   UNL     1      -1.187   2.478 -21.795  0.00  0.00    +0.005 C 
ATOM      9  C   UNL     1      -0.890   2.835 -23.009  0.00  0.00    -0.001 C 
ATOM     10  C   UNL     1      -1.823   3.263 -23.808  0.00  0.00    +0.003 C 
ATOM     11  C   UNL     1      -0.593   3.192 -24.224  0.00  0.00    -0.028 C 
ATOM     12  C   UNL     1       0.689   2.970 -24.217  0.00  0.00    +0.011 C 
ATOM     13  C   UNL     1      -0.741   3.625 -25.440  0.00  0.00    +0.011 C 
ATOM     14  C   UNL     1      -3.052   3.334 -23.392  0.00  0.00    +0.007 C 
ENDROOT
BRANCH   5  15
ATOM     15  O   UNL     1      -4.876   2.691 -20.547  0.00  0.00    -0.391 OA
ATOM     16  H   UNL     1      -5.832   2.774 -20.411  0.00  0.00    +0.210 HD
ENDBRANCH   5  15
BRANCH   6  17
ATOM     17  C   UNL     1      -3.646   2.620 -20.963  0.00  0.00    +0.165 C 
BRANCH  17  18
ATOM     18  O   UNL     1      -4.650   1.822 -20.746  0.00  0.00    -0.394 OA
ATOM     19  H   UNL     1      -5.473   2.337 -20.725  0.00  0.00    +0.209 HD
ENDBRANCH  17  18
ENDBRANCH   6  17
TORSDOF 3
ENDMDL
MODEL 9
REMARK VINA RESULT:    -8.522      3.680      6.084
REMARK INTER + INTRA:          -7.427
REMARK INTER:                  -9.270
REMARK INTRA:                   1.842
REMARK UNBOUND:                 1.842
REMARK  Name = ZINC000013423769
REMARK  6 active torsions:
REMARK  status: ('A' for Active; 'I' for Inactive)
REMARK    1  A    between atoms: C_1  and  C_2
REMARK    2  A    between atoms: C_5  and  O_6
REMARK    3  A    between atoms: C_7  and  C_8
REMARK    4  A    between atoms: C_8  and  O_9
REMARK    5  A    between atoms: C_15  and  C_16
REMARK    6  A    between atoms: C_15  and  C_17
REMARK                            x       y       z     vdW  Elec       q    Type
REMARK                         _______ _______ _______ _____ _____    ______ ____
ROOT
ATOM      1  C   UNL     1       0.661   4.122 -25.209  0.00  0.00    +0.008 C 
ATOM      2  C   UNL     1       1.322   3.191 -24.587  0.00  0.00    -0.010 C 
ATOM      3  C   UNL     1       2.439   2.746 -25.082  0.00  0.00    +0.006 C 
ATOM      4  C   UNL     1       3.100   1.815 -24.461  0.00  0.00    +0.032 C 
ATOM      5  C   UNL     1       2.644   1.329 -23.344  0.00  0.00    +0.123 C 
ATOM      6  C   UNL     1       1.528   1.774 -22.849  0.00  0.00    +0.023 C 
ATOM      7  C   UNL     1       1.072   1.288 -21.733  0.00  0.00    +0.012 C 
ATOM      8  C   UNL     1      -0.045   1.733 -21.238  0.00  0.00    +0.005 C 
ATOM      9  C   UNL     1      -0.706   2.664 -21.860  0.00  0.00    -0.001 C 
ATOM     10  C   UNL     1      -0.250   3.150 -22.976  0.00  0.00    +0.003 C 
ATOM     11  C   UNL     1      -1.367   3.595 -22.482  0.00  0.00    -0.028 C 
ATOM     12  C   UNL     1      -2.376   3.733 -21.673  0.00  0.00    +0.011 C 
ATOM     13  C   UNL     1      -1.678   4.477 -23.383  0.00  0.00    +0.011 C 
ATOM     14  C   UNL     1       0.866   2.705 -23.471  0.00  0.00    +0.007 C 
ENDROOT
BRANCH   5  15
ATOM     15  O   UNL     1       3.306   0.398 -22.722  0.00  0.00    -0.391 OA
ATOM     16  H   UNL     1       2.978   0.323 -21.813  0.00  0.00    +0.210 HD
ENDBRANCH   5  15
BRANCH   6  17
ATOM     17  C   UNL     1       2.189   0.843 -22.228  0.00  0.00    +0.165 C 
BRANCH  17  18
ATOM     18  O   UNL     1       2.463  -0.274 -22.833  0.00  0.00    -0.394 OA
ATOM     19  H   UNL     1       3.390  -0.512 -22.670  0.00  0.00    +0.209 HD
ENDBRANCH  17  18
ENDBRANCH   6  17
TORSDOF 3
ENDMDL
