MODEL 1
REMARK VINA RESULT:    -9.845      0.000      0.000
REMARK INTER + INTRA:         -10.133
REMARK INTER:                 -10.133
REMARK INTRA:                   0.000
REMARK UNBOUND:                 0.000
REMARK  Name = ZINC000004521472
REMARK  5 active torsions:
REMARK  status: ('A' for Active; 'I' for Inactive)
REMARK    1  A    between atoms: C_1  and  C_2
REMARK    2  A    between atoms: C_11  and  C_12
REMARK    3  A    between atoms: C_11  and  O_13
REMARK    4  A    between atoms: C_14  and  C_15
REMARK    5  A    between atoms: C_14  and  C_16
REMARK                            x       y       z     vdW  Elec       q    Type
REMARK                         _______ _______ _______ _____ _____    ______ ____
ROOT
ATOM      1  C   UNL     1      -1.413   3.723 -25.518  0.00  0.00    +0.008 C 
ATOM      2  C   UNL     1      -2.596   3.766 -24.981  0.00  0.00    -0.010 C 
ATOM      3  C   UNL     1      -3.670   4.245 -25.537  0.00  0.00    +0.004 C 
ATOM      4  C   UNL     1      -4.651   4.113 -24.694  0.00  0.00    +0.007 C 
ATOM      5  C   UNL     1      -4.184   3.553 -23.617  0.00  0.00    +0.024 C 
ATOM      6  C   UNL     1      -4.913   3.281 -22.577  0.00  0.00    +0.066 C 
ATOM      7  C   UNL     1      -6.023   3.249 -21.901  0.00  0.00    +0.041 C 
ATOM      8  C   UNL     1      -4.553   2.728 -21.457  0.00  0.00    +0.035 C 
ATOM      9  C   UNL     1      -3.375   2.310 -21.101  0.00  0.00    +0.007 C 
ATOM     10  C   UNL     1      -2.265   2.342 -21.778  0.00  0.00    -0.001 C 
ATOM     11  C   UNL     1      -1.075   2.291 -22.298  0.00  0.00    -0.028 C 
ATOM     12  C   UNL     1      -0.110   2.433 -23.158  0.00  0.00    +0.011 C 
ATOM     13  C   UNL     1      -0.425   1.731 -21.321  0.00  0.00    +0.011 C 
ATOM     14  C   UNL     1      -2.060   2.800 -22.976  0.00  0.00    +0.002 C 
ATOM     15  C   UNL     1      -2.913   3.339 -23.796  0.00  0.00    +0.002 C 
ENDROOT
BRANCH   6  16
ATOM     16  O   UNL     1      -5.766   3.820 -23.396  0.00  0.00    -0.389 OA
ATOM     17  H   UNL     1      -5.437   4.686 -23.683  0.00  0.00    +0.210 HD
ENDBRANCH   6  16
TORSDOF 1
ENDMDL
MODEL 2
REMARK VINA RESULT:    -9.394      1.661      3.609
REMARK INTER + INTRA:          -9.669
REMARK INTER:                  -9.669
REMARK INTRA:                   0.000
REMARK UNBOUND:                 0.000
REMARK  Name = ZINC000004521472
REMARK  5 active torsions:
REMARK  status: ('A' for Active; 'I' for Inactive)
REMARK    1  A    between atoms: C_1  and  C_2
REMARK    2  A    between atoms: C_11  and  C_12
REMARK    3  A    between atoms: C_11  and  O_13
REMARK    4  A    between atoms: C_14  and  C_15
REMARK    5  A    between atoms: C_14  and  C_16
REMARK                            x       y       z     vdW  Elec       q    Type
REMARK                         _______ _______ _______ _____ _____    ______ ____
ROOT
ATOM      1  C   UNL     1      -5.182   3.755 -24.872  0.00  0.00    +0.008 C 
ATOM      2  C   UNL     1      -3.901   3.576 -25.001  0.00  0.00    -0.010 C 
ATOM      3  C   UNL     1      -3.216   3.718 -26.098  0.00  0.00    +0.004 C 
ATOM      4  C   UNL     1      -1.972   3.453 -25.831  0.00  0.00    +0.007 C 
ATOM      5  C   UNL     1      -1.887   3.147 -24.570  0.00  0.00    +0.024 C 
ATOM      6  C   UNL     1      -0.772   2.829 -23.984  0.00  0.00    +0.066 C 
ATOM      7  C   UNL     1       0.509   2.610 -23.943  0.00  0.00    +0.041 C 
ATOM      8  C   UNL     1      -0.573   2.508 -22.740  0.00  0.00    +0.035 C 
ATOM      9  C   UNL     1      -1.441   2.426 -21.775  0.00  0.00    +0.007 C 
ATOM     10  C   UNL     1      -2.722   2.645 -21.817  0.00  0.00    -0.001 C 
ATOM     11  C   UNL     1      -4.001   2.819 -21.668  0.00  0.00    -0.028 C 
ATOM     12  C   UNL     1      -5.239   3.089 -21.960  0.00  0.00    +0.011 C 
ATOM     13  C   UNL     1      -4.122   2.546 -20.403  0.00  0.00    +0.011 C 
ATOM     14  C   UNL     1      -3.451   2.999 -22.832  0.00  0.00    +0.002 C 
ATOM     15  C   UNL     1      -3.080   3.223 -24.058  0.00  0.00    +0.002 C 
ENDROOT
BRANCH   6  16
ATOM     16  O   UNL     1      -0.401   3.052 -25.209  0.00  0.00    -0.389 OA
ATOM     17  H   UNL     1      -1.072   2.705 -25.819  0.00  0.00    +0.210 HD
ENDBRANCH   6  16
TORSDOF 1
ENDMDL
MODEL 3
REMARK VINA RESULT:    -9.358      1.524      4.012
REMARK INTER + INTRA:          -9.631
REMARK INTER:                  -9.631
REMARK INTRA:                   0.000
REMARK UNBOUND:                 0.000
REMARK  Name = ZINC000004521472
REMARK  5 active torsions:
REMARK  status: ('A' for Active; 'I' for Inactive)
REMARK    1  A    between atoms: C_1  and  C_2
REMARK    2  A    between atoms: C_11  and  C_12
REMARK    3  A    between atoms: C_11  and  O_13
REMARK    4  A    between atoms: C_14  and  C_15
REMARK    5  A    between atoms: C_14  and  C_16
REMARK                            x       y       z     vdW  Elec       q    Type
REMARK                         _______ _______ _______ _____ _____    ______ ____
ROOT
ATOM      1  C   UNL     1      -1.112   2.437 -21.498  0.00  0.00    +0.008 C 
ATOM      2  C   UNL     1      -1.171   2.688 -22.772  0.00  0.00    -0.010 C 
ATOM      3  C   UNL     1      -0.166   2.689 -23.598  0.00  0.00    +0.004 C 
ATOM      4  C   UNL     1      -0.618   2.984 -24.780  0.00  0.00    +0.007 C 
ATOM      5  C   UNL     1      -1.902   3.167 -24.686  0.00  0.00    +0.024 C 
ATOM      6  C   UNL     1      -2.657   3.477 -25.697  0.00  0.00    +0.066 C 
ATOM      7  C   UNL     1      -2.887   3.751 -26.946  0.00  0.00    +0.041 C 
ATOM      8  C   UNL     1      -3.941   3.682 -25.716  0.00  0.00    +0.035 C 
ATOM      9  C   UNL     1      -4.786   3.626 -24.730  0.00  0.00    +0.007 C 
ATOM     10  C   UNL     1      -4.556   3.352 -23.480  0.00  0.00    -0.001 C 
ATOM     11  C   UNL     1      -4.517   3.103 -22.205  0.00  0.00    -0.028 C 
ATOM     12  C   UNL     1      -4.041   2.805 -21.032  0.00  0.00    +0.011 C 
ATOM     13  C   UNL     1      -5.775   3.243 -21.909  0.00  0.00    +0.011 C 
ATOM     14  C   UNL     1      -3.424   3.066 -22.908  0.00  0.00    +0.002 C 
ATOM     15  C   UNL     1      -2.243   2.984 -23.444  0.00  0.00    +0.002 C 
ENDROOT
BRANCH   6  16
ATOM     16  O   UNL     1      -1.476   3.395 -26.232  0.00  0.00    -0.389 OA
ATOM     17  H   UNL     1      -0.866   2.974 -25.607  0.00  0.00    +0.210 HD
ENDBRANCH   6  16
TORSDOF 1
ENDMDL
MODEL 4
REMARK VINA RESULT:    -9.252      0.877      3.097
REMARK INTER + INTRA:          -9.522
REMARK INTER:                  -9.522
REMARK INTRA:                   0.000
REMARK UNBOUND:                 0.000
REMARK  Name = ZINC000004521472
REMARK  5 active torsions:
REMARK  status: ('A' for Active; 'I' for Inactive)
REMARK    1  A    between atoms: C_1  and  C_2
REMARK    2  A    between atoms: C_11  and  C_12
REMARK    3  A    between atoms: C_11  and  O_13
REMARK    4  A    between atoms: C_14  and  C_15
REMARK    5  A    between atoms: C_14  and  C_16
REMARK                            x       y       z     vdW  Elec       q    Type
REMARK                         _______ _______ _______ _____ _____    ______ ____
ROOT
ATOM      1  C   UNL     1      -3.964   2.625 -20.635  0.00  0.00    +0.008 C 
ATOM      2  C   UNL     1      -4.250   3.021 -21.839  0.00  0.00    -0.010 C 
ATOM      3  C   UNL     1      -5.420   3.405 -22.259  0.00  0.00    +0.004 C 
ATOM      4  C   UNL     1      -5.311   3.725 -23.514  0.00  0.00    +0.007 C 
ATOM      5  C   UNL     1      -4.075   3.540 -23.871  0.00  0.00    +0.024 C 
ATOM      6  C   UNL     1      -3.634   3.769 -25.071  0.00  0.00    +0.066 C 
ATOM      7  C   UNL     1      -3.753   4.137 -26.312  0.00  0.00    +0.041 C 
ATOM      8  C   UNL     1      -2.428   3.620 -25.534  0.00  0.00    +0.035 C 
ATOM      9  C   UNL     1      -1.366   3.205 -24.910  0.00  0.00    +0.007 C 
ATOM     10  C   UNL     1      -1.247   2.837 -23.669  0.00  0.00    -0.001 C 
ATOM     11  C   UNL     1      -0.941   2.437 -22.470  0.00  0.00    -0.028 C 
ATOM     12  C   UNL     1      -1.075   2.123 -21.216  0.00  0.00    +0.011 C 
ATOM     13  C   UNL     1       0.325   2.191 -22.630  0.00  0.00    +0.011 C 
ATOM     14  C   UNL     1      -2.161   2.792 -22.746  0.00  0.00    +0.002 C 
ATOM     15  C   UNL     1      -3.420   3.105 -22.835  0.00  0.00    +0.002 C 
ENDROOT
BRANCH   6  16
ATOM     16  O   UNL     1      -4.892   4.081 -25.161  0.00  0.00    -0.389 OA
ATOM     17  H   UNL     1      -5.415   3.279 -25.321  0.00  0.00    +0.210 HD
ENDBRANCH   6  16
TORSDOF 1
ENDMDL
MODEL 5
REMARK VINA RESULT:    -9.207      1.574      4.446
REMARK INTER + INTRA:          -9.476
REMARK INTER:                  -9.476
REMARK INTRA:                   0.000
REMARK UNBOUND:                 0.000
REMARK  Name = ZINC000004521472
REMARK  5 active torsions:
REMARK  status: ('A' for Active; 'I' for Inactive)
REMARK    1  A    between atoms: C_1  and  C_2
REMARK    2  A    between atoms: C_11  and  C_12
REMARK    3  A    between atoms: C_11  and  O_13
REMARK    4  A    between atoms: C_14  and  C_15
REMARK    5  A    between atoms: C_14  and  C_16
REMARK                            x       y       z     vdW  Elec       q    Type
REMARK                         _______ _______ _______ _____ _____    ______ ____
ROOT
ATOM      1  C   UNL     1      -5.560   3.432 -22.512  0.00  0.00    +0.008 C 
ATOM      2  C   UNL     1      -4.350   3.163 -22.122  0.00  0.00    -0.010 C 
ATOM      3  C   UNL     1      -3.977   2.922 -20.900  0.00  0.00    +0.004 C 
ATOM      4  C   UNL     1      -2.697   2.696 -20.908  0.00  0.00    +0.007 C 
ATOM      5  C   UNL     1      -2.278   2.797 -22.134  0.00  0.00    +0.024 C 
ATOM      6  C   UNL     1      -1.039   2.628 -22.483  0.00  0.00    +0.066 C 
ATOM      7  C   UNL     1       0.217   2.374 -22.261  0.00  0.00    +0.041 C 
ATOM      8  C   UNL     1      -0.514   2.704 -23.671  0.00  0.00    +0.035 C 
ATOM      9  C   UNL     1      -1.099   2.969 -24.801  0.00  0.00    +0.007 C 
ATOM     10  C   UNL     1      -2.355   3.223 -25.023  0.00  0.00    -0.001 C 
ATOM     11  C   UNL     1      -3.558   3.495 -25.432  0.00  0.00    -0.028 C 
ATOM     12  C   UNL     1      -4.839   3.717 -25.398  0.00  0.00    +0.011 C 
ATOM     13  C   UNL     1      -3.338   3.638 -26.705  0.00  0.00    +0.011 C 
ATOM     14  C   UNL     1      -3.334   3.275 -24.170  0.00  0.00    +0.002 C 
ATOM     15  C   UNL     1      -3.301   3.086 -22.884  0.00  0.00    +0.002 C 
ENDROOT
BRANCH   6  16
ATOM     16  O   UNL     1      -1.005   2.438 -21.199  0.00  0.00    -0.389 OA
ATOM     17  H   UNL     1      -1.899   2.237 -20.878  0.00  0.00    +0.210 HD
ENDBRANCH   6  16
TORSDOF 1
ENDMDL
MODEL 6
REMARK VINA RESULT:    -8.794      0.857      3.128
REMARK INTER + INTRA:          -9.051
REMARK INTER:                  -9.051
REMARK INTRA:                   0.000
REMARK UNBOUND:                 0.000
REMARK  Name = ZINC000004521472
REMARK  5 active torsions:
REMARK  status: ('A' for Active; 'I' for Inactive)
REMARK    1  A    between atoms: C_1  and  C_2
REMARK    2  A    between atoms: C_11  and  C_12
REMARK    3  A    between atoms: C_11  and  O_13
REMARK    4  A    between atoms: C_14  and  C_15
REMARK    5  A    between atoms: C_14  and  C_16
REMARK                            x       y       z     vdW  Elec       q    Type
REMARK                         _______ _______ _______ _____ _____    ______ ____
ROOT
ATOM      1  C   UNL     1      -1.417   2.258 -20.997  0.00  0.00    +0.008 C 
ATOM      2  C   UNL     1      -2.546   2.639 -21.516  0.00  0.00    -0.010 C 
ATOM      3  C   UNL     1      -3.701   2.635 -20.918  0.00  0.00    +0.004 C 
ATOM      4  C   UNL     1      -4.589   3.083 -21.756  0.00  0.00    +0.007 C 
ATOM      5  C   UNL     1      -3.983   3.364 -22.871  0.00  0.00    +0.024 C 
ATOM      6  C   UNL     1      -4.591   3.836 -23.917  0.00  0.00    +0.066 C 
ATOM      7  C   UNL     1      -5.629   4.251 -24.580  0.00  0.00    +0.041 C 
ATOM      8  C   UNL     1      -4.089   4.150 -25.074  0.00  0.00    +0.035 C 
ATOM      9  C   UNL     1      -2.853   4.069 -25.470  0.00  0.00    +0.007 C 
ATOM     10  C   UNL     1      -1.815   3.655 -24.807  0.00  0.00    -0.001 C 
ATOM     11  C   UNL     1      -0.676   3.279 -24.305  0.00  0.00    -0.028 C 
ATOM     12  C   UNL     1       0.193   2.827 -23.450  0.00  0.00    +0.011 C 
ATOM     13  C   UNL     1       0.102   3.495 -25.324  0.00  0.00    +0.011 C 
ATOM     14  C   UNL     1      -1.756   3.219 -23.584  0.00  0.00    +0.002 C 
ATOM     15  C   UNL     1      -2.720   3.089 -22.722  0.00  0.00    +0.002 C 
ENDROOT
BRANCH   6  16
ATOM     16  O   UNL     1      -5.555   3.707 -23.056  0.00  0.00    -0.389 OA
ATOM     17  H   UNL     1      -5.194   3.755 -22.156  0.00  0.00    +0.210 HD
ENDBRANCH   6  16
TORSDOF 1
ENDMDL
MODEL 7
REMARK VINA RESULT:    -8.459      1.272      2.403
REMARK INTER + INTRA:          -8.706
REMARK INTER:                  -8.706
REMARK INTRA:                   0.000
REMARK UNBOUND:                 0.000
REMARK  Name = ZINC000004521472
REMARK  5 active torsions:
REMARK  status: ('A' for Active; 'I' for Inactive)
REMARK    1  A    between atoms: C_1  and  C_2
REMARK    2  A    between atoms: C_11  and  C_12
REMARK    3  A    between atoms: C_11  and  O_13
REMARK    4  A    between atoms: C_14  and  C_15
REMARK    5  A    between atoms: C_14  and  C_16
REMARK                            x       y       z     vdW  Elec       q    Type
REMARK                         _______ _______ _______ _____ _____    ______ ____
ROOT
ATOM      1  C   UNL     1      -0.201   3.168 -23.652  0.00  0.00    +0.008 C 
ATOM      2  C   UNL     1      -1.291   3.329 -24.342  0.00  0.00    -0.010 C 
ATOM      3  C   UNL     1      -1.367   3.435 -25.636  0.00  0.00    +0.004 C 
ATOM      4  C   UNL     1      -2.619   3.585 -25.953  0.00  0.00    +0.007 C 
ATOM      5  C   UNL     1      -3.316   3.571 -24.856  0.00  0.00    +0.024 C 
ATOM      6  C   UNL     1      -4.609   3.699 -24.828  0.00  0.00    +0.066 C 
ATOM      7  C   UNL     1      -5.782   3.857 -25.365  0.00  0.00    +0.041 C 
ATOM      8  C   UNL     1      -5.401   3.700 -23.797  0.00  0.00    +0.035 C 
ATOM      9  C   UNL     1      -5.095   3.574 -22.540  0.00  0.00    +0.007 C 
ATOM     10  C   UNL     1      -3.922   3.416 -22.003  0.00  0.00    -0.001 C 
ATOM     11  C   UNL     1      -2.843   3.254 -21.296  0.00  0.00    -0.028 C 
ATOM     12  C   UNL     1      -1.585   3.106 -21.004  0.00  0.00    +0.011 C 
ATOM     13  C   UNL     1      -3.358   3.216 -20.103  0.00  0.00    +0.011 C 
ATOM     14  C   UNL     1      -2.765   3.345 -22.591  0.00  0.00    +0.002 C 
ATOM     15  C   UNL     1      -2.495   3.414 -23.860  0.00  0.00    +0.002 C 
ENDROOT
BRANCH   6  16
ATOM     16  O   UNL     1      -4.339   3.768 -26.097  0.00  0.00    -0.389 OA
ATOM     17  H   UNL     1      -4.910   4.433 -26.514  0.00  0.00    +0.210 HD
ENDBRANCH   6  16
TORSDOF 1
ENDMDL
MODEL 8
REMARK VINA RESULT:    -8.385      2.193      5.272
REMARK INTER + INTRA:          -8.630
REMARK INTER:                  -8.630
REMARK INTRA:                   0.000
REMARK UNBOUND:                 0.000
REMARK  Name = ZINC000004521472
REMARK  5 active torsions:
REMARK  status: ('A' for Active; 'I' for Inactive)
REMARK    1  A    between atoms: C_1  and  C_2
REMARK    2  A    between atoms: C_11  and  C_12
REMARK    3  A    between atoms: C_11  and  O_13
REMARK    4  A    between atoms: C_14  and  C_15
REMARK    5  A    between atoms: C_14  and  C_16
REMARK                            x       y       z     vdW  Elec       q    Type
REMARK                         _______ _______ _______ _____ _____    ______ ____
ROOT
ATOM      1  C   UNL     1      -2.635   2.163 -21.139  0.00  0.00    +0.008 C 
ATOM      2  C   UNL     1      -1.462   2.108 -21.695  0.00  0.00    -0.010 C 
ATOM      3  C   UNL     1      -0.397   1.569 -21.179  0.00  0.00    +0.004 C 
ATOM      4  C   UNL     1       0.577   1.710 -22.029  0.00  0.00    +0.007 C 
ATOM      5  C   UNL     1       0.114   2.336 -23.070  0.00  0.00    +0.024 C 
ATOM      6  C   UNL     1       0.838   2.635 -24.106  0.00  0.00    +0.066 C 
ATOM      7  C   UNL     1       1.940   2.665 -24.796  0.00  0.00    +0.041 C 
ATOM      8  C   UNL     1       0.482   3.254 -25.193  0.00  0.00    +0.035 C 
ATOM      9  C   UNL     1      -0.687   3.726 -25.511  0.00  0.00    +0.007 C 
ATOM     10  C   UNL     1      -1.788   3.697 -24.821  0.00  0.00    -0.001 C 
ATOM     11  C   UNL     1      -2.968   3.761 -24.281  0.00  0.00    -0.028 C 
ATOM     12  C   UNL     1      -3.926   3.608 -23.415  0.00  0.00    +0.011 C 
ATOM     13  C   UNL     1      -3.613   4.388 -25.220  0.00  0.00    +0.011 C 
ATOM     14  C   UNL     1      -1.992   3.188 -23.642  0.00  0.00    +0.002 C 
ATOM     15  C   UNL     1      -1.146   2.582 -22.863  0.00  0.00    +0.002 C 
ENDROOT
BRANCH   6  16
ATOM     16  O   UNL     1       1.684   2.030 -23.327  0.00  0.00    -0.389 OA
ATOM     17  H   UNL     1       2.509   1.865 -23.811  0.00  0.00    +0.210 HD
ENDBRANCH   6  16
TORSDOF 1
ENDMDL
MODEL 9
REMARK VINA RESULT:    -8.315      1.482      3.534
REMARK INTER + INTRA:          -8.558
REMARK INTER:                  -8.558
REMARK INTRA:                   0.000
REMARK UNBOUND:                 0.000
REMARK  Name = ZINC000004521472
REMARK  5 active torsions:
REMARK  status: ('A' for Active; 'I' for Inactive)
REMARK    1  A    between atoms: C_1  and  C_2
REMARK    2  A    between atoms: C_11  and  C_12
REMARK    3  A    between atoms: C_11  and  O_13
REMARK    4  A    between atoms: C_14  and  C_15
REMARK    5  A    between atoms: C_14  and  C_16
REMARK                            x       y       z     vdW  Elec       q    Type
REMARK                         _______ _______ _______ _____ _____    ______ ____
ROOT
ATOM      1  C   UNL     1      -0.538   3.348 -25.189  0.00  0.00    +0.008 C 
ATOM      2  C   UNL     1      -0.921   3.293 -23.949  0.00  0.00    -0.010 C 
ATOM      3  C   UNL     1      -0.143   3.179 -22.913  0.00  0.00    +0.004 C 
ATOM      4  C   UNL     1      -0.891   3.158 -21.850  0.00  0.00    +0.007 C 
ATOM      5  C   UNL     1      -2.130   3.258 -22.227  0.00  0.00    +0.024 C 
ATOM      6  C   UNL     1      -3.132   3.268 -21.400  0.00  0.00    +0.066 C 
ATOM      7  C   UNL     1      -3.678   3.227 -20.221  0.00  0.00    +0.041 C 
ATOM      8  C   UNL     1      -4.401   3.363 -21.666  0.00  0.00    +0.035 C 
ATOM      9  C   UNL     1      -4.981   3.473 -22.824  0.00  0.00    +0.007 C 
ATOM     10  C   UNL     1      -4.435   3.514 -24.003  0.00  0.00    -0.001 C 
ATOM     11  C   UNL     1      -4.071   3.570 -25.250  0.00  0.00    -0.028 C 
ATOM     12  C   UNL     1      -3.302   3.589 -26.298  0.00  0.00    +0.011 C 
ATOM     13  C   UNL     1      -5.234   3.678 -25.821  0.00  0.00    +0.011 C 
ATOM     14  C   UNL     1      -3.175   3.455 -24.315  0.00  0.00    +0.002 C 
ATOM     15  C   UNL     1      -2.149   3.342 -23.525  0.00  0.00    +0.002 C 
ENDROOT
BRANCH   6  16
ATOM     16  O   UNL     1      -2.107   3.154 -20.611  0.00  0.00    -0.389 OA
ATOM     17  H   UNL     1      -2.132   2.291 -20.169  0.00  0.00    +0.210 HD
ENDBRANCH   6  16
TORSDOF 1
ENDMDL
