MODEL 1
REMARK VINA RESULT:    -9.607      0.000      0.000
REMARK INTER + INTRA:         -12.088
REMARK INTER:                 -11.304
REMARK INTRA:                  -0.784
REMARK UNBOUND:                -0.796
REMARK  Name = ZINC000014807307
REMARK  5 active torsions:
REMARK  status: ('A' for Active; 'I' for Inactive)
REMARK    1  A    between atoms: C_1  and  O_2
REMARK    2  A    between atoms: O_2  and  C_3
REMARK    3  A    between atoms: C_5  and  O_6
REMARK    4  A    between atoms: C_11  and  C_12
REMARK    5  A    between atoms: C_17  and  O_18
REMARK                            x       y       z     vdW  Elec       q    Type
REMARK                         _______ _______ _______ _____ _____    ______ ____
ROOT
ATOM      1  C   UNL     1       2.192   1.252 -22.139  0.00  0.00    +0.127 A 
ATOM      2  C   UNL     1       2.865   2.252 -22.626  0.00  0.00    +0.092 A 
ATOM      3  C   UNL     1       2.239   3.300 -23.072  0.00  0.00    +0.135 A 
ATOM      4  C   UNL     1       0.941   3.348 -23.032  0.00  0.00    +0.105 A 
ATOM      5  C   UNL     1       0.315   4.397 -23.479  0.00  0.00    +0.197 A 
ATOM      6  C   UNL     1      -0.983   4.445 -23.438  0.00  0.00    +0.098 A 
ATOM      7  C   UNL     1      -1.656   3.445 -22.951  0.00  0.00    +0.143 A 
ATOM      8  O   UNL     1      -1.030   2.397 -22.504  0.00  0.00    -0.454 OA
ATOM      9  O   UNL     1       0.988   5.397 -23.966  0.00  0.00    -0.287 OA
ATOM     10  C   UNL     1       0.268   2.348 -22.545  0.00  0.00    +0.146 A 
ATOM     11  C   UNL     1       0.894   1.300 -22.098  0.00  0.00    +0.092 A 
ENDROOT
BRANCH   7  12
ATOM     12  C   UNL     1      -2.954   3.493 -22.910  0.00  0.00    +0.059 A 
ATOM     13  C   UNL     1      -3.631   3.708 -23.999  0.00  0.00    +0.015 A 
ATOM     14  C   UNL     1      -4.930   3.756 -23.958  0.00  0.00    +0.001 A 
ATOM     15  C   UNL     1      -5.551   3.589 -22.828  0.00  0.00    +0.004 A 
ATOM     16  C   UNL     1      -4.874   3.375 -21.740  0.00  0.00    +0.046 A 
ATOM     17  C   UNL     1      -3.576   3.327 -21.780  0.00  0.00    +0.127 A 
BRANCH  17  18
ATOM     18  O   UNL     1      -2.899   3.112 -20.691  0.00  0.00    -0.506 OA
ATOM     19  H   UNL     1      -3.221   3.428 -19.869  0.00  0.00    +0.292 HD
ENDBRANCH  17  18
ENDBRANCH   7  12
BRANCH   1  21
ATOM     20  C   UNL     1       3.908   0.344 -20.998  0.00  0.00    +0.277 C 
ATOM     21  O   UNL     1       2.818   0.203 -21.692  0.00  0.00    -0.495 OA
ENDBRANCH   1  21
BRANCH   3  22
ATOM     22  O   UNL     1       2.912   4.300 -23.559  0.00  0.00    -0.506 OA
ATOM     23  H   UNL     1       3.172   4.295 -24.459  0.00  0.00    +0.292 HD
ENDBRANCH   3  22
TORSDOF 4
ENDMDL
MODEL 2
REMARK VINA RESULT:    -9.314      1.087      1.405
REMARK INTER + INTRA:         -11.744
REMARK INTER:                 -10.982
REMARK INTRA:                  -0.762
REMARK UNBOUND:                -0.796
REMARK  Name = ZINC000014807307
REMARK  5 active torsions:
REMARK  status: ('A' for Active; 'I' for Inactive)
REMARK    1  A    between atoms: C_1  and  O_2
REMARK    2  A    between atoms: O_2  and  C_3
REMARK    3  A    between atoms: C_5  and  O_6
REMARK    4  A    between atoms: C_11  and  C_12
REMARK    5  A    between atoms: C_17  and  O_18
REMARK                            x       y       z     vdW  Elec       q    Type
REMARK                         _______ _______ _______ _____ _____    ______ ____
ROOT
ATOM      1  C   UNL     1       2.547   1.312 -22.009  0.00  0.00    +0.127 A 
ATOM      2  C   UNL     1       3.307   2.360 -22.130  0.00  0.00    +0.092 A 
ATOM      3  C   UNL     1       2.838   3.443 -22.674  0.00  0.00    +0.135 A 
ATOM      4  C   UNL     1       1.609   3.479 -23.096  0.00  0.00    +0.105 A 
ATOM      5  C   UNL     1       1.140   4.563 -23.641  0.00  0.00    +0.197 A 
ATOM      6  C   UNL     1      -0.088   4.599 -24.063  0.00  0.00    +0.098 A 
ATOM      7  C   UNL     1      -0.848   3.551 -23.941  0.00  0.00    +0.143 A 
ATOM      8  O   UNL     1      -0.379   2.468 -23.398  0.00  0.00    -0.454 OA
ATOM      9  O   UNL     1       1.900   5.611 -23.762  0.00  0.00    -0.287 OA
ATOM     10  C   UNL     1       0.849   2.431 -22.975  0.00  0.00    +0.146 A 
ATOM     11  C   UNL     1       1.318   1.348 -22.431  0.00  0.00    +0.092 A 
ENDROOT
BRANCH   7  12
ATOM     12  C   UNL     1      -2.077   3.587 -24.364  0.00  0.00    +0.059 A 
ATOM     13  C   UNL     1      -2.331   3.494 -25.635  0.00  0.00    +0.015 A 
ATOM     14  C   UNL     1      -3.559   3.529 -26.058  0.00  0.00    +0.001 A 
ATOM     15  C   UNL     1      -4.536   3.658 -25.208  0.00  0.00    +0.004 A 
ATOM     16  C   UNL     1      -4.282   3.751 -23.937  0.00  0.00    +0.046 A 
ATOM     17  C   UNL     1      -3.053   3.715 -23.514  0.00  0.00    +0.127 A 
BRANCH  17  18
ATOM     18  O   UNL     1      -2.800   3.808 -22.243  0.00  0.00    -0.506 OA
ATOM     19  H   UNL     1      -3.414   4.228 -21.672  0.00  0.00    +0.292 HD
ENDBRANCH  17  18
ENDBRANCH   7  12
BRANCH   1  21
ATOM     20  C   UNL     1       4.095   0.279 -20.740  0.00  0.00    +0.277 C 
ATOM     21  O   UNL     1       3.017   0.228 -21.464  0.00  0.00    -0.495 OA
ENDBRANCH   1  21
BRANCH   3  22
ATOM     22  O   UNL     1       3.598   4.491 -22.796  0.00  0.00    -0.506 OA
ATOM     23  H   UNL     1       3.506   5.208 -22.200  0.00  0.00    +0.292 HD
ENDBRANCH   3  22
TORSDOF 4
ENDMDL
MODEL 3
REMARK VINA RESULT:    -8.904      1.560      3.080
REMARK INTER + INTRA:         -11.262
REMARK INTER:                 -10.717
REMARK INTRA:                  -0.544
REMARK UNBOUND:                -0.796
REMARK  Name = ZINC000014807307
REMARK  5 active torsions:
REMARK  status: ('A' for Active; 'I' for Inactive)
REMARK    1  A    between atoms: C_1  and  O_2
REMARK    2  A    between atoms: O_2  and  C_3
REMARK    3  A    between atoms: C_5  and  O_6
REMARK    4  A    between atoms: C_11  and  C_12
REMARK    5  A    between atoms: C_17  and  O_18
REMARK                            x       y       z     vdW  Elec       q    Type
REMARK                         _______ _______ _______ _____ _____    ______ ____
ROOT
ATOM      1  C   UNL     1       3.140   3.420 -23.217  0.00  0.00    +0.127 A 
ATOM      2  C   UNL     1       3.173   2.553 -22.248  0.00  0.00    +0.092 A 
ATOM      3  C   UNL     1       2.070   2.012 -21.823  0.00  0.00    +0.135 A 
ATOM      4  C   UNL     1       0.935   2.337 -22.367  0.00  0.00    +0.105 A 
ATOM      5  C   UNL     1      -0.168   1.795 -21.942  0.00  0.00    +0.197 A 
ATOM      6  C   UNL     1      -1.303   2.120 -22.486  0.00  0.00    +0.098 A 
ATOM      7  C   UNL     1      -1.335   2.987 -23.454  0.00  0.00    +0.143 A 
ATOM      8  O   UNL     1      -0.233   3.528 -23.879  0.00  0.00    -0.454 OA
ATOM      9  O   UNL     1      -0.136   0.928 -20.973  0.00  0.00    -0.287 OA
ATOM     10  C   UNL     1       0.903   3.204 -23.336  0.00  0.00    +0.146 A 
ATOM     11  C   UNL     1       2.006   3.745 -23.760  0.00  0.00    +0.092 A 
ENDROOT
BRANCH   7  12
ATOM     12  C   UNL     1      -2.470   3.312 -23.998  0.00  0.00    +0.059 A 
ATOM     13  C   UNL     1      -3.520   3.495 -23.253  0.00  0.00    +0.015 A 
ATOM     14  C   UNL     1      -4.655   3.820 -23.797  0.00  0.00    +0.001 A 
ATOM     15  C   UNL     1      -4.741   3.962 -25.087  0.00  0.00    +0.004 A 
ATOM     16  C   UNL     1      -3.691   3.779 -25.832  0.00  0.00    +0.046 A 
ATOM     17  C   UNL     1      -2.556   3.454 -25.288  0.00  0.00    +0.127 A 
BRANCH  17  18
ATOM     18  O   UNL     1      -1.507   3.271 -26.033  0.00  0.00    -0.506 OA
ATOM     19  H   UNL     1      -0.981   2.503 -25.921  0.00  0.00    +0.292 HD
ENDBRANCH  17  18
ENDBRANCH   7  12
BRANCH   1  21
ATOM     20  C   UNL     1       5.389   3.424 -23.342  0.00  0.00    +0.277 C 
ATOM     21  O   UNL     1       4.244   3.961 -23.641  0.00  0.00    -0.495 OA
ENDBRANCH   1  21
BRANCH   3  22
ATOM     22  O   UNL     1       2.102   1.145 -20.855  0.00  0.00    -0.506 OA
ATOM     23  H   UNL     1       2.924   0.883 -20.489  0.00  0.00    +0.292 HD
ENDBRANCH   3  22
TORSDOF 4
ENDMDL
MODEL 4
REMARK VINA RESULT:    -8.545      2.022      4.109
REMARK INTER + INTRA:         -10.839
REMARK INTER:                 -10.039
REMARK INTRA:                  -0.800
REMARK UNBOUND:                -0.796
REMARK  Name = ZINC000014807307
REMARK  5 active torsions:
REMARK  status: ('A' for Active; 'I' for Inactive)
REMARK    1  A    between atoms: C_1  and  O_2
REMARK    2  A    between atoms: O_2  and  C_3
REMARK    3  A    between atoms: C_5  and  O_6
REMARK    4  A    between atoms: C_11  and  C_12
REMARK    5  A    between atoms: C_17  and  O_18
REMARK                            x       y       z     vdW  Elec       q    Type
REMARK                         _______ _______ _______ _____ _____    ______ ____
ROOT
ATOM      1  C   UNL     1       5.096   3.945 -22.947  0.00  0.00    +0.127 A 
ATOM      2  C   UNL     1       5.609   2.865 -22.437  0.00  0.00    +0.092 A 
ATOM      3  C   UNL     1       4.833   1.898 -22.047  0.00  0.00    +0.135 A 
ATOM      4  C   UNL     1       3.544   2.011 -22.167  0.00  0.00    +0.105 A 
ATOM      5  C   UNL     1       2.768   1.042 -21.777  0.00  0.00    +0.197 A 
ATOM      6  C   UNL     1       1.478   1.155 -21.898  0.00  0.00    +0.098 A 
ATOM      7  C   UNL     1       0.965   2.235 -22.408  0.00  0.00    +0.143 A 
ATOM      8  O   UNL     1       1.741   3.202 -22.797  0.00  0.00    -0.454 OA
ATOM      9  O   UNL     1       3.281  -0.038 -21.267  0.00  0.00    -0.287 OA
ATOM     10  C   UNL     1       3.031   3.090 -22.677  0.00  0.00    +0.146 A 
ATOM     11  C   UNL     1       3.807   4.057 -23.067  0.00  0.00    +0.092 A 
ENDROOT
BRANCH   7  12
ATOM     12  C   UNL     1      -0.324   2.348 -22.528  0.00  0.00    +0.059 A 
ATOM     13  C   UNL     1      -1.080   2.332 -21.471  0.00  0.00    +0.015 A 
ATOM     14  C   UNL     1      -2.369   2.445 -21.591  0.00  0.00    +0.001 A 
ATOM     15  C   UNL     1      -2.904   2.574 -22.770  0.00  0.00    +0.004 A 
ATOM     16  C   UNL     1      -2.148   2.590 -23.827  0.00  0.00    +0.046 A 
ATOM     17  C   UNL     1      -0.859   2.477 -23.707  0.00  0.00    +0.127 A 
BRANCH  17  18
ATOM     18  O   UNL     1      -0.103   2.493 -24.764  0.00  0.00    -0.506 OA
ATOM     19  H   UNL     1      -0.138   1.784 -25.376  0.00  0.00    +0.292 HD
ENDBRANCH  17  18
ENDBRANCH   7  12
BRANCH   1  21
ATOM     20  C   UNL     1       6.460   5.668 -22.458  0.00  0.00    +0.277 C 
ATOM     21  O   UNL     1       5.873   4.912 -23.337  0.00  0.00    -0.495 OA
ENDBRANCH   1  21
BRANCH   3  22
ATOM     22  O   UNL     1       5.347   0.818 -21.537  0.00  0.00    -0.506 OA
ATOM     23  H   UNL     1       5.657   0.819 -20.653  0.00  0.00    +0.292 HD
ENDBRANCH   3  22
TORSDOF 4
ENDMDL
MODEL 5
REMARK VINA RESULT:    -8.303      2.107      3.468
REMARK INTER + INTRA:         -10.555
REMARK INTER:                  -9.741
REMARK INTRA:                  -0.814
REMARK UNBOUND:                -0.796
REMARK  Name = ZINC000014807307
REMARK  5 active torsions:
REMARK  status: ('A' for Active; 'I' for Inactive)
REMARK    1  A    between atoms: C_1  and  O_2
REMARK    2  A    between atoms: O_2  and  C_3
REMARK    3  A    between atoms: C_5  and  O_6
REMARK    4  A    between atoms: C_11  and  C_12
REMARK    5  A    between atoms: C_17  and  O_18
REMARK                            x       y       z     vdW  Elec       q    Type
REMARK                         _______ _______ _______ _____ _____    ______ ____
ROOT
ATOM      1  C   UNL     1       4.007   5.264 -22.877  0.00  0.00    +0.127 A 
ATOM      2  C   UNL     1       4.617   4.168 -23.220  0.00  0.00    +0.092 A 
ATOM      3  C   UNL     1       3.941   3.178 -23.721  0.00  0.00    +0.135 A 
ATOM      4  C   UNL     1       2.655   3.283 -23.880  0.00  0.00    +0.105 A 
ATOM      5  C   UNL     1       1.979   2.292 -24.382  0.00  0.00    +0.197 A 
ATOM      6  C   UNL     1       0.693   2.397 -24.541  0.00  0.00    +0.098 A 
ATOM      7  C   UNL     1       0.083   3.493 -24.199  0.00  0.00    +0.143 A 
ATOM      8  O   UNL     1       0.759   4.483 -23.697  0.00  0.00    -0.454 OA
ATOM      9  O   UNL     1       2.589   1.196 -24.725  0.00  0.00    -0.287 OA
ATOM     10  C   UNL     1       2.045   4.379 -23.538  0.00  0.00    +0.146 A 
ATOM     11  C   UNL     1       2.721   5.369 -23.036  0.00  0.00    +0.092 A 
ENDROOT
BRANCH   7  12
ATOM     12  C   UNL     1      -1.202   3.598 -24.358  0.00  0.00    +0.059 A 
ATOM     13  C   UNL     1      -1.713   3.584 -25.553  0.00  0.00    +0.015 A 
ATOM     14  C   UNL     1      -2.999   3.690 -25.712  0.00  0.00    +0.001 A 
ATOM     15  C   UNL     1      -3.775   3.809 -24.675  0.00  0.00    +0.004 A 
ATOM     16  C   UNL     1      -3.264   3.822 -23.480  0.00  0.00    +0.046 A 
ATOM     17  C   UNL     1      -1.978   3.717 -23.321  0.00  0.00    +0.127 A 
BRANCH  17  18
ATOM     18  O   UNL     1      -1.468   3.731 -22.125  0.00  0.00    -0.506 OA
ATOM     19  H   UNL     1      -0.652   4.166 -21.969  0.00  0.00    +0.292 HD
ENDBRANCH  17  18
ENDBRANCH   7  12
BRANCH   1  21
ATOM     20  C   UNL     1       4.079   7.361 -22.059  0.00  0.00    +0.277 C 
ATOM     21  O   UNL     1       4.683   6.255 -22.375  0.00  0.00    -0.495 OA
ENDBRANCH   1  21
BRANCH   3  22
ATOM     22  O   UNL     1       4.551   2.082 -24.064  0.00  0.00    -0.506 OA
ATOM     23  H   UNL     1       5.389   2.123 -24.480  0.00  0.00    +0.292 HD
ENDBRANCH   3  22
TORSDOF 4
ENDMDL
MODEL 6
REMARK VINA RESULT:    -8.154      1.750      6.342
REMARK INTER + INTRA:         -10.380
REMARK INTER:                  -9.572
REMARK INTRA:                  -0.808
REMARK UNBOUND:                -0.796
REMARK  Name = ZINC000014807307
REMARK  5 active torsions:
REMARK  status: ('A' for Active; 'I' for Inactive)
REMARK    1  A    between atoms: C_1  and  O_2
REMARK    2  A    between atoms: O_2  and  C_3
REMARK    3  A    between atoms: C_5  and  O_6
REMARK    4  A    between atoms: C_11  and  C_12
REMARK    5  A    between atoms: C_17  and  O_18
REMARK                            x       y       z     vdW  Elec       q    Type
REMARK                         _______ _______ _______ _____ _____    ______ ____
ROOT
ATOM      1  C   UNL     1      -3.327   3.700 -25.317  0.00  0.00    +0.127 A 
ATOM      2  C   UNL     1      -4.125   3.656 -24.292  0.00  0.00    +0.092 A 
ATOM      3  C   UNL     1      -3.668   3.309 -23.127  0.00  0.00    +0.135 A 
ATOM      4  C   UNL     1      -2.412   3.005 -22.986  0.00  0.00    +0.105 A 
ATOM      5  C   UNL     1      -1.954   2.658 -21.818  0.00  0.00    +0.197 A 
ATOM      6  C   UNL     1      -0.698   2.354 -21.677  0.00  0.00    +0.098 A 
ATOM      7  C   UNL     1       0.100   2.398 -22.702  0.00  0.00    +0.143 A 
ATOM      8  O   UNL     1      -0.357   2.745 -23.868  0.00  0.00    -0.454 OA
ATOM      9  O   UNL     1      -2.753   2.614 -20.793  0.00  0.00    -0.287 OA
ATOM     10  C   UNL     1      -1.614   3.049 -24.010  0.00  0.00    +0.146 A 
ATOM     11  C   UNL     1      -2.071   3.397 -25.176  0.00  0.00    +0.092 A 
ENDROOT
BRANCH   7  12
ATOM     12  C   UNL     1       1.356   2.095 -22.561  0.00  0.00    +0.059 A 
ATOM     13  C   UNL     1       1.696   0.911 -22.145  0.00  0.00    +0.015 A 
ATOM     14  C   UNL     1       2.952   0.608 -22.004  0.00  0.00    +0.001 A 
ATOM     15  C   UNL     1       3.869   1.488 -22.279  0.00  0.00    +0.004 A 
ATOM     16  C   UNL     1       3.529   2.672 -22.696  0.00  0.00    +0.046 A 
ATOM     17  C   UNL     1       2.273   2.975 -22.837  0.00  0.00    +0.127 A 
BRANCH  17  18
ATOM     18  O   UNL     1       1.933   4.159 -23.253  0.00  0.00    -0.506 OA
ATOM     19  H   UNL     1       2.568   4.848 -23.276  0.00  0.00    +0.292 HD
ENDBRANCH  17  18
ENDBRANCH   7  12
BRANCH   1  21
ATOM     20  C   UNL     1      -3.357   3.449 -27.555  0.00  0.00    +0.277 C 
ATOM     21  O   UNL     1      -3.785   4.048 -26.484  0.00  0.00    -0.495 OA
ENDBRANCH   1  21
BRANCH   3  22
ATOM     22  O   UNL     1      -4.467   3.265 -22.102  0.00  0.00    -0.506 OA
ATOM     23  H   UNL     1      -4.188   3.609 -21.276  0.00  0.00    +0.292 HD
ENDBRANCH   3  22
TORSDOF 4
ENDMDL
MODEL 7
REMARK VINA RESULT:    -7.876      1.305      2.793
REMARK INTER + INTRA:         -10.053
REMARK INTER:                  -9.879
REMARK INTRA:                  -0.174
REMARK UNBOUND:                -0.796
REMARK  Name = ZINC000014807307
REMARK  5 active torsions:
REMARK  status: ('A' for Active; 'I' for Inactive)
REMARK    1  A    between atoms: C_1  and  O_2
REMARK    2  A    between atoms: O_2  and  C_3
REMARK    3  A    between atoms: C_5  and  O_6
REMARK    4  A    between atoms: C_11  and  C_12
REMARK    5  A    between atoms: C_17  and  O_18
REMARK                            x       y       z     vdW  Elec       q    Type
REMARK                         _______ _______ _______ _____ _____    ______ ____
ROOT
ATOM      1  C   UNL     1       2.760   4.530 -23.062  0.00  0.00    +0.127 A 
ATOM      2  C   UNL     1       3.157   3.339 -22.722  0.00  0.00    +0.092 A 
ATOM      3  C   UNL     1       2.288   2.386 -22.559  0.00  0.00    +0.135 A 
ATOM      4  C   UNL     1       1.023   2.624 -22.736  0.00  0.00    +0.105 A 
ATOM      5  C   UNL     1       0.153   1.671 -22.573  0.00  0.00    +0.197 A 
ATOM      6  C   UNL     1      -1.113   1.909 -22.749  0.00  0.00    +0.098 A 
ATOM      7  C   UNL     1      -1.509   3.099 -23.088  0.00  0.00    +0.143 A 
ATOM      8  O   UNL     1      -0.640   4.052 -23.251  0.00  0.00    -0.454 OA
ATOM      9  O   UNL     1       0.549   0.480 -22.233  0.00  0.00    -0.287 OA
ATOM     10  C   UNL     1       0.626   3.815 -23.075  0.00  0.00    +0.146 A 
ATOM     11  C   UNL     1       1.495   4.768 -23.238  0.00  0.00    +0.092 A 
ENDROOT
BRANCH   7  12
ATOM     12  C   UNL     1      -2.775   3.337 -23.265  0.00  0.00    +0.059 A 
ATOM     13  C   UNL     1      -3.228   3.594 -24.456  0.00  0.00    +0.015 A 
ATOM     14  C   UNL     1      -4.494   3.832 -24.632  0.00  0.00    +0.001 A 
ATOM     15  C   UNL     1      -5.307   3.813 -23.617  0.00  0.00    +0.004 A 
ATOM     16  C   UNL     1      -4.853   3.557 -22.426  0.00  0.00    +0.046 A 
ATOM     17  C   UNL     1      -3.588   3.319 -22.250  0.00  0.00    +0.127 A 
BRANCH  17  18
ATOM     18  O   UNL     1      -3.134   3.062 -21.059  0.00  0.00    -0.506 OA
ATOM     19  H   UNL     1      -3.264   2.214 -20.681  0.00  0.00    +0.292 HD
ENDBRANCH  17  18
ENDBRANCH   7  12
BRANCH   1  21
ATOM     20  C   UNL     1       3.540   6.572 -22.521  0.00  0.00    +0.277 C 
ATOM     21  O   UNL     1       3.630   5.483 -23.224  0.00  0.00    -0.495 OA
ENDBRANCH   1  21
BRANCH   3  22
ATOM     22  O   UNL     1       2.685   1.196 -22.220  0.00  0.00    -0.506 OA
ATOM     23  H   UNL     1       3.480   0.849 -22.573  0.00  0.00    +0.292 HD
ENDBRANCH   3  22
TORSDOF 4
ENDMDL
MODEL 8
REMARK VINA RESULT:    -7.713      2.431      6.956
REMARK INTER + INTRA:          -9.861
REMARK INTER:                  -9.059
REMARK INTRA:                  -0.802
REMARK UNBOUND:                -0.796
REMARK  Name = ZINC000014807307
REMARK  5 active torsions:
REMARK  status: ('A' for Active; 'I' for Inactive)
REMARK    1  A    between atoms: C_1  and  O_2
REMARK    2  A    between atoms: O_2  and  C_3
REMARK    3  A    between atoms: C_5  and  O_6
REMARK    4  A    between atoms: C_11  and  C_12
REMARK    5  A    between atoms: C_17  and  O_18
REMARK                            x       y       z     vdW  Elec       q    Type
REMARK                         _______ _______ _______ _____ _____    ______ ____
ROOT
ATOM      1  C   UNL     1      -0.759   3.316 -24.616  0.00  0.00    +0.127 A 
ATOM      2  C   UNL     1      -1.072   2.422 -23.726  0.00  0.00    +0.092 A 
ATOM      3  C   UNL     1      -0.171   1.989 -22.895  0.00  0.00    +0.135 A 
ATOM      4  C   UNL     1       1.043   2.450 -22.955  0.00  0.00    +0.105 A 
ATOM      5  C   UNL     1       1.944   2.016 -22.123  0.00  0.00    +0.197 A 
ATOM      6  C   UNL     1       3.158   2.477 -22.183  0.00  0.00    +0.098 A 
ATOM      7  C   UNL     1       3.471   3.371 -23.073  0.00  0.00    +0.143 A 
ATOM      8  O   UNL     1       2.570   3.805 -23.904  0.00  0.00    -0.454 OA
ATOM      9  O   UNL     1       1.631   1.122 -21.233  0.00  0.00    -0.287 OA
ATOM     10  C   UNL     1       1.355   3.344 -23.845  0.00  0.00    +0.146 A 
ATOM     11  C   UNL     1       0.455   3.777 -24.676  0.00  0.00    +0.092 A 
ENDROOT
BRANCH   7  12
ATOM     12  C   UNL     1       4.685   3.832 -23.133  0.00  0.00    +0.059 A 
ATOM     13  C   UNL     1       5.660   3.051 -23.490  0.00  0.00    +0.015 A 
ATOM     14  C   UNL     1       6.874   3.512 -23.550  0.00  0.00    +0.001 A 
ATOM     15  C   UNL     1       7.113   4.755 -23.252  0.00  0.00    +0.004 A 
ATOM     16  C   UNL     1       6.137   5.537 -22.895  0.00  0.00    +0.046 A 
ATOM     17  C   UNL     1       4.924   5.076 -22.835  0.00  0.00    +0.127 A 
BRANCH  17  18
ATOM     18  O   UNL     1       3.948   5.857 -22.478  0.00  0.00    -0.506 OA
ATOM     19  H   UNL     1       3.231   6.008 -23.063  0.00  0.00    +0.292 HD
ENDBRANCH  17  18
ENDBRANCH   7  12
BRANCH   1  21
ATOM     20  C   UNL     1      -2.829   3.181 -25.493  0.00  0.00    +0.277 C 
ATOM     21  O   UNL     1      -1.661   3.750 -25.447  0.00  0.00    -0.495 OA
ENDBRANCH   1  21
BRANCH   3  22
ATOM     22  O   UNL     1      -0.484   1.095 -22.005  0.00  0.00    -0.506 OA
ATOM     23  H   UNL     1      -0.629   1.351 -21.115  0.00  0.00    +0.292 HD
ENDBRANCH   3  22
TORSDOF 4
ENDMDL
MODEL 9
REMARK VINA RESULT:    -7.706      1.873      2.596
REMARK INTER + INTRA:          -9.853
REMARK INTER:                  -9.057
REMARK INTRA:                  -0.796
REMARK UNBOUND:                -0.796
REMARK  Name = ZINC000014807307
REMARK  5 active torsions:
REMARK  status: ('A' for Active; 'I' for Inactive)
REMARK    1  A    between atoms: C_1  and  O_2
REMARK    2  A    between atoms: O_2  and  C_3
REMARK    3  A    between atoms: C_5  and  O_6
REMARK    4  A    between atoms: C_11  and  C_12
REMARK    5  A    between atoms: C_17  and  O_18
REMARK                            x       y       z     vdW  Elec       q    Type
REMARK                         _______ _______ _______ _____ _____    ______ ____
ROOT
ATOM      1  C   UNL     1       4.734   2.342 -22.624  0.00  0.00    +0.127 A 
ATOM      2  C   UNL     1       5.134   3.577 -22.549  0.00  0.00    +0.092 A 
ATOM      3  C   UNL     1       4.304   4.545 -22.803  0.00  0.00    +0.135 A 
ATOM      4  C   UNL     1       3.075   4.278 -23.131  0.00  0.00    +0.105 A 
ATOM      5  C   UNL     1       2.245   5.247 -23.384  0.00  0.00    +0.197 A 
ATOM      6  C   UNL     1       1.016   4.979 -23.712  0.00  0.00    +0.098 A 
ATOM      7  C   UNL     1       0.616   3.745 -23.786  0.00  0.00    +0.143 A 
ATOM      8  O   UNL     1       1.446   2.777 -23.533  0.00  0.00    -0.454 OA
ATOM      9  O   UNL     1       2.644   6.481 -23.310  0.00  0.00    -0.287 OA
ATOM     10  C   UNL     1       2.676   3.043 -23.205  0.00  0.00    +0.146 A 
ATOM     11  C   UNL     1       3.505   2.075 -22.952  0.00  0.00    +0.092 A 
ENDROOT
BRANCH   7  12
ATOM     12  C   UNL     1      -0.613   3.477 -24.114  0.00  0.00    +0.059 A 
ATOM     13  C   UNL     1      -1.014   3.660 -25.337  0.00  0.00    +0.015 A 
ATOM     14  C   UNL     1      -2.243   3.392 -25.665  0.00  0.00    +0.001 A 
ATOM     15  C   UNL     1      -3.072   2.943 -24.770  0.00  0.00    +0.004 A 
ATOM     16  C   UNL     1      -2.671   2.761 -23.547  0.00  0.00    +0.046 A 
ATOM     17  C   UNL     1      -1.442   3.028 -23.219  0.00  0.00    +0.127 A 
BRANCH  17  18
ATOM     18  O   UNL     1      -1.041   2.846 -21.996  0.00  0.00    -0.506 OA
ATOM     19  H   UNL     1      -0.143   2.637 -21.823  0.00  0.00    +0.292 HD
ENDBRANCH  17  18
ENDBRANCH   7  12
BRANCH   1  21
ATOM     20  C   UNL     1       5.220   0.417 -21.561  0.00  0.00    +0.277 C 
ATOM     21  O   UNL     1       5.565   1.374 -22.370  0.00  0.00    -0.495 OA
ENDBRANCH   1  21
BRANCH   3  22
ATOM     22  O   UNL     1       4.704   5.780 -22.728  0.00  0.00    -0.506 OA
ATOM     23  H   UNL     1       4.825   6.183 -21.891  0.00  0.00    +0.292 HD
ENDBRANCH   3  22
TORSDOF 4
ENDMDL
