MODEL 1
REMARK VINA RESULT:    -7.665      0.000      0.000
REMARK INTER + INTRA:         -11.075
REMARK INTER:                 -10.720
REMARK INTRA:                  -0.356
REMARK UNBOUND:                -0.498
REMARK  Name = ZINC000000338233
REMARK  11 active torsions:
REMARK  status: ('A' for Active; 'I' for Inactive)
REMARK    1  A    between atoms: C_1  and  O_2
REMARK    2  A    between atoms: O_2  and  C_3
REMARK    3  A    between atoms: C_5  and  O_6
REMARK    4  A    between atoms: O_6  and  C_7
REMARK    5  A    between atoms: C_15  and  C_16
REMARK    6  A    between atoms: C_16  and  C_17
REMARK    7  A    between atoms: C_17  and  O_18
REMARK    8  A    between atoms: C_17  and  C_19
REMARK    9  A    between atoms: C_19  and  C_20
REMARK   10  A    between atoms: C_19  and  C_21
REMARK   11  A    between atoms: C_19  and  O_22
REMARK                            x       y       z     vdW  Elec       q    Type
REMARK                         _______ _______ _______ _____ _____    ______ ____
ROOT
ATOM      1  C   UNL     1      -0.664   3.210 -24.523  0.00  0.00    +0.130 A 
ATOM      2  C   UNL     1      -1.710   3.446 -25.261  0.00  0.00    +0.092 A 
ATOM      3  C   UNL     1      -2.869   3.631 -24.704  0.00  0.00    +0.134 A 
ATOM      4  C   UNL     1      -2.986   3.582 -23.411  0.00  0.00    +0.060 A 
ATOM      5  C   UNL     1      -4.146   3.767 -22.856  0.00  0.00    +0.022 A 
ATOM      6  C   UNL     1      -4.262   3.718 -21.561  0.00  0.00    +0.093 A 
ATOM      7  C   UNL     1      -3.218   3.483 -20.823  0.00  0.00    +0.337 A 
ATOM      8  O   UNL     1      -2.057   3.297 -21.380  0.00  0.00    -0.422 OA
ATOM      9  O   UNL     1      -3.334   3.433 -19.530  0.00  0.00    -0.245 OA
ATOM     10  C   UNL     1      -1.941   3.346 -22.673  0.00  0.00    +0.149 A 
ATOM     11  C   UNL     1      -0.781   3.161 -23.229  0.00  0.00    +0.040 A 
ENDROOT
BRANCH   3  12
ATOM     12  O   UNL     1      -3.913   3.866 -25.442  0.00  0.00    -0.494 OA
ATOM     13  C   UNL     1      -4.305   2.986 -26.315  0.00  0.00    +0.277 C 
ENDBRANCH   3  12
BRANCH   1  15
ATOM     14  C   UNL     1       1.161   4.038 -25.549  0.00  0.00    +0.277 C 
ATOM     15  O   UNL     1       0.496   3.025 -25.079  0.00  0.00    -0.495 OA
ENDBRANCH   1  15
BRANCH  11  16
ATOM     16  C   UNL     1       0.264   2.926 -22.491  0.00  0.00    +0.076 C 
BRANCH  16  17
ATOM     17  C   UNL     1       0.606   1.702 -22.222  0.00  0.00    +0.150 C 
BRANCH  17  18
ATOM     18  C   UNL     1       1.864   1.383 -22.139  0.00  0.00    +0.087 C 
ATOM     19  C   UNL     1       2.505   1.552 -21.021  0.00  0.00    +0.043 C 
ATOM     20  C   UNL     1       2.947   0.916 -22.688  0.00  0.00    +0.043 C 
BRANCH  18  21
ATOM     21  O   UNL     1       1.850   1.003 -23.382  0.00  0.00    -0.387 OA
ATOM     22  H   UNL     1       1.098   0.409 -23.531  0.00  0.00    +0.210 HD
ENDBRANCH  18  21
ENDBRANCH  17  18
BRANCH  17  23
ATOM     23  O   UNL     1      -0.307   0.796 -22.037  0.00  0.00    -0.389 OA
ATOM     24  H   UNL     1      -0.666   0.878 -21.139  0.00  0.00    +0.210 HD
ENDBRANCH  17  23
ENDBRANCH  16  17
ENDBRANCH  11  16
TORSDOF 7
ENDMDL
MODEL 2
REMARK VINA RESULT:    -7.665      1.673      3.975
REMARK INTER + INTRA:         -11.075
REMARK INTER:                 -10.860
REMARK INTRA:                  -0.215
REMARK UNBOUND:                -0.498
REMARK  Name = ZINC000000338233
REMARK  11 active torsions:
REMARK  status: ('A' for Active; 'I' for Inactive)
REMARK    1  A    between atoms: C_1  and  O_2
REMARK    2  A    between atoms: O_2  and  C_3
REMARK    3  A    between atoms: C_5  and  O_6
REMARK    4  A    between atoms: O_6  and  C_7
REMARK    5  A    between atoms: C_15  and  C_16
REMARK    6  A    between atoms: C_16  and  C_17
REMARK    7  A    between atoms: C_17  and  O_18
REMARK    8  A    between atoms: C_17  and  C_19
REMARK    9  A    between atoms: C_19  and  C_20
REMARK   10  A    between atoms: C_19  and  C_21
REMARK   11  A    between atoms: C_19  and  O_22
REMARK                            x       y       z     vdW  Elec       q    Type
REMARK                         _______ _______ _______ _____ _____    ______ ____
ROOT
ATOM      1  C   UNL     1      -1.029   2.832 -22.468  0.00  0.00    +0.130 A 
ATOM      2  C   UNL     1      -2.146   3.051 -21.838  0.00  0.00    +0.092 A 
ATOM      3  C   UNL     1      -3.226   3.323 -22.506  0.00  0.00    +0.134 A 
ATOM      4  C   UNL     1      -3.193   3.376 -23.804  0.00  0.00    +0.060 A 
ATOM      5  C   UNL     1      -4.274   3.649 -24.472  0.00  0.00    +0.022 A 
ATOM      6  C   UNL     1      -4.240   3.702 -25.771  0.00  0.00    +0.093 A 
ATOM      7  C   UNL     1      -3.124   3.482 -26.402  0.00  0.00    +0.337 A 
ATOM      8  O   UNL     1      -2.043   3.210 -25.733  0.00  0.00    -0.422 OA
ATOM      9  O   UNL     1      -3.090   3.535 -27.700  0.00  0.00    -0.245 OA
ATOM     10  C   UNL     1      -2.076   3.157 -24.435  0.00  0.00    +0.149 A 
ATOM     11  C   UNL     1      -0.995   2.885 -23.767  0.00  0.00    +0.040 A 
ENDROOT
BRANCH   3  12
ATOM     12  O   UNL     1      -4.342   3.543 -21.876  0.00  0.00    -0.494 OA
ATOM     13  C   UNL     1      -4.844   2.626 -21.103  0.00  0.00    +0.277 C 
ENDBRANCH   3  12
BRANCH   1  15
ATOM     14  C   UNL     1       0.104   1.499 -21.050  0.00  0.00    +0.277 C 
ATOM     15  O   UNL     1       0.052   2.560 -21.800  0.00  0.00    -0.495 OA
ENDBRANCH   1  15
BRANCH  11  16
ATOM     16  C   UNL     1       0.121   2.665 -24.398  0.00  0.00    +0.076 C 
BRANCH  16  17
ATOM     17  C   UNL     1       0.823   3.665 -24.840  0.00  0.00    +0.150 C 
BRANCH  17  18
ATOM     18  C   UNL     1       1.713   4.223 -24.074  0.00  0.00    +0.087 C 
ATOM     19  C   UNL     1       2.751   3.546 -23.683  0.00  0.00    +0.043 C 
ATOM     20  C   UNL     1       2.141   5.259 -23.415  0.00  0.00    +0.043 C 
BRANCH  18  21
ATOM     21  O   UNL     1       1.028   5.328 -24.084  0.00  0.00    -0.387 OA
ATOM     22  H   UNL     1       1.634   6.084 -24.084  0.00  0.00    +0.210 HD
ENDBRANCH  18  21
ENDBRANCH  17  18
BRANCH  17  23
ATOM     23  O   UNL     1       0.637   4.106 -26.049  0.00  0.00    -0.389 OA
ATOM     24  H   UNL     1       0.907   3.426 -26.686  0.00  0.00    +0.210 HD
ENDBRANCH  17  23
ENDBRANCH  16  17
ENDBRANCH  11  16
TORSDOF 7
ENDMDL
MODEL 3
REMARK VINA RESULT:    -7.310      1.703      4.765
REMARK INTER + INTRA:         -10.586
REMARK INTER:                 -10.722
REMARK INTRA:                   0.135
REMARK UNBOUND:                -0.498
REMARK  Name = ZINC000000338233
REMARK  11 active torsions:
REMARK  status: ('A' for Active; 'I' for Inactive)
REMARK    1  A    between atoms: C_1  and  O_2
REMARK    2  A    between atoms: O_2  and  C_3
REMARK    3  A    between atoms: C_5  and  O_6
REMARK    4  A    between atoms: O_6  and  C_7
REMARK    5  A    between atoms: C_15  and  C_16
REMARK    6  A    between atoms: C_16  and  C_17
REMARK    7  A    between atoms: C_17  and  O_18
REMARK    8  A    between atoms: C_17  and  C_19
REMARK    9  A    between atoms: C_19  and  C_20
REMARK   10  A    between atoms: C_19  and  C_21
REMARK   11  A    between atoms: C_19  and  O_22
REMARK                            x       y       z     vdW  Elec       q    Type
REMARK                         _______ _______ _______ _____ _____    ______ ____
ROOT
ATOM      1  C   UNL     1      -0.865   3.830 -23.626  0.00  0.00    +0.130 A 
ATOM      2  C   UNL     1      -0.354   2.963 -22.801  0.00  0.00    +0.092 A 
ATOM      3  C   UNL     1      -1.118   2.348 -21.949  0.00  0.00    +0.134 A 
ATOM      4  C   UNL     1      -2.393   2.598 -21.920  0.00  0.00    +0.060 A 
ATOM      5  C   UNL     1      -3.157   1.982 -21.067  0.00  0.00    +0.022 A 
ATOM      6  C   UNL     1      -4.433   2.232 -21.038  0.00  0.00    +0.093 A 
ATOM      7  C   UNL     1      -4.944   3.099 -21.861  0.00  0.00    +0.337 A 
ATOM      8  O   UNL     1      -4.179   3.715 -22.714  0.00  0.00    -0.422 OA
ATOM      9  O   UNL     1      -6.219   3.349 -21.833  0.00  0.00    -0.245 OA
ATOM     10  C   UNL     1      -2.905   3.465 -22.744  0.00  0.00    +0.149 A 
ATOM     11  C   UNL     1      -2.141   4.081 -23.596  0.00  0.00    +0.040 A 
ENDROOT
BRANCH   3  12
ATOM     12  O   UNL     1      -0.607   1.482 -21.126  0.00  0.00    -0.494 OA
ATOM     13  C   UNL     1       0.675   1.469 -20.907  0.00  0.00    +0.277 C 
ENDBRANCH   3  12
BRANCH   1  15
ATOM     14  C   UNL     1       0.780   3.779 -25.162  0.00  0.00    +0.277 C 
ATOM     15  O   UNL     1      -0.101   4.446 -24.478  0.00  0.00    -0.495 OA
ENDBRANCH   1  15
BRANCH  11  16
ATOM     16  C   UNL     1      -2.652   4.947 -24.420  0.00  0.00    +0.076 C 
BRANCH  16  17
ATOM     17  C   UNL     1      -3.727   4.652 -25.088  0.00  0.00    +0.150 C 
BRANCH  17  18
ATOM     18  C   UNL     1      -3.692   3.721 -25.995  0.00  0.00    +0.087 C 
ATOM     19  C   UNL     1      -2.639   3.581 -26.744  0.00  0.00    +0.043 C 
ATOM     20  C   UNL     1      -4.260   2.726 -26.610  0.00  0.00    +0.043 C 
BRANCH  18  21
ATOM     21  O   UNL     1      -4.889   3.344 -25.654  0.00  0.00    -0.387 OA
ATOM     22  H   UNL     1      -5.451   4.124 -25.531  0.00  0.00    +0.210 HD
ENDBRANCH  18  21
ENDBRANCH  17  18
BRANCH  17  23
ATOM     23  O   UNL     1      -4.836   5.286 -24.850  0.00  0.00    -0.389 OA
ATOM     24  H   UNL     1      -4.950   5.993 -25.505  0.00  0.00    +0.210 HD
ENDBRANCH  17  23
ENDBRANCH  16  17
ENDBRANCH  11  16
TORSDOF 7
ENDMDL
MODEL 4
REMARK VINA RESULT:    -7.134      1.304      5.982
REMARK INTER + INTRA:         -10.343
REMARK INTER:                 -10.374
REMARK INTRA:                   0.031
REMARK UNBOUND:                -0.498
REMARK  Name = ZINC000000338233
REMARK  11 active torsions:
REMARK  status: ('A' for Active; 'I' for Inactive)
REMARK    1  A    between atoms: C_1  and  O_2
REMARK    2  A    between atoms: O_2  and  C_3
REMARK    3  A    between atoms: C_5  and  O_6
REMARK    4  A    between atoms: O_6  and  C_7
REMARK    5  A    between atoms: C_15  and  C_16
REMARK    6  A    between atoms: C_16  and  C_17
REMARK    7  A    between atoms: C_17  and  O_18
REMARK    8  A    between atoms: C_17  and  C_19
REMARK    9  A    between atoms: C_19  and  C_20
REMARK   10  A    between atoms: C_19  and  C_21
REMARK   11  A    between atoms: C_19  and  O_22
REMARK                            x       y       z     vdW  Elec       q    Type
REMARK                         _______ _______ _______ _____ _____    ______ ____
ROOT
ATOM      1  C   UNL     1      -1.576   2.501 -21.772  0.00  0.00    +0.130 A 
ATOM      2  C   UNL     1      -0.603   1.813 -21.249  0.00  0.00    +0.092 A 
ATOM      3  C   UNL     1       0.553   1.771 -21.840  0.00  0.00    +0.134 A 
ATOM      4  C   UNL     1       0.739   2.415 -22.954  0.00  0.00    +0.060 A 
ATOM      5  C   UNL     1       1.896   2.372 -23.544  0.00  0.00    +0.022 A 
ATOM      6  C   UNL     1       2.081   3.016 -24.659  0.00  0.00    +0.093 A 
ATOM      7  C   UNL     1       1.109   3.703 -25.181  0.00  0.00    +0.337 A 
ATOM      8  O   UNL     1      -0.048   3.746 -24.590  0.00  0.00    -0.422 OA
ATOM      9  O   UNL     1       1.294   4.348 -26.295  0.00  0.00    -0.245 OA
ATOM     10  C   UNL     1      -0.234   3.102 -23.477  0.00  0.00    +0.149 A 
ATOM     11  C   UNL     1      -1.391   3.145 -22.886  0.00  0.00    +0.040 A 
ENDROOT
BRANCH   3  12
ATOM     12  O   UNL     1       1.525   1.084 -21.318  0.00  0.00    -0.494 OA
ATOM     13  C   UNL     1       2.079   1.479 -20.210  0.00  0.00    +0.277 C 
ENDBRANCH   3  12
BRANCH   1  15
ATOM     14  C   UNL     1      -2.943   3.398 -20.224  0.00  0.00    +0.277 C 
ATOM     15  O   UNL     1      -2.733   2.544 -21.181  0.00  0.00    -0.495 OA
ENDBRANCH   1  15
BRANCH  11  16
ATOM     16  C   UNL     1      -2.362   3.833 -23.409  0.00  0.00    +0.076 C 
BRANCH  16  17
ATOM     17  C   UNL     1      -3.152   3.281 -24.281  0.00  0.00    +0.150 C 
BRANCH  17  18
ATOM     18  C   UNL     1      -4.397   3.647 -24.353  0.00  0.00    +0.087 C 
ATOM     19  C   UNL     1      -5.120   3.711 -23.274  0.00  0.00    +0.043 C 
ATOM     20  C   UNL     1      -5.418   4.034 -25.059  0.00  0.00    +0.043 C 
BRANCH  18  21
ATOM     21  O   UNL     1      -4.282   3.785 -25.640  0.00  0.00    -0.387 OA
ATOM     22  H   UNL     1      -3.751   4.573 -25.835  0.00  0.00    +0.210 HD
ENDBRANCH  18  21
ENDBRANCH  17  18
BRANCH  17  23
ATOM     23  O   UNL     1      -2.697   2.363 -25.080  0.00  0.00    -0.389 OA
ATOM     24  H   UNL     1      -1.746   2.245 -24.930  0.00  0.00    +0.210 HD
ENDBRANCH  17  23
ENDBRANCH  16  17
ENDBRANCH  11  16
TORSDOF 7
ENDMDL
MODEL 5
REMARK VINA RESULT:    -7.117      1.603      3.540
REMARK INTER + INTRA:         -10.319
REMARK INTER:                 -10.041
REMARK INTRA:                  -0.278
REMARK UNBOUND:                -0.498
REMARK  Name = ZINC000000338233
REMARK  11 active torsions:
REMARK  status: ('A' for Active; 'I' for Inactive)
REMARK    1  A    between atoms: C_1  and  O_2
REMARK    2  A    between atoms: O_2  and  C_3
REMARK    3  A    between atoms: C_5  and  O_6
REMARK    4  A    between atoms: O_6  and  C_7
REMARK    5  A    between atoms: C_15  and  C_16
REMARK    6  A    between atoms: C_16  and  C_17
REMARK    7  A    between atoms: C_17  and  O_18
REMARK    8  A    between atoms: C_17  and  C_19
REMARK    9  A    between atoms: C_19  and  C_20
REMARK   10  A    between atoms: C_19  and  C_21
REMARK   11  A    between atoms: C_19  and  O_22
REMARK                            x       y       z     vdW  Elec       q    Type
REMARK                         _______ _______ _______ _____ _____    ______ ____
ROOT
ATOM      1  C   UNL     1      -1.740   3.278 -24.796  0.00  0.00    +0.130 A 
ATOM      2  C   UNL     1      -2.766   3.351 -24.000  0.00  0.00    +0.092 A 
ATOM      3  C   UNL     1      -2.661   2.954 -22.767  0.00  0.00    +0.134 A 
ATOM      4  C   UNL     1      -1.532   2.484 -22.328  0.00  0.00    +0.060 A 
ATOM      5  C   UNL     1      -1.428   2.087 -21.095  0.00  0.00    +0.022 A 
ATOM      6  C   UNL     1      -0.298   1.616 -20.657  0.00  0.00    +0.093 A 
ATOM      7  C   UNL     1       0.728   1.543 -21.452  0.00  0.00    +0.337 A 
ATOM      8  O   UNL     1       0.624   1.940 -22.686  0.00  0.00    -0.422 OA
ATOM      9  O   UNL     1       1.858   1.072 -21.014  0.00  0.00    -0.245 OA
ATOM     10  C   UNL     1      -0.505   2.410 -23.124  0.00  0.00    +0.149 A 
ATOM     11  C   UNL     1      -0.609   2.807 -24.358  0.00  0.00    +0.040 A 
ENDROOT
BRANCH   3  12
ATOM     12  O   UNL     1      -3.687   3.028 -21.972  0.00  0.00    -0.494 OA
ATOM     13  C   UNL     1      -4.861   3.315 -22.449  0.00  0.00    +0.277 C 
ENDBRANCH   3  12
BRANCH   1  15
ATOM     14  C   UNL     1      -2.956   3.496 -26.678  0.00  0.00    +0.277 C 
ATOM     15  O   UNL     1      -1.844   3.675 -26.029  0.00  0.00    -0.495 OA
ENDBRANCH   1  15
BRANCH  11  16
ATOM     16  C   UNL     1       0.416   2.733 -25.153  0.00  0.00    +0.076 C 
BRANCH  16  17
ATOM     17  C   UNL     1       1.189   3.766 -25.313  0.00  0.00    +0.150 C 
BRANCH  17  18
ATOM     18  C   UNL     1       2.020   4.107 -24.374  0.00  0.00    +0.087 C 
ATOM     19  C   UNL     1       1.822   5.197 -23.694  0.00  0.00    +0.043 C 
ATOM     20  C   UNL     1       3.096   3.872 -23.682  0.00  0.00    +0.043 C 
BRANCH  18  21
ATOM     21  O   UNL     1       2.730   3.045 -24.617  0.00  0.00    -0.387 OA
ATOM     22  H   UNL     1       2.736   2.473 -23.835  0.00  0.00    +0.210 HD
ENDBRANCH  18  21
ENDBRANCH  17  18
BRANCH  17  23
ATOM     23  O   UNL     1       1.130   4.458 -26.412  0.00  0.00    -0.389 OA
ATOM     24  H   UNL     1       1.969   4.374 -26.892  0.00  0.00    +0.210 HD
ENDBRANCH  17  23
ENDBRANCH  16  17
ENDBRANCH  11  16
TORSDOF 7
ENDMDL
MODEL 6
REMARK VINA RESULT:    -7.067      1.532      3.953
REMARK INTER + INTRA:         -10.250
REMARK INTER:                  -9.678
REMARK INTRA:                  -0.572
REMARK UNBOUND:                -0.498
REMARK  Name = ZINC000000338233
REMARK  11 active torsions:
REMARK  status: ('A' for Active; 'I' for Inactive)
REMARK    1  A    between atoms: C_1  and  O_2
REMARK    2  A    between atoms: O_2  and  C_3
REMARK    3  A    between atoms: C_5  and  O_6
REMARK    4  A    between atoms: O_6  and  C_7
REMARK    5  A    between atoms: C_15  and  C_16
REMARK    6  A    between atoms: C_16  and  C_17
REMARK    7  A    between atoms: C_17  and  O_18
REMARK    8  A    between atoms: C_17  and  C_19
REMARK    9  A    between atoms: C_19  and  C_20
REMARK   10  A    between atoms: C_19  and  C_21
REMARK   11  A    between atoms: C_19  and  O_22
REMARK                            x       y       z     vdW  Elec       q    Type
REMARK                         _______ _______ _______ _____ _____    ______ ____
ROOT
ATOM      1  C   UNL     1      -3.031   3.727 -21.724  0.00  0.00    +0.130 A 
ATOM      2  C   UNL     1      -4.325   3.595 -21.683  0.00  0.00    +0.092 A 
ATOM      3  C   UNL     1      -5.002   3.492 -22.787  0.00  0.00    +0.134 A 
ATOM      4  C   UNL     1      -4.389   3.520 -23.932  0.00  0.00    +0.060 A 
ATOM      5  C   UNL     1      -5.068   3.417 -25.036  0.00  0.00    +0.022 A 
ATOM      6  C   UNL     1      -4.454   3.445 -26.182  0.00  0.00    +0.093 A 
ATOM      7  C   UNL     1      -3.161   3.576 -26.223  0.00  0.00    +0.337 A 
ATOM      8  O   UNL     1      -2.482   3.679 -25.119  0.00  0.00    -0.422 OA
ATOM      9  O   UNL     1      -2.547   3.604 -27.369  0.00  0.00    -0.245 OA
ATOM     10  C   UNL     1      -3.096   3.651 -23.974  0.00  0.00    +0.149 A 
ATOM     11  C   UNL     1      -2.417   3.755 -22.870  0.00  0.00    +0.040 A 
ENDROOT
BRANCH   3  12
ATOM     12  O   UNL     1      -6.295   3.361 -22.745  0.00  0.00    -0.494 OA
ATOM     13  C   UNL     1      -6.849   2.668 -21.795  0.00  0.00    +0.277 C 
ENDBRANCH   3  12
BRANCH   1  15
ATOM     14  C   UNL     1      -2.958   3.732 -19.474  0.00  0.00    +0.277 C 
ATOM     15  O   UNL     1      -2.353   3.830 -20.620  0.00  0.00    -0.495 OA
ENDBRANCH   1  15
BRANCH  11  16
ATOM     16  C   UNL     1      -1.124   3.886 -22.911  0.00  0.00    +0.076 C 
BRANCH  16  17
ATOM     17  C   UNL     1      -0.368   2.834 -23.010  0.00  0.00    +0.150 C 
BRANCH  17  18
ATOM     18  C   UNL     1       0.726   2.884 -23.712  0.00  0.00    +0.087 C 
ATOM     19  C   UNL     1       1.787   3.452 -23.221  0.00  0.00    +0.043 C 
ATOM     20  C   UNL     1       1.376   2.613 -24.805  0.00  0.00    +0.043 C 
BRANCH  18  21
ATOM     21  O   UNL     1       0.131   2.256 -24.683  0.00  0.00    -0.387 OA
ATOM     22  H   UNL     1       0.433   2.615 -25.532  0.00  0.00    +0.210 HD
ENDBRANCH  18  21
ENDBRANCH  17  18
BRANCH  17  23
ATOM     23  O   UNL     1      -0.704   1.732 -22.409  0.00  0.00    -0.389 OA
ATOM     24  H   UNL     1       0.073   1.157 -22.330  0.00  0.00    +0.210 HD
ENDBRANCH  17  23
ENDBRANCH  16  17
ENDBRANCH  11  16
TORSDOF 7
ENDMDL
MODEL 7
REMARK VINA RESULT:    -6.986      3.143      5.448
REMARK INTER + INTRA:         -10.139
REMARK INTER:                  -9.688
REMARK INTRA:                  -0.451
REMARK UNBOUND:                -0.498
REMARK  Name = ZINC000000338233
REMARK  11 active torsions:
REMARK  status: ('A' for Active; 'I' for Inactive)
REMARK    1  A    between atoms: C_1  and  O_2
REMARK    2  A    between atoms: O_2  and  C_3
REMARK    3  A    between atoms: C_5  and  O_6
REMARK    4  A    between atoms: O_6  and  C_7
REMARK    5  A    between atoms: C_15  and  C_16
REMARK    6  A    between atoms: C_16  and  C_17
REMARK    7  A    between atoms: C_17  and  O_18
REMARK    8  A    between atoms: C_17  and  C_19
REMARK    9  A    between atoms: C_19  and  C_20
REMARK   10  A    between atoms: C_19  and  C_21
REMARK   11  A    between atoms: C_19  and  O_22
REMARK                            x       y       z     vdW  Elec       q    Type
REMARK                         _______ _______ _______ _____ _____    ______ ____
ROOT
ATOM      1  C   UNL     1       4.824   3.780 -23.253  0.00  0.00    +0.130 A 
ATOM      2  C   UNL     1       4.651   5.020 -22.901  0.00  0.00    +0.092 A 
ATOM      3  C   UNL     1       3.457   5.534 -22.896  0.00  0.00    +0.134 A 
ATOM      4  C   UNL     1       2.436   4.810 -23.244  0.00  0.00    +0.060 A 
ATOM      5  C   UNL     1       1.242   5.324 -23.239  0.00  0.00    +0.022 A 
ATOM      6  C   UNL     1       0.220   4.599 -23.587  0.00  0.00    +0.093 A 
ATOM      7  C   UNL     1       0.392   3.360 -23.939  0.00  0.00    +0.337 A 
ATOM      8  O   UNL     1       1.587   2.846 -23.944  0.00  0.00    -0.422 OA
ATOM      9  O   UNL     1      -0.629   2.635 -24.287  0.00  0.00    -0.245 OA
ATOM     10  C   UNL     1       2.608   3.570 -23.596  0.00  0.00    +0.149 A 
ATOM     11  C   UNL     1       3.802   3.055 -23.601  0.00  0.00    +0.040 A 
ENDROOT
BRANCH   3  12
ATOM     12  O   UNL     1       3.285   6.773 -22.544  0.00  0.00    -0.494 OA
ATOM     13  C   UNL     1       4.285   7.463 -22.080  0.00  0.00    +0.277 C 
ENDBRANCH   3  12
BRANCH   1  15
ATOM     14  C   UNL     1       6.835   3.512 -22.278  0.00  0.00    +0.277 C 
ATOM     15  O   UNL     1       6.017   3.266 -23.258  0.00  0.00    -0.495 OA
ENDBRANCH   1  15
BRANCH  11  16
ATOM     16  C   UNL     1       3.974   1.816 -23.953  0.00  0.00    +0.076 C 
BRANCH  16  17
ATOM     17  C   UNL     1       3.546   0.858 -23.187  0.00  0.00    +0.150 C 
BRANCH  17  18
ATOM     18  C   UNL     1       4.032   0.718 -21.990  0.00  0.00    +0.087 C 
ATOM     19  C   UNL     1       3.269   0.899 -20.953  0.00  0.00    +0.043 C 
ATOM     20  C   UNL     1       5.034   0.451 -21.205  0.00  0.00    +0.043 C 
BRANCH  18  21
ATOM     21  O   UNL     1       5.194   0.427 -22.495  0.00  0.00    -0.387 OA
ATOM     22  H   UNL     1       5.890   0.846 -21.968  0.00  0.00    +0.210 HD
ENDBRANCH  18  21
ENDBRANCH  17  18
BRANCH  17  23
ATOM     23  O   UNL     1       2.633   0.039 -23.618  0.00  0.00    -0.389 OA
ATOM     24  H   UNL     1       2.074   0.492 -24.269  0.00  0.00    +0.210 HD
ENDBRANCH  17  23
ENDBRANCH  16  17
ENDBRANCH  11  16
TORSDOF 7
ENDMDL
MODEL 8
REMARK VINA RESULT:    -6.779      1.474      5.188
REMARK INTER + INTRA:          -9.853
REMARK INTER:                  -9.604
REMARK INTRA:                  -0.249
REMARK UNBOUND:                -0.498
REMARK  Name = ZINC000000338233
REMARK  11 active torsions:
REMARK  status: ('A' for Active; 'I' for Inactive)
REMARK    1  A    between atoms: C_1  and  O_2
REMARK    2  A    between atoms: O_2  and  C_3
REMARK    3  A    between atoms: C_5  and  O_6
REMARK    4  A    between atoms: O_6  and  C_7
REMARK    5  A    between atoms: C_15  and  C_16
REMARK    6  A    between atoms: C_16  and  C_17
REMARK    7  A    between atoms: C_17  and  O_18
REMARK    8  A    between atoms: C_17  and  C_19
REMARK    9  A    between atoms: C_19  and  C_20
REMARK   10  A    between atoms: C_19  and  C_21
REMARK   11  A    between atoms: C_19  and  O_22
REMARK                            x       y       z     vdW  Elec       q    Type
REMARK                         _______ _______ _______ _____ _____    ______ ____
ROOT
ATOM      1  C   UNL     1       0.397   1.966 -21.829  0.00  0.00    +0.130 A 
ATOM      2  C   UNL     1       1.485   2.182 -22.508  0.00  0.00    +0.092 A 
ATOM      3  C   UNL     1       1.415   2.672 -23.709  0.00  0.00    +0.134 A 
ATOM      4  C   UNL     1       0.258   2.948 -24.233  0.00  0.00    +0.060 A 
ATOM      5  C   UNL     1       0.188   3.438 -25.434  0.00  0.00    +0.022 A 
ATOM      6  C   UNL     1      -0.970   3.714 -25.958  0.00  0.00    +0.093 A 
ATOM      7  C   UNL     1      -2.058   3.499 -25.280  0.00  0.00    +0.337 A 
ATOM      8  O   UNL     1      -1.988   3.008 -24.078  0.00  0.00    -0.422 OA
ATOM      9  O   UNL     1      -3.215   3.774 -25.803  0.00  0.00    -0.245 OA
ATOM     10  C   UNL     1      -0.831   2.732 -23.554  0.00  0.00    +0.149 A 
ATOM     11  C   UNL     1      -0.761   2.242 -22.353  0.00  0.00    +0.040 A 
ENDROOT
BRANCH   3  12
ATOM     12  O   UNL     1       2.503   2.888 -24.388  0.00  0.00    -0.494 OA
ATOM     13  C   UNL     1       3.493   2.049 -24.313  0.00  0.00    +0.277 C 
ENDBRANCH   3  12
BRANCH   1  15
ATOM     14  C   UNL     1       1.596   1.492 -19.983  0.00  0.00    +0.277 C 
ATOM     15  O   UNL     1       0.467   1.476 -20.627  0.00  0.00    -0.495 OA
ENDBRANCH   1  15
BRANCH  11  16
ATOM     16  C   UNL     1      -1.849   2.027 -21.674  0.00  0.00    +0.076 C 
BRANCH  16  17
ATOM     17  C   UNL     1      -2.666   3.007 -21.430  0.00  0.00    +0.150 C 
BRANCH  17  18
ATOM     18  C   UNL     1      -3.949   2.798 -21.432  0.00  0.00    +0.087 C 
ATOM     19  C   UNL     1      -4.463   1.900 -20.646  0.00  0.00    +0.043 C 
ATOM     20  C   UNL     1      -5.135   3.077 -21.888  0.00  0.00    +0.043 C 
BRANCH  18  21
ATOM     21  O   UNL     1      -4.097   3.716 -22.341  0.00  0.00    -0.387 OA
ATOM     22  H   UNL     1      -4.362   4.548 -21.921  0.00  0.00    +0.210 HD
ENDBRANCH  18  21
ENDBRANCH  17  18
BRANCH  17  23
ATOM     23  O   UNL     1      -2.201   4.195 -21.183  0.00  0.00    -0.389 OA
ATOM     24  H   UNL     1      -2.898   4.739 -20.784  0.00  0.00    +0.210 HD
ENDBRANCH  17  23
ENDBRANCH  16  17
ENDBRANCH  11  16
TORSDOF 7
ENDMDL
MODEL 9
REMARK VINA RESULT:    -6.754      2.239      4.440
REMARK INTER + INTRA:          -9.819
REMARK INTER:                  -9.321
REMARK INTRA:                  -0.498
REMARK UNBOUND:                -0.498
REMARK  Name = ZINC000000338233
REMARK  11 active torsions:
REMARK  status: ('A' for Active; 'I' for Inactive)
REMARK    1  A    between atoms: C_1  and  O_2
REMARK    2  A    between atoms: O_2  and  C_3
REMARK    3  A    between atoms: C_5  and  O_6
REMARK    4  A    between atoms: O_6  and  C_7
REMARK    5  A    between atoms: C_15  and  C_16
REMARK    6  A    between atoms: C_16  and  C_17
REMARK    7  A    between atoms: C_17  and  O_18
REMARK    8  A    between atoms: C_17  and  C_19
REMARK    9  A    between atoms: C_19  and  C_20
REMARK   10  A    between atoms: C_19  and  C_21
REMARK   11  A    between atoms: C_19  and  O_22
REMARK                            x       y       z     vdW  Elec       q    Type
REMARK                         _______ _______ _______ _____ _____    ______ ____
ROOT
ATOM      1  C   UNL     1       0.116   1.871 -22.530  0.00  0.00    +0.130 A 
ATOM      2  C   UNL     1      -0.626   2.701 -23.203  0.00  0.00    +0.092 A 
ATOM      3  C   UNL     1      -0.128   3.826 -23.620  0.00  0.00    +0.134 A 
ATOM      4  C   UNL     1       1.111   4.124 -23.366  0.00  0.00    +0.060 A 
ATOM      5  C   UNL     1       1.608   5.249 -23.784  0.00  0.00    +0.022 A 
ATOM      6  C   UNL     1       2.849   5.546 -23.530  0.00  0.00    +0.093 A 
ATOM      7  C   UNL     1       3.591   4.717 -22.858  0.00  0.00    +0.337 A 
ATOM      8  O   UNL     1       3.093   3.591 -22.440  0.00  0.00    -0.422 OA
ATOM      9  O   UNL     1       4.831   5.014 -22.604  0.00  0.00    -0.245 OA
ATOM     10  C   UNL     1       1.854   3.294 -22.694  0.00  0.00    +0.149 A 
ATOM     11  C   UNL     1       1.357   2.168 -22.276  0.00  0.00    +0.040 A 
ENDROOT
BRANCH   3  12
ATOM     12  O   UNL     1      -0.870   4.655 -24.292  0.00  0.00    -0.494 OA
ATOM     13  C   UNL     1      -2.165   4.597 -24.193  0.00  0.00    +0.277 C 
ENDBRANCH   3  12
BRANCH   1  15
ATOM     14  C   UNL     1      -1.441   0.743 -21.359  0.00  0.00    +0.277 C 
ATOM     15  O   UNL     1      -0.381   0.745 -22.112  0.00  0.00    -0.495 OA
ENDBRANCH   1  15
BRANCH  11  16
ATOM     16  C   UNL     1       2.099   1.339 -21.604  0.00  0.00    +0.076 C 
BRANCH  16  17
ATOM     17  C   UNL     1       2.948   0.577 -22.226  0.00  0.00    +0.150 C 
BRANCH  17  18
ATOM     18  C   UNL     1       4.208   0.615 -21.908  0.00  0.00    +0.087 C 
ATOM     19  C   UNL     1       4.585   0.297 -20.706  0.00  0.00    +0.043 C 
ATOM     20  C   UNL     1       5.446   0.841 -22.236  0.00  0.00    +0.043 C 
BRANCH  18  21
ATOM     21  O   UNL     1       4.501   1.003 -23.114  0.00  0.00    -0.387 OA
ATOM     22  H   UNL     1       5.015   1.824 -23.073  0.00  0.00    +0.210 HD
ENDBRANCH  18  21
ENDBRANCH  17  18
BRANCH  17  23
ATOM     23  O   UNL     1       2.538  -0.222 -23.166  0.00  0.00    -0.389 OA
ATOM     24  H   UNL     1       2.727  -1.140 -22.915  0.00  0.00    +0.210 HD
ENDBRANCH  17  23
ENDBRANCH  16  17
ENDBRANCH  11  16
TORSDOF 7
ENDMDL
