MODEL 1
REMARK VINA RESULT:    -9.385      0.000      0.000
REMARK INTER + INTRA:         -11.331
REMARK INTER:                 -10.958
REMARK INTRA:                  -0.374
REMARK UNBOUND:                -0.575
REMARK  Name = ZINC000001627642
REMARK  5 active torsions:
REMARK  status: ('A' for Active; 'I' for Inactive)
REMARK    1  A    between atoms: C_1  and  O_2
REMARK    2  A    between atoms: O_2  and  C_3
REMARK    3  A    between atoms: C_7  and  O_8
REMARK    4  A    between atoms: C_9  and  C_10
REMARK    5  A    between atoms: C_14  and  C_15
REMARK                            x       y       z     vdW  Elec       q    Type
REMARK                         _______ _______ _______ _____ _____    ______ ____
ROOT
ATOM      1  C   UNL     1       2.625   1.400 -22.277  0.00  0.00    +0.130 A 
ATOM      2  C   UNL     1       1.349   1.319 -22.043  0.00  0.00    +0.092 A 
ATOM      3  C   UNL     1       0.560   2.288 -22.399  0.00  0.00    +0.139 A 
ATOM      4  C   UNL     1       1.046   3.339 -22.989  0.00  0.00    +0.101 A 
ATOM      5  C   UNL     1       0.256   4.309 -23.345  0.00  0.00    +0.174 C 
ATOM      6  C   UNL     1      -1.019   4.228 -23.111  0.00  0.00    +0.129 C 
ATOM      7  C   UNL     1      -1.506   3.177 -22.520  0.00  0.00    +0.211 C 
ATOM      8  O   UNL     1       0.744   5.360 -23.936  0.00  0.00    -0.292 OA
ATOM      9  C   UNL     1       2.322   3.421 -23.224  0.00  0.00    +0.137 A 
ATOM     10  O   UNL     1      -0.717   2.207 -22.164  0.00  0.00    -0.483 OA
ATOM     11  C   UNL     1       3.111   2.451 -22.868  0.00  0.00    +0.033 A 
ATOM     12  C   UNL     1       4.388   2.533 -23.102  0.00  0.00    +0.051 C 
ENDROOT
BRANCH   7  13
ATOM     13  C   UNL     1      -2.782   3.094 -22.285  0.00  0.00    -0.007 A 
ATOM     14  C   UNL     1      -3.206   2.539 -21.188  0.00  0.00    +0.007 A 
ATOM     15  C   UNL     1      -4.482   2.456 -20.953  0.00  0.00    +0.000 A 
ATOM     16  C   UNL     1      -5.334   2.928 -21.814  0.00  0.00    +0.000 A 
ATOM     17  C   UNL     1      -4.910   3.484 -22.910  0.00  0.00    +0.000 A 
ATOM     18  C   UNL     1      -3.634   3.567 -23.146  0.00  0.00    +0.007 A 
ENDBRANCH   7  13
BRANCH   1  20
ATOM     19  C   UNL     1       3.788   0.318 -20.681  0.00  0.00    +0.277 C 
ATOM     20  O   UNL     1       3.415   0.431 -21.921  0.00  0.00    -0.495 OA
ENDBRANCH   1  20
BRANCH   9  21
ATOM     21  O   UNL     1       2.809   4.472 -23.814  0.00  0.00    -0.506 OA
ATOM     22  H   UNL     1       3.185   4.397 -24.669  0.00  0.00    +0.292 HD
ENDBRANCH   9  21
TORSDOF 3
ENDMDL
MODEL 2
REMARK VINA RESULT:    -8.844      1.713      3.097
REMARK INTER + INTRA:         -10.712
REMARK INTER:                 -10.317
REMARK INTRA:                  -0.394
REMARK UNBOUND:                -0.575
REMARK  Name = ZINC000001627642
REMARK  5 active torsions:
REMARK  status: ('A' for Active; 'I' for Inactive)
REMARK    1  A    between atoms: C_1  and  O_2
REMARK    2  A    between atoms: O_2  and  C_3
REMARK    3  A    between atoms: C_7  and  O_8
REMARK    4  A    between atoms: C_9  and  C_10
REMARK    5  A    between atoms: C_14  and  C_15
REMARK                            x       y       z     vdW  Elec       q    Type
REMARK                         _______ _______ _______ _____ _____    ______ ____
ROOT
ATOM      1  C   UNL     1       3.768   2.952 -22.958  0.00  0.00    +0.130 A 
ATOM      2  C   UNL     1       2.695   3.278 -23.614  0.00  0.00    +0.092 A 
ATOM      3  C   UNL     1       1.530   2.885 -23.192  0.00  0.00    +0.139 A 
ATOM      4  C   UNL     1       1.439   2.165 -22.113  0.00  0.00    +0.101 A 
ATOM      5  C   UNL     1       0.273   1.771 -21.691  0.00  0.00    +0.174 C 
ATOM      6  C   UNL     1      -0.800   2.098 -22.347  0.00  0.00    +0.129 C 
ATOM      7  C   UNL     1      -0.709   2.818 -23.425  0.00  0.00    +0.211 C 
ATOM      8  O   UNL     1       0.183   1.051 -20.612  0.00  0.00    -0.292 OA
ATOM      9  C   UNL     1       2.512   1.838 -21.457  0.00  0.00    +0.137 A 
ATOM     10  O   UNL     1       0.456   3.211 -23.848  0.00  0.00    -0.483 OA
ATOM     11  C   UNL     1       3.677   2.231 -21.880  0.00  0.00    +0.033 A 
ATOM     12  C   UNL     1       4.751   1.905 -21.224  0.00  0.00    +0.051 C 
ENDROOT
BRANCH   7  13
ATOM     13  C   UNL     1      -1.782   3.145 -24.082  0.00  0.00    -0.007 A 
ATOM     14  C   UNL     1      -2.901   3.332 -23.446  0.00  0.00    +0.007 A 
ATOM     15  C   UNL     1      -3.975   3.659 -24.102  0.00  0.00    +0.000 A 
ATOM     16  C   UNL     1      -3.930   3.799 -25.394  0.00  0.00    +0.000 A 
ATOM     17  C   UNL     1      -2.812   3.613 -26.029  0.00  0.00    +0.000 A 
ATOM     18  C   UNL     1      -1.737   3.285 -25.374  0.00  0.00    +0.007 A 
ENDBRANCH   7  13
BRANCH   1  20
ATOM     19  C   UNL     1       5.317   4.571 -23.182  0.00  0.00    +0.277 C 
ATOM     20  O   UNL     1       4.933   3.345 -23.381  0.00  0.00    -0.495 OA
ENDBRANCH   1  20
BRANCH   9  21
ATOM     21  O   UNL     1       2.421   1.118 -20.379  0.00  0.00    -0.506 OA
ATOM     22  H   UNL     1       2.089   0.243 -20.426  0.00  0.00    +0.292 HD
ENDBRANCH   9  21
TORSDOF 3
ENDMDL
MODEL 3
REMARK VINA RESULT:    -8.789      2.125      6.520
REMARK INTER + INTRA:         -10.648
REMARK INTER:                 -10.063
REMARK INTRA:                  -0.585
REMARK UNBOUND:                -0.575
REMARK  Name = ZINC000001627642
REMARK  5 active torsions:
REMARK  status: ('A' for Active; 'I' for Inactive)
REMARK    1  A    between atoms: C_1  and  O_2
REMARK    2  A    between atoms: O_2  and  C_3
REMARK    3  A    between atoms: C_7  and  O_8
REMARK    4  A    between atoms: C_9  and  C_10
REMARK    5  A    between atoms: C_14  and  C_15
REMARK                            x       y       z     vdW  Elec       q    Type
REMARK                         _______ _______ _______ _____ _____    ______ ____
ROOT
ATOM      1  C   UNL     1      -3.194   3.686 -25.158  0.00  0.00    +0.130 A 
ATOM      2  C   UNL     1      -1.963   3.287 -25.039  0.00  0.00    +0.092 A 
ATOM      3  C   UNL     1      -1.508   2.922 -23.877  0.00  0.00    +0.139 A 
ATOM      4  C   UNL     1      -2.284   2.957 -22.835  0.00  0.00    +0.101 A 
ATOM      5  C   UNL     1      -1.828   2.592 -21.673  0.00  0.00    +0.174 C 
ATOM      6  C   UNL     1      -0.597   2.192 -21.554  0.00  0.00    +0.129 C 
ATOM      7  C   UNL     1       0.179   2.157 -22.596  0.00  0.00    +0.211 C 
ATOM      8  O   UNL     1      -2.605   2.627 -20.631  0.00  0.00    -0.292 OA
ATOM      9  C   UNL     1      -3.515   3.357 -22.954  0.00  0.00    +0.137 A 
ATOM     10  O   UNL     1      -0.277   2.522 -23.758  0.00  0.00    -0.483 OA
ATOM     11  C   UNL     1      -3.970   3.721 -24.115  0.00  0.00    +0.033 A 
ATOM     12  C   UNL     1      -5.202   4.121 -24.235  0.00  0.00    +0.051 C 
ENDROOT
BRANCH   7  13
ATOM     13  C   UNL     1       1.410   1.758 -22.478  0.00  0.00    -0.007 A 
ATOM     14  C   UNL     1       2.173   1.683 -23.529  0.00  0.00    +0.007 A 
ATOM     15  C   UNL     1       3.404   1.284 -23.412  0.00  0.00    +0.000 A 
ATOM     16  C   UNL     1       3.873   0.958 -22.244  0.00  0.00    +0.000 A 
ATOM     17  C   UNL     1       3.112   1.032 -21.193  0.00  0.00    +0.000 A 
ATOM     18  C   UNL     1       1.879   1.432 -21.310  0.00  0.00    +0.007 A 
ENDBRANCH   7  13
BRANCH   1  20
ATOM     19  C   UNL     1      -3.312   3.392 -27.387  0.00  0.00    +0.277 C 
ATOM     20  O   UNL     1      -3.650   4.051 -26.320  0.00  0.00    -0.495 OA
ENDBRANCH   1  20
BRANCH   9  21
ATOM     21  O   UNL     1      -4.291   3.391 -21.911  0.00  0.00    -0.506 OA
ATOM     22  H   UNL     1      -5.208   3.228 -22.004  0.00  0.00    +0.292 HD
ENDBRANCH   9  21
TORSDOF 3
ENDMDL
MODEL 4
REMARK VINA RESULT:    -8.689      1.367      2.861
REMARK INTER + INTRA:         -10.534
REMARK INTER:                  -9.980
REMARK INTRA:                  -0.554
REMARK UNBOUND:                -0.575
REMARK  Name = ZINC000001627642
REMARK  5 active torsions:
REMARK  status: ('A' for Active; 'I' for Inactive)
REMARK    1  A    between atoms: C_1  and  O_2
REMARK    2  A    between atoms: O_2  and  C_3
REMARK    3  A    between atoms: C_7  and  O_8
REMARK    4  A    between atoms: C_9  and  C_10
REMARK    5  A    between atoms: C_14  and  C_15
REMARK                            x       y       z     vdW  Elec       q    Type
REMARK                         _______ _______ _______ _____ _____    ______ ____
ROOT
ATOM      1  C   UNL     1       2.852   4.418 -23.000  0.00  0.00    +0.130 A 
ATOM      2  C   UNL     1       1.596   4.692 -23.189  0.00  0.00    +0.092 A 
ATOM      3  C   UNL     1       0.697   3.766 -23.026  0.00  0.00    +0.139 A 
ATOM      4  C   UNL     1       1.055   2.567 -22.674  0.00  0.00    +0.101 A 
ATOM      5  C   UNL     1       0.156   1.642 -22.511  0.00  0.00    +0.174 C 
ATOM      6  C   UNL     1      -1.100   1.916 -22.700  0.00  0.00    +0.129 C 
ATOM      7  C   UNL     1      -1.458   3.115 -23.052  0.00  0.00    +0.211 C 
ATOM      8  O   UNL     1       0.515   0.443 -22.159  0.00  0.00    -0.292 OA
ATOM      9  C   UNL     1       2.312   2.293 -22.485  0.00  0.00    +0.137 A 
ATOM     10  O   UNL     1      -0.560   4.040 -23.215  0.00  0.00    -0.483 OA
ATOM     11  C   UNL     1       3.210   3.219 -22.647  0.00  0.00    +0.033 A 
ATOM     12  C   UNL     1       4.467   2.945 -22.458  0.00  0.00    +0.051 C 
ENDROOT
BRANCH   7  13
ATOM     13  C   UNL     1      -2.715   3.390 -23.242  0.00  0.00    -0.007 A 
ATOM     14  C   UNL     1      -3.586   3.119 -22.315  0.00  0.00    +0.007 A 
ATOM     15  C   UNL     1      -4.842   3.394 -22.503  0.00  0.00    +0.000 A 
ATOM     16  C   UNL     1      -5.228   3.938 -23.619  0.00  0.00    +0.000 A 
ATOM     17  C   UNL     1      -4.358   4.209 -24.545  0.00  0.00    +0.000 A 
ATOM     18  C   UNL     1      -3.101   3.935 -24.357  0.00  0.00    +0.007 A 
ENDBRANCH   7  13
BRANCH   1  20
ATOM     19  C   UNL     1       3.614   6.493 -22.573  0.00  0.00    +0.277 C 
ATOM     20  O   UNL     1       3.751   5.343 -23.162  0.00  0.00    -0.495 OA
ENDBRANCH   1  20
BRANCH   9  21
ATOM     21  O   UNL     1       2.670   1.094 -22.133  0.00  0.00    -0.506 OA
ATOM     22  H   UNL     1       3.184   0.967 -21.360  0.00  0.00    +0.292 HD
ENDBRANCH   9  21
TORSDOF 3
ENDMDL
MODEL 5
REMARK VINA RESULT:    -8.563      1.687      6.134
REMARK INTER + INTRA:         -10.389
REMARK INTER:                  -9.813
REMARK INTRA:                  -0.577
REMARK UNBOUND:                -0.575
REMARK  Name = ZINC000001627642
REMARK  5 active torsions:
REMARK  status: ('A' for Active; 'I' for Inactive)
REMARK    1  A    between atoms: C_1  and  O_2
REMARK    2  A    between atoms: O_2  and  C_3
REMARK    3  A    between atoms: C_7  and  O_8
REMARK    4  A    between atoms: C_9  and  C_10
REMARK    5  A    between atoms: C_14  and  C_15
REMARK                            x       y       z     vdW  Elec       q    Type
REMARK                         _______ _______ _______ _____ _____    ______ ____
ROOT
ATOM      1  C   UNL     1      -2.351   2.843 -22.849  0.00  0.00    +0.130 A 
ATOM      2  C   UNL     1      -1.286   2.496 -22.190  0.00  0.00    +0.092 A 
ATOM      3  C   UNL     1      -0.131   2.476 -22.786  0.00  0.00    +0.139 A 
ATOM      4  C   UNL     1      -0.041   2.804 -24.041  0.00  0.00    +0.101 A 
ATOM      5  C   UNL     1       1.114   2.785 -24.637  0.00  0.00    +0.174 C 
ATOM      6  C   UNL     1       2.180   2.438 -23.979  0.00  0.00    +0.129 C 
ATOM      7  C   UNL     1       2.090   2.110 -22.724  0.00  0.00    +0.211 C 
ATOM      8  O   UNL     1       1.203   3.113 -25.892  0.00  0.00    -0.292 OA
ATOM      9  C   UNL     1      -1.107   3.151 -24.700  0.00  0.00    +0.137 A 
ATOM     10  O   UNL     1       0.936   2.129 -22.128  0.00  0.00    -0.483 OA
ATOM     11  C   UNL     1      -2.261   3.171 -24.103  0.00  0.00    +0.033 A 
ATOM     12  C   UNL     1      -3.328   3.518 -24.762  0.00  0.00    +0.051 C 
ENDROOT
BRANCH   7  13
ATOM     13  C   UNL     1       3.156   1.762 -22.065  0.00  0.00    -0.007 A 
ATOM     14  C   UNL     1       4.196   2.542 -22.054  0.00  0.00    +0.007 A 
ATOM     15  C   UNL     1       5.262   2.196 -21.395  0.00  0.00    +0.000 A 
ATOM     16  C   UNL     1       5.287   1.070 -20.746  0.00  0.00    +0.000 A 
ATOM     17  C   UNL     1       4.247   0.290 -20.756  0.00  0.00    +0.000 A 
ATOM     18  C   UNL     1       3.181   0.636 -21.416  0.00  0.00    +0.007 A 
ENDBRANCH   7  13
BRANCH   1  20
ATOM     19  C   UNL     1      -3.578   3.123 -20.981  0.00  0.00    +0.277 C 
ATOM     20  O   UNL     1      -3.507   2.862 -22.252  0.00  0.00    -0.495 OA
ENDBRANCH   1  20
BRANCH   9  21
ATOM     21  O   UNL     1      -1.017   3.479 -25.955  0.00  0.00    -0.506 OA
ATOM     22  H   UNL     1      -0.825   4.364 -26.195  0.00  0.00    +0.292 HD
ENDBRANCH   9  21
TORSDOF 3
ENDMDL
MODEL 6
REMARK VINA RESULT:    -8.246      1.290      2.114
REMARK INTER + INTRA:         -10.026
REMARK INTER:                  -9.474
REMARK INTRA:                  -0.552
REMARK UNBOUND:                -0.575
REMARK  Name = ZINC000001627642
REMARK  5 active torsions:
REMARK  status: ('A' for Active; 'I' for Inactive)
REMARK    1  A    between atoms: C_1  and  O_2
REMARK    2  A    between atoms: O_2  and  C_3
REMARK    3  A    between atoms: C_7  and  O_8
REMARK    4  A    between atoms: C_9  and  C_10
REMARK    5  A    between atoms: C_14  and  C_15
REMARK                            x       y       z     vdW  Elec       q    Type
REMARK                         _______ _______ _______ _____ _____    ______ ____
ROOT
ATOM      1  C   UNL     1       4.385   1.870 -22.354  0.00  0.00    +0.130 A 
ATOM      2  C   UNL     1       3.095   1.713 -22.351  0.00  0.00    +0.092 A 
ATOM      3  C   UNL     1       2.318   2.711 -22.653  0.00  0.00    +0.139 A 
ATOM      4  C   UNL     1       2.832   3.865 -22.957  0.00  0.00    +0.101 A 
ATOM      5  C   UNL     1       2.055   4.864 -23.259  0.00  0.00    +0.174 C 
ATOM      6  C   UNL     1       0.765   4.707 -23.256  0.00  0.00    +0.129 C 
ATOM      7  C   UNL     1       0.251   3.552 -22.951  0.00  0.00    +0.211 C 
ATOM      8  O   UNL     1       2.570   6.018 -23.563  0.00  0.00    -0.292 OA
ATOM      9  C   UNL     1       4.122   4.022 -22.960  0.00  0.00    +0.137 A 
ATOM     10  O   UNL     1       1.027   2.554 -22.650  0.00  0.00    -0.483 OA
ATOM     11  C   UNL     1       4.899   3.024 -22.659  0.00  0.00    +0.033 A 
ATOM     12  C   UNL     1       6.190   3.181 -22.662  0.00  0.00    +0.051 C 
ENDROOT
BRANCH   7  13
ATOM     13  C   UNL     1      -1.040   3.395 -22.948  0.00  0.00    -0.007 A 
ATOM     14  C   UNL     1      -1.709   3.491 -24.059  0.00  0.00    +0.007 A 
ATOM     15  C   UNL     1      -2.999   3.333 -24.056  0.00  0.00    +0.000 A 
ATOM     16  C   UNL     1      -3.621   3.080 -22.943  0.00  0.00    +0.000 A 
ATOM     17  C   UNL     1      -2.952   2.984 -21.832  0.00  0.00    +0.000 A 
ATOM     18  C   UNL     1      -1.661   3.141 -21.834  0.00  0.00    +0.007 A 
ENDBRANCH   7  13
BRANCH   1  20
ATOM     19  C   UNL     1       4.919   0.154 -20.996  0.00  0.00    +0.277 C 
ATOM     20  O   UNL     1       5.162   0.871 -22.053  0.00  0.00    -0.495 OA
ENDBRANCH   1  20
BRANCH   9  21
ATOM     21  O   UNL     1       4.636   5.177 -23.265  0.00  0.00    -0.506 OA
ATOM     22  H   UNL     1       5.505   5.390 -22.988  0.00  0.00    +0.292 HD
ENDBRANCH   9  21
TORSDOF 3
ENDMDL
MODEL 7
REMARK VINA RESULT:    -7.815      1.619      6.640
REMARK INTER + INTRA:          -9.532
REMARK INTER:                  -9.093
REMARK INTRA:                  -0.439
REMARK UNBOUND:                -0.575
REMARK  Name = ZINC000001627642
REMARK  5 active torsions:
REMARK  status: ('A' for Active; 'I' for Inactive)
REMARK    1  A    between atoms: C_1  and  O_2
REMARK    2  A    between atoms: O_2  and  C_3
REMARK    3  A    between atoms: C_7  and  O_8
REMARK    4  A    between atoms: C_9  and  C_10
REMARK    5  A    between atoms: C_14  and  C_15
REMARK                            x       y       z     vdW  Elec       q    Type
REMARK                         _______ _______ _______ _____ _____    ______ ____
ROOT
ATOM      1  C   UNL     1      -2.616   4.042 -23.701  0.00  0.00    +0.130 A 
ATOM      2  C   UNL     1      -1.350   4.212 -23.941  0.00  0.00    +0.092 A 
ATOM      3  C   UNL     1      -0.466   3.516 -23.291  0.00  0.00    +0.139 A 
ATOM      4  C   UNL     1      -0.848   2.650 -22.400  0.00  0.00    +0.101 A 
ATOM      5  C   UNL     1       0.037   1.954 -21.749  0.00  0.00    +0.174 C 
ATOM      6  C   UNL     1       1.303   2.124 -21.989  0.00  0.00    +0.129 C 
ATOM      7  C   UNL     1       1.684   2.990 -22.880  0.00  0.00    +0.211 C 
ATOM      8  O   UNL     1      -0.346   1.088 -20.858  0.00  0.00    -0.292 OA
ATOM      9  C   UNL     1      -2.114   2.480 -22.159  0.00  0.00    +0.137 A 
ATOM     10  O   UNL     1       0.800   3.686 -23.531  0.00  0.00    -0.483 OA
ATOM     11  C   UNL     1      -2.998   3.176 -22.810  0.00  0.00    +0.033 A 
ATOM     12  C   UNL     1      -4.265   3.006 -22.570  0.00  0.00    +0.051 C 
ENDROOT
BRANCH   7  13
ATOM     13  C   UNL     1       2.951   3.161 -23.120  0.00  0.00    -0.007 A 
ATOM     14  C   UNL     1       3.687   2.149 -23.474  0.00  0.00    +0.007 A 
ATOM     15  C   UNL     1       4.953   2.319 -23.714  0.00  0.00    +0.000 A 
ATOM     16  C   UNL     1       5.483   3.501 -23.603  0.00  0.00    +0.000 A 
ATOM     17  C   UNL     1       4.747   4.513 -23.250  0.00  0.00    +0.000 A 
ATOM     18  C   UNL     1       3.481   4.343 -23.009  0.00  0.00    +0.007 A 
ENDBRANCH   7  13
BRANCH   1  20
ATOM     19  C   UNL     1      -3.719   4.499 -25.611  0.00  0.00    +0.277 C 
ATOM     20  O   UNL     1      -3.501   4.738 -24.352  0.00  0.00    -0.495 OA
ENDBRANCH   1  20
BRANCH   9  21
ATOM     21  O   UNL     1      -2.496   1.614 -21.269  0.00  0.00    -0.506 OA
ATOM     22  H   UNL     1      -1.967   0.861 -21.090  0.00  0.00    +0.292 HD
ENDBRANCH   9  21
TORSDOF 3
ENDMDL
MODEL 8
REMARK VINA RESULT:    -7.759      1.776      3.433
REMARK INTER + INTRA:          -9.468
REMARK INTER:                  -8.889
REMARK INTRA:                  -0.579
REMARK UNBOUND:                -0.575
REMARK  Name = ZINC000001627642
REMARK  5 active torsions:
REMARK  status: ('A' for Active; 'I' for Inactive)
REMARK    1  A    between atoms: C_1  and  O_2
REMARK    2  A    between atoms: O_2  and  C_3
REMARK    3  A    between atoms: C_7  and  O_8
REMARK    4  A    between atoms: C_9  and  C_10
REMARK    5  A    between atoms: C_14  and  C_15
REMARK                            x       y       z     vdW  Elec       q    Type
REMARK                         _______ _______ _______ _____ _____    ______ ____
ROOT
ATOM      1  C   UNL     1       4.569   4.860 -23.017  0.00  0.00    +0.130 A 
ATOM      2  C   UNL     1       3.285   5.059 -23.037  0.00  0.00    +0.092 A 
ATOM      3  C   UNL     1       2.475   4.056 -23.203  0.00  0.00    +0.139 A 
ATOM      4  C   UNL     1       2.949   2.854 -23.348  0.00  0.00    +0.101 A 
ATOM      5  C   UNL     1       2.138   1.851 -23.514  0.00  0.00    +0.174 C 
ATOM      6  C   UNL     1       0.854   2.050 -23.534  0.00  0.00    +0.129 C 
ATOM      7  C   UNL     1       0.380   3.252 -23.388  0.00  0.00    +0.211 C 
ATOM      8  O   UNL     1       2.613   0.650 -23.659  0.00  0.00    -0.292 OA
ATOM      9  C   UNL     1       4.233   2.655 -23.328  0.00  0.00    +0.137 A 
ATOM     10  O   UNL     1       1.190   4.255 -23.223  0.00  0.00    -0.483 OA
ATOM     11  C   UNL     1       5.043   3.658 -23.162  0.00  0.00    +0.033 A 
ATOM     12  C   UNL     1       6.328   3.459 -23.142  0.00  0.00    +0.051 C 
ENDROOT
BRANCH   7  13
ATOM     13  C   UNL     1      -0.905   3.452 -23.408  0.00  0.00    -0.007 A 
ATOM     14  C   UNL     1      -1.691   2.698 -22.697  0.00  0.00    +0.007 A 
ATOM     15  C   UNL     1      -2.975   2.897 -22.717  0.00  0.00    +0.000 A 
ATOM     16  C   UNL     1      -3.474   3.850 -23.447  0.00  0.00    +0.000 A 
ATOM     17  C   UNL     1      -2.689   4.603 -24.158  0.00  0.00    +0.000 A 
ATOM     18  C   UNL     1      -1.404   4.405 -24.139  0.00  0.00    +0.007 A 
ENDBRANCH   7  13
BRANCH   1  20
ATOM     19  C   UNL     1       5.040   6.855 -22.084  0.00  0.00    +0.277 C 
ATOM     20  O   UNL     1       5.381   5.863 -22.851  0.00  0.00    -0.495 OA
ENDBRANCH   1  20
BRANCH   9  21
ATOM     21  O   UNL     1       4.707   1.453 -23.474  0.00  0.00    -0.506 OA
ATOM     22  H   UNL     1       5.621   1.291 -23.344  0.00  0.00    +0.292 HD
ENDBRANCH   9  21
TORSDOF 3
ENDMDL
MODEL 9
REMARK VINA RESULT:    -7.640      2.705      4.383
REMARK INTER + INTRA:          -9.331
REMARK INTER:                  -8.756
REMARK INTRA:                  -0.575
REMARK UNBOUND:                -0.575
REMARK  Name = ZINC000001627642
REMARK  5 active torsions:
REMARK  status: ('A' for Active; 'I' for Inactive)
REMARK    1  A    between atoms: C_1  and  O_2
REMARK    2  A    between atoms: O_2  and  C_3
REMARK    3  A    between atoms: C_7  and  O_8
REMARK    4  A    between atoms: C_9  and  C_10
REMARK    5  A    between atoms: C_14  and  C_15
REMARK                            x       y       z     vdW  Elec       q    Type
REMARK                         _______ _______ _______ _____ _____    ______ ____
ROOT
ATOM      1  C   UNL     1       4.744   6.443 -22.257  0.00  0.00    +0.130 A 
ATOM      2  C   UNL     1       3.472   6.369 -22.513  0.00  0.00    +0.092 A 
ATOM      3  C   UNL     1       2.975   5.285 -23.029  0.00  0.00    +0.139 A 
ATOM      4  C   UNL     1       3.750   4.274 -23.289  0.00  0.00    +0.101 A 
ATOM      5  C   UNL     1       3.252   3.189 -23.805  0.00  0.00    +0.174 C 
ATOM      6  C   UNL     1       1.979   3.115 -24.060  0.00  0.00    +0.129 C 
ATOM      7  C   UNL     1       1.204   4.126 -23.800  0.00  0.00    +0.211 C 
ATOM      8  O   UNL     1       4.027   2.179 -24.064  0.00  0.00    -0.292 OA
ATOM      9  C   UNL     1       5.022   4.348 -23.033  0.00  0.00    +0.137 A 
ATOM     10  O   UNL     1       1.702   5.211 -23.285  0.00  0.00    -0.483 OA
ATOM     11  C   UNL     1       5.519   5.432 -22.517  0.00  0.00    +0.033 A 
ATOM     12  C   UNL     1       6.792   5.506 -22.261  0.00  0.00    +0.051 C 
ENDROOT
BRANCH   7  13
ATOM     13  C   UNL     1      -0.068   4.053 -24.056  0.00  0.00    -0.007 A 
ATOM     14  C   UNL     1      -0.934   4.395 -23.147  0.00  0.00    +0.007 A 
ATOM     15  C   UNL     1      -2.206   4.322 -23.402  0.00  0.00    +0.000 A 
ATOM     16  C   UNL     1      -2.614   3.908 -24.564  0.00  0.00    +0.000 A 
ATOM     17  C   UNL     1      -1.749   3.567 -25.473  0.00  0.00    +0.000 A 
ATOM     18  C   UNL     1      -0.476   3.639 -25.219  0.00  0.00    +0.007 A 
ENDBRANCH   7  13
BRANCH   1  20
ATOM     19  C   UNL     1       4.527   8.250 -20.931  0.00  0.00    +0.277 C 
ATOM     20  O   UNL     1       5.242   7.528 -21.741  0.00  0.00    -0.495 OA
ENDBRANCH   1  20
BRANCH   9  21
ATOM     21  O   UNL     1       5.797   3.337 -23.293  0.00  0.00    -0.506 OA
ATOM     22  H   UNL     1       6.688   3.343 -23.004  0.00  0.00    +0.292 HD
ENDBRANCH   9  21
TORSDOF 3
ENDMDL
