MODEL 1
REMARK VINA RESULT:   -11.434      0.000      0.000
REMARK INTER + INTRA:         -12.122
REMARK INTER:                 -11.970
REMARK INTRA:                  -0.152
REMARK UNBOUND:                -0.020
REMARK  Name = COc1ccc2c3c1O[C@@]1(C)C(=O)C=C[C@@]4(Br)[C@@H](C2)N(C)CC[C@@]341     ZINC000253505042
REMARK  4 active torsions:
REMARK  status: ('A' for Active; 'I' for Inactive)
REMARK    1  A    between atoms: C_1  and  O_2
REMARK    2  A    between atoms: O_2  and  C_3
REMARK    3  A    between atoms: C_10  and  C_11
REMARK    4  A    between atoms: N_20  and  C_21
REMARK                            x       y       z     vdW  Elec       q    Type
REMARK                         _______ _______ _______ _____ _____    ______ ____
ROOT
ATOM      1  C   UNL     1       0.447   2.185 -23.240  0.00  0.00    +0.162 A 
ATOM      2  C   UNL     1       0.384   1.835 -22.025  0.00  0.00    +0.050 A 
ATOM      3  C   UNL     1      -0.698   1.903 -21.398  0.00  0.00    +0.008 A 
ATOM      4  C   UNL     1      -1.728   2.319 -21.976  0.00  0.00    -0.034 A 
ATOM      5  C   UNL     1      -1.690   2.674 -23.189  0.00  0.00    +0.014 A 
ATOM      6  C   UNL     1      -2.721   3.090 -23.763  0.00  0.00    +0.075 C 
ATOM      7  C   UNL     1      -3.828   3.578 -24.520  0.00  0.00    +0.069 C 
ATOM      8  C   UNL     1      -5.062   3.665 -23.839  0.00  0.00    +0.132 C 
ATOM      9  N   UNL     1      -5.094   3.267 -22.488  0.00  0.00    +0.237 N 
ATOM     10  H   UNL     1      -5.966   3.315 -21.961  0.00  0.00    +0.203 HD
ATOM     11  C   UNL     1      -6.149   3.314 -21.814  0.00  0.00    +0.191 C 
ATOM     12  C   UNL     1      -3.868   2.808 -21.921  0.00  0.00    +0.090 C 
ATOM     13  C   UNL     1      -3.800   3.156 -23.136  0.00  0.00    +0.101 C 
ATOM     14 BR   UNL     1      -2.772   2.739 -22.554  0.00  0.00    -0.073 Br
ATOM     15  C   UNL     1      -4.848   3.576 -23.710  0.00  0.00    +0.001 C 
ATOM     16  C   UNL     1      -4.800   3.926 -24.916  0.00  0.00    +0.048 C 
ATOM     17  C   UNL     1      -3.712   3.864 -25.563  0.00  0.00    +0.200 C 
ATOM     18  O   UNL     1      -3.669   4.214 -26.763  0.00  0.00    -0.288 OA
ATOM     19  C   UNL     1      -2.675   3.446 -24.986  0.00  0.00    +0.181 C 
ATOM     20  C   UNL     1      -2.341   3.721 -26.165  0.00  0.00    +0.065 C 
ATOM     21  O   UNL     1      -1.199   3.131 -25.099  0.00  0.00    -0.473 OA
ATOM     22  C   UNL     1      -2.837   2.391 -21.344  0.00  0.00    +0.091 C 
ATOM     23  C   UNL     1      -0.599   2.607 -23.823  0.00  0.00    +0.168 A 
ENDROOT
BRANCH   1  25
ATOM     24  C   UNL     1       2.224   3.146 -24.033  0.00  0.00    +0.277 C 
ATOM     25  O   UNL     1       1.531   2.116 -23.862  0.00  0.00    -0.491 OA
ENDBRANCH   1  25
TORSDOF 1
ENDMDL
MODEL 2
REMARK VINA RESULT:   -10.865      2.131      5.395
REMARK INTER + INTRA:         -11.520
REMARK INTER:                 -11.438
REMARK INTRA:                  -0.082
REMARK UNBOUND:                -0.020
REMARK  Name = COc1ccc2c3c1O[C@@]1(C)C(=O)C=C[C@@]4(Br)[C@@H](C2)N(C)CC[C@@]341     ZINC000253505042
REMARK  4 active torsions:
REMARK  status: ('A' for Active; 'I' for Inactive)
REMARK    1  A    between atoms: C_1  and  O_2
REMARK    2  A    between atoms: O_2  and  C_3
REMARK    3  A    between atoms: C_10  and  C_11
REMARK    4  A    between atoms: N_20  and  C_21
REMARK                            x       y       z     vdW  Elec       q    Type
REMARK                         _______ _______ _______ _____ _____    ______ ____
ROOT
ATOM      1  C   UNL     1      -4.638   3.701 -23.060  0.00  0.00    +0.162 A 
ATOM      2  C   UNL     1      -4.819   4.134 -24.236  0.00  0.00    +0.050 A 
ATOM      3  C   UNL     1      -3.882   4.131 -25.067  0.00  0.00    +0.008 A 
ATOM      4  C   UNL     1      -2.755   3.696 -24.734  0.00  0.00    -0.034 A 
ATOM      5  C   UNL     1      -2.551   3.259 -23.565  0.00  0.00    +0.014 A 
ATOM      6  C   UNL     1      -1.425   2.825 -23.236  0.00  0.00    +0.075 C 
ATOM      7  C   UNL     1      -0.187   2.308 -22.748  0.00  0.00    +0.069 C 
ATOM      8  C   UNL     1       0.889   2.292 -23.663  0.00  0.00    +0.132 C 
ATOM      9  N   UNL     1       0.650   2.781 -24.963  0.00  0.00    +0.237 N 
ATOM     10  H   UNL     1       1.402   2.786 -25.653  0.00  0.00    +0.203 HD
ATOM     11  C   UNL     1       1.551   2.800 -25.832  0.00  0.00    +0.191 C 
ATOM     12  C   UNL     1      -0.666   3.254 -25.244  0.00  0.00    +0.090 C 
ATOM     13  C   UNL     1      -0.490   2.822 -24.066  0.00  0.00    +0.101 C 
ATOM     14 BR   UNL     1      -1.616   3.258 -24.404  0.00  0.00    -0.073 Br
ATOM     15  C   UNL     1       0.652   2.385 -23.740  0.00  0.00    +0.001 C 
ATOM     16  C   UNL     1       0.846   1.953 -22.577  0.00  0.00    +0.048 C 
ATOM     17  C   UNL     1      -0.093   1.950 -21.726  0.00  0.00    +0.200 C 
ATOM     18  O   UNL     1       0.104   1.519 -20.568  0.00  0.00    -0.288 OA
ATOM     19  C   UNL     1      -1.226   2.386 -22.056  0.00  0.00    +0.181 C 
ATOM     20  C   UNL     1      -1.318   2.025 -20.857  0.00  0.00    +0.065 C 
ATOM     21  O   UNL     1      -2.653   2.663 -21.633  0.00  0.00    -0.473 OA
ATOM     22  C   UNL     1      -1.793   3.688 -25.575  0.00  0.00    +0.091 C 
ATOM     23  C   UNL     1      -3.496   3.261 -22.725  0.00  0.00    +0.168 A 
ENDROOT
BRANCH   1  25
ATOM     24  C   UNL     1      -5.983   2.631 -21.736  0.00  0.00    +0.277 C 
ATOM     25  O   UNL     1      -5.578   3.707 -22.233  0.00  0.00    -0.491 OA
ENDBRANCH   1  25
TORSDOF 1
ENDMDL
MODEL 3
REMARK VINA RESULT:   -10.823      2.055      4.932
REMARK INTER + INTRA:         -11.476
REMARK INTER:                 -11.360
REMARK INTRA:                  -0.115
REMARK UNBOUND:                -0.020
REMARK  Name = COc1ccc2c3c1O[C@@]1(C)C(=O)C=C[C@@]4(Br)[C@@H](C2)N(C)CC[C@@]341     ZINC000253505042
REMARK  4 active torsions:
REMARK  status: ('A' for Active; 'I' for Inactive)
REMARK    1  A    between atoms: C_1  and  O_2
REMARK    2  A    between atoms: O_2  and  C_3
REMARK    3  A    between atoms: C_10  and  C_11
REMARK    4  A    between atoms: N_20  and  C_21
REMARK                            x       y       z     vdW  Elec       q    Type
REMARK                         _______ _______ _______ _____ _____    ______ ____
ROOT
ATOM      1  C   UNL     1      -3.463   3.246 -23.106  0.00  0.00    +0.162 A 
ATOM      2  C   UNL     1      -3.694   2.717 -21.979  0.00  0.00    +0.050 A 
ATOM      3  C   UNL     1      -2.765   2.194 -21.319  0.00  0.00    +0.008 A 
ATOM      4  C   UNL     1      -1.600   2.193 -21.777  0.00  0.00    -0.034 A 
ATOM      5  C   UNL     1      -1.346   2.716 -22.900  0.00  0.00    +0.014 A 
ATOM      6  C   UNL     1      -0.179   2.713 -23.354  0.00  0.00    +0.075 C 
ATOM      7  C   UNL     1       1.107   2.770 -23.971  0.00  0.00    +0.069 C 
ATOM      8  C   UNL     1       2.172   2.187 -23.250  0.00  0.00    +0.132 C 
ATOM      9  N   UNL     1       1.878   1.608 -22.000  0.00  0.00    +0.237 N 
ATOM     10  H   UNL     1       2.621   1.178 -21.449  0.00  0.00    +0.203 HD
ATOM     11  C   UNL     1       2.767   1.072 -21.300  0.00  0.00    +0.191 C 
ATOM     12  C   UNL     1       0.520   1.660 -21.567  0.00  0.00    +0.090 C 
ATOM     13  C   UNL     1       0.745   2.191 -22.695  0.00  0.00    +0.101 C 
ATOM     14 BR   UNL     1      -0.420   2.189 -22.233  0.00  0.00    -0.073 Br
ATOM     15  C   UNL     1       1.927   2.184 -23.148  0.00  0.00    +0.001 C 
ATOM     16  C   UNL     1       2.171   2.706 -24.264  0.00  0.00    +0.048 C 
ATOM     17  C   UNL     1       1.241   3.239 -24.943  0.00  0.00    +0.200 C 
ATOM     18  O   UNL     1       1.488   3.757 -26.055  0.00  0.00    -0.288 OA
ATOM     19  C   UNL     1       0.069   3.242 -24.487  0.00  0.00    +0.181 C 
ATOM     20  C   UNL     1       0.021   3.820 -25.601  0.00  0.00    +0.065 C 
ATOM     21  O   UNL     1      -1.375   3.641 -24.700  0.00  0.00    -0.473 OA
ATOM     22  C   UNL     1      -0.647   1.662 -21.112  0.00  0.00    +0.091 C 
ATOM     23  C   UNL     1      -2.280   3.244 -23.567  0.00  0.00    +0.168 A 
ENDROOT
BRANCH   1  25
ATOM     24  C   UNL     1      -5.566   3.739 -23.320  0.00  0.00    +0.277 C 
ATOM     25  O   UNL     1      -4.393   3.768 -23.761  0.00  0.00    -0.491 OA
ENDBRANCH   1  25
TORSDOF 1
ENDMDL
MODEL 4
REMARK VINA RESULT:   -10.775      1.811      3.103
REMARK INTER + INTRA:         -11.425
REMARK INTER:                 -11.300
REMARK INTRA:                  -0.125
REMARK UNBOUND:                -0.020
REMARK  Name = COc1ccc2c3c1O[C@@]1(C)C(=O)C=C[C@@]4(Br)[C@@H](C2)N(C)CC[C@@]341     ZINC000253505042
REMARK  4 active torsions:
REMARK  status: ('A' for Active; 'I' for Inactive)
REMARK    1  A    between atoms: C_1  and  O_2
REMARK    2  A    between atoms: O_2  and  C_3
REMARK    3  A    between atoms: C_10  and  C_11
REMARK    4  A    between atoms: N_20  and  C_21
REMARK                            x       y       z     vdW  Elec       q    Type
REMARK                         _______ _______ _______ _____ _____    ______ ____
ROOT
ATOM      1  C   UNL     1       1.020   2.966 -23.403  0.00  0.00    +0.162 A 
ATOM      2  C   UNL     1       1.149   3.089 -24.657  0.00  0.00    +0.050 A 
ATOM      3  C   UNL     1       0.146   3.268 -25.386  0.00  0.00    +0.008 A 
ATOM      4  C   UNL     1      -0.995   3.325 -24.873  0.00  0.00    -0.034 A 
ATOM      5  C   UNL     1      -1.149   3.204 -23.623  0.00  0.00    +0.014 A 
ATOM      6  C   UNL     1      -2.290   3.262 -23.114  0.00  0.00    +0.075 C 
ATOM      7  C   UNL     1      -3.538   3.310 -22.423  0.00  0.00    +0.069 C 
ATOM      8  C   UNL     1      -4.687   3.510 -23.220  0.00  0.00    +0.132 C 
ATOM      9  N   UNL     1      -4.505   3.644 -24.610  0.00  0.00    +0.237 N 
ATOM     10  H   UNL     1      -5.309   3.789 -25.220  0.00  0.00    +0.203 HD
ATOM     11  C   UNL     1      -5.472   3.824 -25.385  0.00  0.00    +0.191 C 
ATOM     12  C   UNL     1      -3.166   3.564 -25.097  0.00  0.00    +0.090 C 
ATOM     13  C   UNL     1      -3.290   3.440 -23.843  0.00  0.00    +0.101 C 
ATOM     14 BR   UNL     1      -2.149   3.384 -24.361  0.00  0.00    -0.073 Br
ATOM     15  C   UNL     1      -4.448   3.499 -23.335  0.00  0.00    +0.001 C 
ATOM     16  C   UNL     1      -4.591   3.378 -22.093  0.00  0.00    +0.048 C 
ATOM     17  C   UNL     1      -3.585   3.197 -21.343  0.00  0.00    +0.200 C 
ATOM     18  O   UNL     1      -3.732   3.077 -20.106  0.00  0.00    -0.288 OA
ATOM     19  C   UNL     1      -2.437   3.139 -21.854  0.00  0.00    +0.181 C 
ATOM     20  C   UNL     1      -2.285   2.990 -20.616  0.00  0.00    +0.065 C 
ATOM     21  O   UNL     1      -0.952   2.967 -21.623  0.00  0.00    -0.473 OA
ATOM     22  C   UNL     1      -2.024   3.507 -25.608  0.00  0.00    +0.091 C 
ATOM     23  C   UNL     1      -0.138   3.024 -22.886  0.00  0.00    +0.168 A 
ENDROOT
BRANCH   1  25
ATOM     24  C   UNL     1       3.047   3.495 -22.837  0.00  0.00    +0.277 C 
ATOM     25  O   UNL     1       2.025   2.788 -22.679  0.00  0.00    -0.491 OA
ENDBRANCH   1  25
TORSDOF 1
ENDMDL
MODEL 5
REMARK VINA RESULT:   -10.282      2.069      4.282
REMARK INTER + INTRA:         -10.903
REMARK INTER:                 -10.752
REMARK INTRA:                  -0.151
REMARK UNBOUND:                -0.020
REMARK  Name = COc1ccc2c3c1O[C@@]1(C)C(=O)C=C[C@@]4(Br)[C@@H](C2)N(C)CC[C@@]341     ZINC000253505042
REMARK  4 active torsions:
REMARK  status: ('A' for Active; 'I' for Inactive)
REMARK    1  A    between atoms: C_1  and  O_2
REMARK    2  A    between atoms: O_2  and  C_3
REMARK    3  A    between atoms: C_10  and  C_11
REMARK    4  A    between atoms: N_20  and  C_21
REMARK                            x       y       z     vdW  Elec       q    Type
REMARK                         _______ _______ _______ _____ _____    ______ ____
ROOT
ATOM      1  C   UNL     1      -4.871   3.389 -21.767  0.00  0.00    +0.162 A 
ATOM      2  C   UNL     1      -4.212   3.357 -20.686  0.00  0.00    +0.050 A 
ATOM      3  C   UNL     1      -2.960   3.363 -20.704  0.00  0.00    +0.008 A 
ATOM      4  C   UNL     1      -2.353   3.402 -21.799  0.00  0.00    -0.034 A 
ATOM      5  C   UNL     1      -2.990   3.435 -22.891  0.00  0.00    +0.014 A 
ATOM      6  C   UNL     1      -2.380   3.474 -23.983  0.00  0.00    +0.075 C 
ATOM      7  C   UNL     1      -1.795   3.519 -25.284  0.00  0.00    +0.069 C 
ATOM      8  C   UNL     1      -0.383   3.528 -25.335  0.00  0.00    +0.132 C 
ATOM      9  N   UNL     1       0.317   3.491 -24.113  0.00  0.00    +0.237 N 
ATOM     10  H   UNL     1       1.337   3.496 -24.108  0.00  0.00    +0.203 HD
ATOM     11  C   UNL     1       1.568   3.496 -24.073  0.00  0.00    +0.191 C 
ATOM     12  C   UNL     1      -0.466   3.448 -22.921  0.00  0.00    +0.090 C 
ATOM     13  C   UNL     1      -1.130   3.480 -23.999  0.00  0.00    +0.101 C 
ATOM     14 BR   UNL     1      -1.734   3.441 -22.901  0.00  0.00    -0.073 Br
ATOM     15  C   UNL     1      -0.506   3.519 -25.100  0.00  0.00    +0.001 C 
ATOM     16  C   UNL     1      -1.147   3.552 -26.179  0.00  0.00    +0.048 C 
ATOM     17  C   UNL     1      -2.415   3.546 -26.176  0.00  0.00    +0.200 C 
ATOM     18  O   UNL     1      -3.050   3.578 -27.254  0.00  0.00    -0.288 OA
ATOM     19  C   UNL     1      -3.029   3.507 -25.079  0.00  0.00    +0.181 C 
ATOM     20  C   UNL     1      -3.906   3.532 -25.978  0.00  0.00    +0.065 C 
ATOM     21  O   UNL     1      -4.367   3.477 -24.373  0.00  0.00    -0.473 OA
ATOM     22  C   UNL     1      -1.075   3.409 -21.827  0.00  0.00    +0.091 C 
ATOM     23  C   UNL     1      -4.254   3.429 -22.874  0.00  0.00    +0.168 A 
ENDROOT
BRANCH   1  25
ATOM     24  C   UNL     1      -6.746   2.295 -21.742  0.00  0.00    +0.277 C 
ATOM     25  O   UNL     1      -6.123   3.383 -21.743  0.00  0.00    -0.491 OA
ENDBRANCH   1  25
TORSDOF 1
ENDMDL
MODEL 6
REMARK VINA RESULT:   -10.096      3.138      6.890
REMARK INTER + INTRA:         -10.706
REMARK INTER:                 -10.580
REMARK INTRA:                  -0.126
REMARK UNBOUND:                -0.020
REMARK  Name = COc1ccc2c3c1O[C@@]1(C)C(=O)C=C[C@@]4(Br)[C@@H](C2)N(C)CC[C@@]341     ZINC000253505042
REMARK  4 active torsions:
REMARK  status: ('A' for Active; 'I' for Inactive)
REMARK    1  A    between atoms: C_1  and  O_2
REMARK    2  A    between atoms: O_2  and  C_3
REMARK    3  A    between atoms: C_10  and  C_11
REMARK    4  A    between atoms: N_20  and  C_21
REMARK                            x       y       z     vdW  Elec       q    Type
REMARK                         _______ _______ _______ _____ _____    ______ ____
ROOT
ATOM      1  C   UNL     1      -0.927   3.025 -23.523  0.00  0.00    +0.162 A 
ATOM      2  C   UNL     1      -1.043   4.249 -23.828  0.00  0.00    +0.050 A 
ATOM      3  C   UNL     1      -0.043   5.004 -23.821  0.00  0.00    +0.008 A 
ATOM      4  C   UNL     1       1.081   4.546 -23.511  0.00  0.00    -0.034 A 
ATOM      5  C   UNL     1       1.221   3.328 -23.203  0.00  0.00    +0.014 A 
ATOM      6  C   UNL     1       2.345   2.875 -22.894  0.00  0.00    +0.075 C 
ATOM      7  C   UNL     1       3.574   2.248 -22.526  0.00  0.00    +0.069 C 
ATOM      8  C   UNL     1       4.718   3.075 -22.510  0.00  0.00    +0.132 C 
ATOM      9  N   UNL     1       4.551   4.431 -22.854  0.00  0.00    +0.237 N 
ATOM     10  H   UNL     1       5.354   5.061 -22.854  0.00  0.00    +0.203 HD
ATOM     11  C   UNL     1       5.516   5.229 -22.864  0.00  0.00    +0.191 C 
ATOM     12  C   UNL     1       3.231   4.854 -23.192  0.00  0.00    +0.090 C 
ATOM     13  C   UNL     1       3.342   3.630 -22.888  0.00  0.00    +0.101 C 
ATOM     14 BR   UNL     1       2.218   4.091 -23.199  0.00  0.00    -0.073 Br
ATOM     15  C   UNL     1       4.483   3.178 -22.577  0.00  0.00    +0.001 C 
ATOM     16  C   UNL     1       4.612   1.966 -22.272  0.00  0.00    +0.048 C 
ATOM     17  C   UNL     1       3.609   1.191 -22.275  0.00  0.00    +0.200 C 
ATOM     18  O   UNL     1       3.743  -0.016 -21.971  0.00  0.00    -0.288 OA
ATOM     19  C   UNL     1       2.479   1.645 -22.585  0.00  0.00    +0.181 C 
ATOM     20  C   UNL     1       2.316   0.426 -22.333  0.00  0.00    +0.065 C 
ATOM     21  O   UNL     1       1.006   1.359 -22.786  0.00  0.00    -0.473 OA
ATOM     22  C   UNL     1       2.106   5.309 -23.501  0.00  0.00    +0.091 C 
ATOM     23  C   UNL     1       0.213   2.565 -23.210  0.00  0.00    +0.168 A 
ENDROOT
BRANCH   1  25
ATOM     24  C   UNL     1      -2.988   2.633 -22.965  0.00  0.00    +0.277 C 
ATOM     25  O   UNL     1      -1.929   2.274 -23.531  0.00  0.00    -0.491 OA
ENDBRANCH   1  25
TORSDOF 1
ENDMDL
MODEL 7
REMARK VINA RESULT:    -9.990      2.590      6.218
REMARK INTER + INTRA:         -10.594
REMARK INTER:                 -10.470
REMARK INTRA:                  -0.124
REMARK UNBOUND:                -0.020
REMARK  Name = COc1ccc2c3c1O[C@@]1(C)C(=O)C=C[C@@]4(Br)[C@@H](C2)N(C)CC[C@@]341     ZINC000253505042
REMARK  4 active torsions:
REMARK  status: ('A' for Active; 'I' for Inactive)
REMARK    1  A    between atoms: C_1  and  O_2
REMARK    2  A    between atoms: O_2  and  C_3
REMARK    3  A    between atoms: C_10  and  C_11
REMARK    4  A    between atoms: N_20  and  C_21
REMARK                            x       y       z     vdW  Elec       q    Type
REMARK                         _______ _______ _______ _____ _____    ______ ____
ROOT
ATOM      1  C   UNL     1      -2.237   3.022 -24.066  0.00  0.00    +0.162 A 
ATOM      2  C   UNL     1      -1.960   3.513 -25.200  0.00  0.00    +0.050 A 
ATOM      3  C   UNL     1      -0.767   3.667 -25.552  0.00  0.00    +0.008 A 
ATOM      4  C   UNL     1       0.159   3.335 -24.778  0.00  0.00    -0.034 A 
ATOM      5  C   UNL     1      -0.094   2.843 -23.641  0.00  0.00    +0.014 A 
ATOM      6  C   UNL     1       0.835   2.512 -22.870  0.00  0.00    +0.075 C 
ATOM      7  C   UNL     1       1.807   2.099 -21.909  0.00  0.00    +0.069 C 
ATOM      8  C   UNL     1       3.160   2.262 -22.279  0.00  0.00    +0.132 C 
ATOM      9  N   UNL     1       3.431   2.811 -23.548  0.00  0.00    +0.237 N 
ATOM     10  H   UNL     1       4.395   2.944 -23.852  0.00  0.00    +0.203 HD
ATOM     11  C   UNL     1       4.603   2.987 -23.951  0.00  0.00    +0.191 C 
ATOM     12  C   UNL     1       2.306   3.157 -24.356  0.00  0.00    +0.090 C 
ATOM     13  C   UNL     1       2.024   2.667 -23.223  0.00  0.00    +0.101 C 
ATOM     14 BR   UNL     1       1.099   3.001 -24.001  0.00  0.00    -0.073 Br
ATOM     15  C   UNL     1       2.968   2.334 -22.448  0.00  0.00    +0.001 C 
ATOM     16  C   UNL     1       2.708   1.846 -21.321  0.00  0.00    +0.048 C 
ATOM     17  C   UNL     1       1.506   1.684 -20.951  0.00  0.00    +0.200 C 
ATOM     18  O   UNL     1       1.251   1.197 -19.826  0.00  0.00    -0.288 OA
ATOM     19  C   UNL     1       0.572   2.016 -21.725  0.00  0.00    +0.181 C 
ATOM     20  C   UNL     1       0.031   1.566 -20.685  0.00  0.00    +0.065 C 
ATOM     21  O   UNL     1      -0.922   2.109 -21.946  0.00  0.00    -0.473 OA
ATOM     22  C   UNL     1       1.378   3.489 -25.128  0.00  0.00    +0.091 C 
ATOM     23  C   UNL     1      -1.296   2.686 -23.283  0.00  0.00    +0.168 A 
ENDROOT
BRANCH   1  25
ATOM     24  C   UNL     1      -4.267   3.776 -23.931  0.00  0.00    +0.277 C 
ATOM     25  O   UNL     1      -3.430   2.869 -23.718  0.00  0.00    -0.491 OA
ENDBRANCH   1  25
TORSDOF 1
ENDMDL
MODEL 8
REMARK VINA RESULT:    -9.793      1.931      3.046
REMARK INTER + INTRA:         -10.386
REMARK INTER:                 -10.266
REMARK INTRA:                  -0.120
REMARK UNBOUND:                -0.020
REMARK  Name = COc1ccc2c3c1O[C@@]1(C)C(=O)C=C[C@@]4(Br)[C@@H](C2)N(C)CC[C@@]341     ZINC000253505042
REMARK  4 active torsions:
REMARK  status: ('A' for Active; 'I' for Inactive)
REMARK    1  A    between atoms: C_1  and  O_2
REMARK    2  A    between atoms: O_2  and  C_3
REMARK    3  A    between atoms: C_10  and  C_11
REMARK    4  A    between atoms: N_20  and  C_21
REMARK                            x       y       z     vdW  Elec       q    Type
REMARK                         _______ _______ _______ _____ _____    ______ ____
ROOT
ATOM      1  C   UNL     1       3.434   1.834 -22.689  0.00  0.00    +0.162 A 
ATOM      2  C   UNL     1       3.393   1.347 -21.521  0.00  0.00    +0.050 A 
ATOM      3  C   UNL     1       2.304   1.252 -20.909  0.00  0.00    +0.008 A 
ATOM      4  C   UNL     1       1.246   1.641 -21.455  0.00  0.00    -0.034 A 
ATOM      5  C   UNL     1       1.263   2.130 -22.621  0.00  0.00    +0.014 A 
ATOM      6  C   UNL     1       0.204   2.518 -23.164  0.00  0.00    +0.075 C 
ATOM      7  C   UNL     1      -0.936   2.992 -23.881  0.00  0.00    +0.069 C 
ATOM      8  C   UNL     1      -2.178   2.897 -23.215  0.00  0.00    +0.132 C 
ATOM      9  N   UNL     1      -2.185   2.349 -21.917  0.00  0.00    +0.237 N 
ATOM     10  H   UNL     1      -3.062   2.264 -21.404  0.00  0.00    +0.203 HD
ATOM     11  C   UNL     1      -3.245   2.231 -21.261  0.00  0.00    +0.191 C 
ATOM     12  C   UNL     1      -0.928   1.936 -21.383  0.00  0.00    +0.090 C 
ATOM     13  C   UNL     1      -0.882   2.422 -22.551  0.00  0.00    +0.101 C 
ATOM     14 BR   UNL     1       0.175   2.032 -22.001  0.00  0.00    -0.073 Br
ATOM     15  C   UNL     1      -1.957   2.812 -23.094  0.00  0.00    +0.001 C 
ATOM     16  C   UNL     1      -1.931   3.297 -24.252  0.00  0.00    +0.048 C 
ATOM     17  C   UNL     1      -0.836   3.400 -24.884  0.00  0.00    +0.200 C 
ATOM     18  O   UNL     1      -0.815   3.884 -26.037  0.00  0.00    -0.288 OA
ATOM     19  C   UNL     1       0.228   3.011 -24.339  0.00  0.00    +0.181 C 
ATOM     20  C   UNL     1       0.545   3.443 -25.475  0.00  0.00    +0.065 C 
ATOM     21  O   UNL     1       1.727   2.837 -24.460  0.00  0.00    -0.473 OA
ATOM     22  C   UNL     1       0.130   1.547 -20.839  0.00  0.00    +0.091 C 
ATOM     23  C   UNL     1       2.360   2.227 -23.240  0.00  0.00    +0.168 A 
ENDROOT
BRANCH   1  25
ATOM     24  C   UNL     1       5.013   3.055 -23.541  0.00  0.00    +0.277 C 
ATOM     25  O   UNL     1       4.524   1.927 -23.297  0.00  0.00    -0.491 OA
ENDBRANCH   1  25
TORSDOF 1
ENDMDL
MODEL 9
REMARK VINA RESULT:    -8.921      1.983      4.297
REMARK INTER + INTRA:          -9.462
REMARK INTER:                  -9.442
REMARK INTRA:                  -0.020
REMARK UNBOUND:                -0.020
REMARK  Name = COc1ccc2c3c1O[C@@]1(C)C(=O)C=C[C@@]4(Br)[C@@H](C2)N(C)CC[C@@]341     ZINC000253505042
REMARK  4 active torsions:
REMARK  status: ('A' for Active; 'I' for Inactive)
REMARK    1  A    between atoms: C_1  and  O_2
REMARK    2  A    between atoms: O_2  and  C_3
REMARK    3  A    between atoms: C_10  and  C_11
REMARK    4  A    between atoms: N_20  and  C_21
REMARK                            x       y       z     vdW  Elec       q    Type
REMARK                         _______ _______ _______ _____ _____    ______ ____
ROOT
ATOM      1  C   UNL     1      -4.116   3.154 -21.001  0.00  0.00    +0.162 A 
ATOM      2  C   UNL     1      -5.316   3.258 -21.389  0.00  0.00    +0.050 A 
ATOM      3  C   UNL     1      -5.583   3.387 -22.606  0.00  0.00    +0.008 A 
ATOM      4  C   UNL     1      -4.656   3.412 -23.448  0.00  0.00    -0.034 A 
ATOM      5  C   UNL     1      -3.449   3.309 -23.084  0.00  0.00    +0.014 A 
ATOM      6  C   UNL     1      -2.526   3.335 -23.927  0.00  0.00    +0.075 C 
ATOM      7  C   UNL     1      -1.392   3.351 -24.795  0.00  0.00    +0.069 C 
ATOM      8  C   UNL     1      -1.663   3.495 -26.174  0.00  0.00    +0.132 C 
ATOM      9  N   UNL     1      -3.010   3.609 -26.569  0.00  0.00    +0.237 N 
ATOM     10  H   UNL     1      -3.247   3.714 -27.556  0.00  0.00    +0.203 HD
ATOM     11  C   UNL     1      -3.333   3.739 -27.772  0.00  0.00    +0.191 C 
ATOM     12  C   UNL     1      -3.992   3.569 -25.535  0.00  0.00    +0.090 C 
ATOM     13  C   UNL     1      -2.793   3.464 -25.141  0.00  0.00    +0.101 C 
ATOM     14 BR   UNL     1      -3.724   3.439 -24.302  0.00  0.00    -0.073 Br
ATOM     15  C   UNL     1      -1.864   3.490 -26.001  0.00  0.00    +0.001 C 
ATOM     16  C   UNL     1      -0.668   3.388 -25.630  0.00  0.00    +0.048 C 
ATOM     17  C   UNL     1      -0.384   3.257 -24.401  0.00  0.00    +0.200 C 
ATOM     18  O   UNL     1       0.809   3.155 -24.036  0.00  0.00    -0.288 OA
ATOM     19  C   UNL     1      -1.311   3.231 -23.553  0.00  0.00    +0.181 C 
ATOM     20  C   UNL     1      -0.238   3.110 -22.912  0.00  0.00    +0.065 C 
ATOM     21  O   UNL     1      -1.694   3.117 -22.093  0.00  0.00    -0.473 OA
ATOM     22  C   UNL     1      -4.918   3.543 -24.692  0.00  0.00    +0.091 C 
ATOM     23  C   UNL     1      -3.178   3.180 -21.856  0.00  0.00    +0.168 A 
ENDROOT
BRANCH   1  25
ATOM     24  C   UNL     1      -3.029   3.791 -19.234  0.00  0.00    +0.277 C 
ATOM     25  O   UNL     1      -3.854   3.025 -19.783  0.00  0.00    -0.491 OA
ENDBRANCH   1  25
TORSDOF 1
ENDMDL
