MODEL 1
REMARK VINA RESULT:    -9.511      0.000      0.000
REMARK INTER + INTRA:         -11.811
REMARK INTER:                 -11.460
REMARK INTRA:                  -0.351
REMARK UNBOUND:                -0.632
REMARK  Name = COc1ccc2c(c1Oc1ccccc1)[C@@]13CCN(C)[C@H](C2)[C@@H]1[C@@H](C)CC(=O)C3 ZINC000100393769
REMARK  6 active torsions:
REMARK  status: ('A' for Active; 'I' for Inactive)
REMARK    1  A    between atoms: C_1  and  O_2
REMARK    2  A    between atoms: O_2  and  C_3
REMARK    3  A    between atoms: C_8  and  O_9
REMARK    4  A    between atoms: O_9  and  C_10
REMARK    5  A    between atoms: N_19  and  C_20
REMARK    6  A    between atoms: C_24  and  C_25
REMARK                            x       y       z     vdW  Elec       q    Type
REMARK                         _______ _______ _______ _____ _____    ______ ____
ROOT
ATOM      1  C   UNL     1      -1.788   2.702 -21.223  0.00  0.00    +0.162 A 
ATOM      2  C   UNL     1      -2.945   2.724 -20.721  0.00  0.00    +0.050 A 
ATOM      3  C   UNL     1      -3.928   2.955 -21.477  0.00  0.00    +0.008 A 
ATOM      4  C   UNL     1      -3.691   3.188 -22.902  0.00  0.00    -0.035 A 
ATOM      5  C   UNL     1      -2.696   3.154 -23.248  0.00  0.00    +0.009 A 
ATOM      6  C   UNL     1      -2.327   3.275 -24.115  0.00  0.00    +0.019 C 
ATOM      7  C   UNL     1      -2.786   3.032 -22.519  0.00  0.00    +0.063 C 
ATOM      8  C   UNL     1      -4.204   3.104 -22.160  0.00  0.00    +0.132 C 
ATOM      9  N   UNL     1      -4.992   3.330 -22.991  0.00  0.00    +0.236 N 
ATOM     10  H   UNL     1      -5.412   3.534 -23.897  0.00  0.00    +0.203 HD
ATOM     11  C   UNL     1      -4.583   3.562 -24.497  0.00  0.00    +0.073 C 
ATOM     12  C   UNL     1      -5.964   3.263 -22.092  0.00  0.00    +0.190 C 
ATOM     13  C   UNL     1      -1.144   3.235 -24.531  0.00  0.00    +0.086 C 
ATOM     14  C   UNL     1      -0.904   3.437 -25.785  0.00  0.00    +0.134 C 
ATOM     15  O   UNL     1       0.297   3.399 -26.219  0.00  0.00    -0.297 OA
ATOM     16  C   UNL     1      -1.872   3.683 -26.632  0.00  0.00    +0.078 C 
ATOM     17  C   UNL     1      -3.101   3.731 -26.238  0.00  0.00    +0.002 C 
ATOM     18  C   UNL     1      -4.048   3.972 -27.067  0.00  0.00    +0.008 C 
ATOM     19  C   UNL     1      -3.381   3.541 -25.031  0.00  0.00    +0.052 C 
ATOM     20  C   UNL     1      -4.681   3.419 -23.652  0.00  0.00    +0.090 C 
ATOM     21  C   UNL     1      -1.651   2.916 -22.484  0.00  0.00    +0.174 A 
ENDROOT
BRANCH   1  23
ATOM     22  C   UNL     1       0.100   1.432 -20.640  0.00  0.00    +0.277 C 
ATOM     23  O   UNL     1      -0.593   2.477 -20.615  0.00  0.00    -0.491 OA
ENDBRANCH   1  23
BRANCH  21  24
ATOM     24  O   UNL     1      -0.366   2.960 -23.418  0.00  0.00    -0.452 OA
BRANCH  24  25
ATOM     25  C   UNL     1       0.865   3.621 -23.352  0.00  0.00    +0.129 A 
ATOM     26  C   UNL     1       1.885   2.851 -23.341  0.00  0.00    +0.046 A 
ATOM     27  C   UNL     1       3.059   3.352 -23.282  0.00  0.00    +0.004 A 
ATOM     28  C   UNL     1       3.212   4.617 -23.234  0.00  0.00    +0.000 A 
ATOM     29  C   UNL     1       2.191   5.389 -23.244  0.00  0.00    +0.004 A 
ATOM     30  C   UNL     1       1.016   4.889 -23.304  0.00  0.00    +0.046 A 
ENDBRANCH  24  25
ENDBRANCH  21  24
TORSDOF 3
ENDMDL
MODEL 2
REMARK VINA RESULT:    -9.203      1.255      1.998
REMARK INTER + INTRA:         -11.449
REMARK INTER:                 -10.656
REMARK INTRA:                  -0.794
REMARK UNBOUND:                -0.632
REMARK  Name = COc1ccc2c(c1Oc1ccccc1)[C@@]13CCN(C)[C@H](C2)[C@@H]1[C@@H](C)CC(=O)C3 ZINC000100393769
REMARK  6 active torsions:
REMARK  status: ('A' for Active; 'I' for Inactive)
REMARK    1  A    between atoms: C_1  and  O_2
REMARK    2  A    between atoms: O_2  and  C_3
REMARK    3  A    between atoms: C_8  and  O_9
REMARK    4  A    between atoms: O_9  and  C_10
REMARK    5  A    between atoms: N_19  and  C_20
REMARK    6  A    between atoms: C_24  and  C_25
REMARK                            x       y       z     vdW  Elec       q    Type
REMARK                         _______ _______ _______ _____ _____    ______ ____
ROOT
ATOM      1  C   UNL     1       0.151   1.557 -21.292  0.00  0.00    +0.162 A 
ATOM      2  C   UNL     1      -0.863   1.410 -20.557  0.00  0.00    +0.050 A 
ATOM      3  C   UNL     1      -1.983   1.801 -20.986  0.00  0.00    +0.008 A 
ATOM      4  C   UNL     1      -2.064   2.407 -22.316  0.00  0.00    -0.035 A 
ATOM      5  C   UNL     1      -1.172   2.496 -22.871  0.00  0.00    +0.009 A 
ATOM      6  C   UNL     1      -1.002   2.851 -23.737  0.00  0.00    +0.019 C 
ATOM      7  C   UNL     1      -1.101   2.184 -22.200  0.00  0.00    +0.063 C 
ATOM      8  C   UNL     1      -2.400   2.116 -21.527  0.00  0.00    +0.132 C 
ATOM      9  N   UNL     1      -3.346   2.527 -22.072  0.00  0.00    +0.236 N 
ATOM     10  H   UNL     1      -3.952   2.948 -22.776  0.00  0.00    +0.203 HD
ATOM     11  C   UNL     1      -3.278   3.158 -23.517  0.00  0.00    +0.073 C 
ATOM     12  C   UNL     1      -4.095   2.197 -21.030  0.00  0.00    +0.190 C 
ATOM     13  C   UNL     1       0.056   2.958 -24.401  0.00  0.00    +0.086 C 
ATOM     14  C   UNL     1       0.016   3.489 -25.579  0.00  0.00    +0.134 C 
ATOM     15  O   UNL     1       1.088   3.604 -26.264  0.00  0.00    -0.297 OA
ATOM     16  C   UNL     1      -1.109   3.919 -26.094  0.00  0.00    +0.078 C 
ATOM     17  C   UNL     1      -2.216   3.824 -25.437  0.00  0.00    +0.002 C 
ATOM     18  C   UNL     1      -3.318   4.244 -25.941  0.00  0.00    +0.008 C 
ATOM     19  C   UNL     1      -2.225   3.315 -24.291  0.00  0.00    +0.052 C 
ATOM     20  C   UNL     1      -3.188   2.796 -22.739  0.00  0.00    +0.090 C 
ATOM     21  C   UNL     1       0.010   2.098 -22.450  0.00  0.00    +0.174 A 
ENDROOT
BRANCH   1  23
ATOM     22  C   UNL     1       2.200   1.657 -20.146  0.00  0.00    +0.277 C 
ATOM     23  O   UNL     1       1.445   1.217 -21.046  0.00  0.00    -0.491 OA
ENDBRANCH   1  23
BRANCH  21  24
ATOM     24  O   UNL     1       1.054   2.425 -23.602  0.00  0.00    -0.452 OA
BRANCH  24  25
ATOM     25  C   UNL     1       2.415   2.746 -23.621  0.00  0.00    +0.129 A 
ATOM     26  C   UNL     1       2.694   3.918 -23.194  0.00  0.00    +0.046 A 
ATOM     27  C   UNL     1       3.909   4.313 -23.168  0.00  0.00    +0.004 A 
ATOM     28  C   UNL     1       4.841   3.540 -23.567  0.00  0.00    +0.000 A 
ATOM     29  C   UNL     1       4.563   2.366 -23.995  0.00  0.00    +0.004 A 
ATOM     30  C   UNL     1       3.349   1.969 -24.021  0.00  0.00    +0.046 A 
ENDBRANCH  24  25
ENDBRANCH  21  24
TORSDOF 3
ENDMDL
MODEL 3
REMARK VINA RESULT:    -8.746      1.332      3.886
REMARK INTER + INTRA:         -10.912
REMARK INTER:                 -10.512
REMARK INTRA:                  -0.400
REMARK UNBOUND:                -0.632
REMARK  Name = COc1ccc2c(c1Oc1ccccc1)[C@@]13CCN(C)[C@H](C2)[C@@H]1[C@@H](C)CC(=O)C3 ZINC000100393769
REMARK  6 active torsions:
REMARK  status: ('A' for Active; 'I' for Inactive)
REMARK    1  A    between atoms: C_1  and  O_2
REMARK    2  A    between atoms: O_2  and  C_3
REMARK    3  A    between atoms: C_8  and  O_9
REMARK    4  A    between atoms: O_9  and  C_10
REMARK    5  A    between atoms: N_19  and  C_20
REMARK    6  A    between atoms: C_24  and  C_25
REMARK                            x       y       z     vdW  Elec       q    Type
REMARK                         _______ _______ _______ _____ _____    ______ ____
ROOT
ATOM      1  C   UNL     1       0.113   3.224 -25.484  0.00  0.00    +0.162 A 
ATOM      2  C   UNL     1      -0.766   3.669 -26.271  0.00  0.00    +0.050 A 
ATOM      3  C   UNL     1      -1.951   3.781 -25.854  0.00  0.00    +0.008 A 
ATOM      4  C   UNL     1      -2.261   3.394 -24.477  0.00  0.00    -0.035 A 
ATOM      5  C   UNL     1      -1.472   3.031 -23.878  0.00  0.00    +0.009 A 
ATOM      6  C   UNL     1      -1.453   2.730 -22.977  0.00  0.00    +0.019 C 
ATOM      7  C   UNL     1      -1.285   3.220 -24.573  0.00  0.00    +0.063 C 
ATOM      8  C   UNL     1      -2.458   3.707 -25.303  0.00  0.00    +0.132 C 
ATOM      9  N   UNL     1      -3.491   3.747 -24.762  0.00  0.00    +0.236 N 
ATOM     10  H   UNL     1      -4.213   3.664 -24.047  0.00  0.00    +0.203 HD
ATOM     11  C   UNL     1      -3.672   3.292 -23.261  0.00  0.00    +0.073 C 
ATOM     12  C   UNL     1      -4.053   4.227 -25.861  0.00  0.00    +0.190 C 
ATOM     13  C   UNL     1      -0.518   2.298 -22.261  0.00  0.00    +0.086 C 
ATOM     14  C   UNL     1      -0.762   1.948 -21.041  0.00  0.00    +0.134 C 
ATOM     15  O   UNL     1       0.184   1.506 -20.303  0.00  0.00    -0.297 OA
ATOM     16  C   UNL     1      -1.967   2.036 -20.535  0.00  0.00    +0.078 C 
ATOM     17  C   UNL     1      -2.951   2.476 -21.244  0.00  0.00    +0.002 C 
ATOM     18  C   UNL     1      -4.131   2.562 -20.749  0.00  0.00    +0.008 C 
ATOM     19  C   UNL     1      -2.762   2.827 -22.432  0.00  0.00    +0.052 C 
ATOM     20  C   UNL     1      -3.449   3.509 -24.066  0.00  0.00    +0.090 C 
ATOM     21  C   UNL     1      -0.227   2.902 -24.285  0.00  0.00    +0.174 A 
ENDROOT
BRANCH   1  23
ATOM     22  C   UNL     1       1.996   1.979 -26.135  0.00  0.00    +0.277 C 
ATOM     23  O   UNL     1       1.439   3.018 -25.706  0.00  0.00    -0.491 OA
ENDBRANCH   1  23
BRANCH  21  24
ATOM     24  O   UNL     1       0.610   2.324 -23.065  0.00  0.00    -0.452 OA
BRANCH  24  25
ATOM     25  C   UNL     1       1.976   2.218 -22.784  0.00  0.00    +0.129 A 
ATOM     26  C   UNL     1       2.410   1.019 -22.687  0.00  0.00    +0.046 A 
ATOM     27  C   UNL     1       3.644   0.808 -22.432  0.00  0.00    +0.004 A 
ATOM     28  C   UNL     1       4.441   1.792 -22.276  0.00  0.00    +0.000 A 
ATOM     29  C   UNL     1       4.008   2.992 -22.373  0.00  0.00    +0.004 A 
ATOM     30  C   UNL     1       2.773   3.204 -22.627  0.00  0.00    +0.046 A 
ENDBRANCH  24  25
ENDBRANCH  21  24
TORSDOF 3
ENDMDL
MODEL 4
REMARK VINA RESULT:    -7.479      2.788      7.135
REMARK INTER + INTRA:          -9.423
REMARK INTER:                  -9.192
REMARK INTRA:                  -0.231
REMARK UNBOUND:                -0.632
REMARK  Name = COc1ccc2c(c1Oc1ccccc1)[C@@]13CCN(C)[C@H](C2)[C@@H]1[C@@H](C)CC(=O)C3 ZINC000100393769
REMARK  6 active torsions:
REMARK  status: ('A' for Active; 'I' for Inactive)
REMARK    1  A    between atoms: C_1  and  O_2
REMARK    2  A    between atoms: O_2  and  C_3
REMARK    3  A    between atoms: C_8  and  O_9
REMARK    4  A    between atoms: O_9  and  C_10
REMARK    5  A    between atoms: N_19  and  C_20
REMARK    6  A    between atoms: C_24  and  C_25
REMARK                            x       y       z     vdW  Elec       q    Type
REMARK                         _______ _______ _______ _____ _____    ______ ____
ROOT
ATOM      1  C   UNL     1       1.856   5.186 -23.410  0.00  0.00    +0.162 A 
ATOM      2  C   UNL     1       2.823   5.995 -23.408  0.00  0.00    +0.050 A 
ATOM      3  C   UNL     1       3.967   5.571 -23.090  0.00  0.00    +0.008 A 
ATOM      4  C   UNL     1       4.130   4.160 -22.738  0.00  0.00    -0.035 A 
ATOM      5  C   UNL     1       3.274   3.544 -22.763  0.00  0.00    +0.009 A 
ATOM      6  C   UNL     1       3.159   2.619 -22.575  0.00  0.00    +0.019 C 
ATOM      7  C   UNL     1       3.162   4.256 -22.947  0.00  0.00    +0.063 C 
ATOM      8  C   UNL     1       4.416   5.008 -22.875  0.00  0.00    +0.132 C 
ATOM      9  N   UNL     1       5.395   4.455 -22.560  0.00  0.00    +0.236 N 
ATOM     10  H   UNL     1       6.043   3.724 -22.269  0.00  0.00    +0.203 HD
ATOM     11  C   UNL     1       5.417   2.917 -22.206  0.00  0.00    +0.073 C 
ATOM     12  C   UNL     1       6.078   5.584 -22.685  0.00  0.00    +0.190 C 
ATOM     13  C   UNL     1       2.144   1.883 -22.604  0.00  0.00    +0.086 C 
ATOM     14  C   UNL     1       2.257   0.632 -22.298  0.00  0.00    +0.134 C 
ATOM     15  O   UNL     1       1.230  -0.127 -22.324  0.00  0.00    -0.297 OA
ATOM     16  C   UNL     1       3.412   0.117 -21.957  0.00  0.00    +0.078 C 
ATOM     17  C   UNL     1       4.477   0.846 -21.917  0.00  0.00    +0.002 C 
ATOM     18  C   UNL     1       5.607   0.342 -21.584  0.00  0.00    +0.008 C 
ATOM     19  C   UNL     1       4.414   2.065 -22.206  0.00  0.00    +0.052 C 
ATOM     20  C   UNL     1       5.279   3.741 -22.420  0.00  0.00    +0.090 C 
ATOM     21  C   UNL     1       2.069   3.958 -23.090  0.00  0.00    +0.174 A 
ENDROOT
BRANCH   1  23
ATOM     22  C   UNL     1      -0.375   5.750 -22.937  0.00  0.00    +0.277 C 
ATOM     23  O   UNL     1       0.550   5.410 -23.714  0.00  0.00    -0.491 OA
ENDBRANCH   1  23
BRANCH  21  24
ATOM     24  O   UNL     1       1.098   2.704 -22.993  0.00  0.00    -0.452 OA
BRANCH  24  25
ATOM     25  C   UNL     1      -0.285   2.551 -22.853  0.00  0.00    +0.129 A 
ATOM     26  C   UNL     1      -0.706   2.569 -21.645  0.00  0.00    +0.046 A 
ATOM     27  C   UNL     1      -1.953   2.437 -21.405  0.00  0.00    +0.004 A 
ATOM     28  C   UNL     1      -2.777   2.290 -22.367  0.00  0.00    +0.000 A 
ATOM     29  C   UNL     1      -2.358   2.272 -23.576  0.00  0.00    +0.004 A 
ATOM     30  C   UNL     1      -1.110   2.404 -23.818  0.00  0.00    +0.046 A 
ENDBRANCH  24  25
ENDBRANCH  21  24
TORSDOF 3
ENDMDL
MODEL 5
REMARK VINA RESULT:    -7.022      3.763      6.433
REMARK INTER + INTRA:          -8.886
REMARK INTER:                  -8.120
REMARK INTRA:                  -0.766
REMARK UNBOUND:                -0.632
REMARK  Name = COc1ccc2c(c1Oc1ccccc1)[C@@]13CCN(C)[C@H](C2)[C@@H]1[C@@H](C)CC(=O)C3 ZINC000100393769
REMARK  6 active torsions:
REMARK  status: ('A' for Active; 'I' for Inactive)
REMARK    1  A    between atoms: C_1  and  O_2
REMARK    2  A    between atoms: O_2  and  C_3
REMARK    3  A    between atoms: C_8  and  O_9
REMARK    4  A    between atoms: O_9  and  C_10
REMARK    5  A    between atoms: N_19  and  C_20
REMARK    6  A    between atoms: C_24  and  C_25
REMARK                            x       y       z     vdW  Elec       q    Type
REMARK                         _______ _______ _______ _____ _____    ______ ____
ROOT
ATOM      1  C   UNL     1       3.441   5.909 -22.776  0.00  0.00    +0.162 A 
ATOM      2  C   UNL     1       2.295   6.201 -23.215  0.00  0.00    +0.050 A 
ATOM      3  C   UNL     1       1.490   5.265 -23.473  0.00  0.00    +0.008 A 
ATOM      4  C   UNL     1       1.912   3.881 -23.256  0.00  0.00    -0.035 A 
ATOM      5  C   UNL     1       2.886   3.716 -22.886  0.00  0.00    +0.009 A 
ATOM      6  C   UNL     1       3.352   2.914 -22.678  0.00  0.00    +0.019 C 
ATOM      7  C   UNL     1       2.699   4.429 -22.987  0.00  0.00    +0.063 C 
ATOM      8  C   UNL     1       1.331   4.531 -23.500  0.00  0.00    +0.132 C 
ATOM      9  N   UNL     1       0.717   3.555 -23.686  0.00  0.00    +0.236 N 
ATOM     10  H   UNL     1       0.457   2.571 -23.740  0.00  0.00    +0.203 HD
ATOM     11  C   UNL     1       1.311   2.121 -23.403  0.00  0.00    +0.073 C 
ATOM     12  C   UNL     1      -0.313   4.278 -24.101  0.00  0.00    +0.190 C 
ATOM     13  C   UNL     1       4.510   2.713 -22.238  0.00  0.00    +0.086 C 
ATOM     14  C   UNL     1       4.911   1.501 -22.036  0.00  0.00    +0.134 C 
ATOM     15  O   UNL     1       6.088   1.285 -21.589  0.00  0.00    -0.297 OA
ATOM     16  C   UNL     1       4.133   0.476 -22.281  0.00  0.00    +0.078 C 
ATOM     17  C   UNL     1       2.936   0.648 -22.734  0.00  0.00    +0.002 C 
ATOM     18  C   UNL     1       2.174  -0.355 -22.973  0.00  0.00    +0.008 C 
ATOM     19  C   UNL     1       2.504   1.806 -22.945  0.00  0.00    +0.052 C 
ATOM     20  C   UNL     1       1.100   2.950 -23.517  0.00  0.00    +0.090 C 
ATOM     21  C   UNL     1       3.748   4.670 -22.607  0.00  0.00    +0.174 A 
ENDROOT
BRANCH   1  23
ATOM     22  C   UNL     1       4.416   7.762 -21.713  0.00  0.00    +0.277 C 
ATOM     23  O   UNL     1       4.464   6.735 -22.431  0.00  0.00    -0.491 OA
ENDBRANCH   1  23
BRANCH  21  24
ATOM     24  O   UNL     1       5.074   3.969 -22.083  0.00  0.00    -0.452 OA
BRANCH  24  25
ATOM     25  C   UNL     1       6.408   4.372 -21.967  0.00  0.00    +0.129 A 
ATOM     26  C   UNL     1       7.041   4.449 -23.075  0.00  0.00    +0.046 A 
ATOM     27  C   UNL     1       8.268   4.808 -23.083  0.00  0.00    +0.004 A 
ATOM     28  C   UNL     1       8.858   5.088 -21.988  0.00  0.00    +0.000 A 
ATOM     29  C   UNL     1       8.225   5.011 -20.878  0.00  0.00    +0.004 A 
ATOM     30  C   UNL     1       6.999   4.652 -20.869  0.00  0.00    +0.046 A 
ENDBRANCH  24  25
ENDBRANCH  21  24
TORSDOF 3
ENDMDL
