MODEL 1
REMARK VINA RESULT:   -10.509      0.000      0.000
REMARK INTER + INTRA:         -12.521
REMARK INTER:                 -12.483
REMARK INTRA:                  -0.039
REMARK UNBOUND:                -0.169
REMARK  Name = ZINC000000968444
REMARK  7 active torsions:
REMARK  status: ('A' for Active; 'I' for Inactive)
REMARK    1  A    between atoms: C_1  and  C_2
REMARK    2  A    between atoms: C_2  and  C_3
REMARK    3  A    between atoms: C_4  and  C_5
REMARK    4  A    between atoms: C_5  and  C_6
REMARK    5  A    between atoms: C_6  and  C_7
REMARK    6  A    between atoms: C_7  and  C_8
REMARK    7  A    between atoms: C_13  and  C_14
REMARK                            x       y       z     vdW  Elec       q    Type
REMARK                         _______ _______ _______ _____ _____    ______ ____
ROOT
ATOM      1  C   UNL     1       2.459   1.896 -23.131  0.00  0.00    +0.127 C 
ATOM      2  C   UNL     1       1.881   1.471 -22.050  0.00  0.00    +0.021 C 
ATOM      3  C   UNL     1       0.609   1.669 -21.867  0.00  0.00    +0.013 C 
ATOM      4  C   UNL     1      -0.087   2.294 -22.771  0.00  0.00    +0.041 A 
ATOM      5  C   UNL     1       0.491   2.720 -23.856  0.00  0.00    +0.134 A 
ATOM      6  C   UNL     1      -0.204   3.345 -24.760  0.00  0.00    -0.007 A 
ATOM      7  C   UNL     1      -1.476   3.542 -24.578  0.00  0.00    +0.017 A 
ATOM      8  C   UNL     1      -2.052   3.117 -23.496  0.00  0.00    +0.008 A 
ATOM      9  C   UNL     1      -3.284   3.185 -23.081  0.00  0.00    +0.007 A 
ATOM     10  C   UNL     1      -4.353   3.702 -23.610  0.00  0.00    +0.010 A 
ATOM     11  C   UNL     1      -5.487   3.636 -22.977  0.00  0.00    +0.001 A 
ATOM     12  C   UNL     1      -5.553   3.053 -21.817  0.00  0.00    +0.002 A 
ATOM     13  C   UNL     1      -4.484   2.536 -21.289  0.00  0.00    +0.026 A 
ATOM     14  C   UNL     1      -3.348   2.602 -21.920  0.00  0.00    +0.047 A 
ATOM     15  N   UNL     1      -2.161   2.174 -21.617  0.00  0.00    -0.354 N 
ATOM     16  H   UNL     1      -1.910   1.693 -20.795  0.00  0.00    +0.166 HD
ATOM     17  C   UNL     1       0.372   3.772 -25.844  0.00  0.00    +0.047 C 
ATOM     18  C   UNL     1      -1.360   2.492 -22.591  0.00  0.00    +0.058 A 
ATOM     19  C   UNL     1       3.389   2.135 -24.008  0.00  0.00    +0.060 C 
ATOM     20  O   UNL     1       1.763   2.522 -24.037  0.00  0.00    -0.481 OA
ENDROOT
BRANCH   1  21
ATOM     21  C   UNL     1       3.476   1.355 -22.533  0.00  0.00    +0.056 C 
BRANCH  21  22
ATOM     22  C   UNL     1       4.666   1.852 -22.696  0.00  0.00    +0.031 C 
BRANCH  22  25
ATOM     23  C   UNL     1       6.783   3.889 -20.908  0.00  0.00    +0.038 C 
ATOM     24  C   UNL     1       6.168   3.334 -21.909  0.00  0.00    -0.080 C 
ATOM     25  C   UNL     1       5.282   2.408 -21.694  0.00  0.00    -0.028 C 
ATOM     26  C   UNL     1       6.439   3.704 -23.126  0.00  0.00    +0.038 C 
ENDBRANCH  22  25
ENDBRANCH  21  22
ENDBRANCH   1  21
TORSDOF 3
ENDMDL
MODEL 2
REMARK VINA RESULT:   -10.397      1.522      7.336
REMARK INTER + INTRA:         -12.390
REMARK INTER:                 -12.073
REMARK INTRA:                  -0.317
REMARK UNBOUND:                -0.169
REMARK  Name = ZINC000000968444
REMARK  7 active torsions:
REMARK  status: ('A' for Active; 'I' for Inactive)
REMARK    1  A    between atoms: C_1  and  C_2
REMARK    2  A    between atoms: C_2  and  C_3
REMARK    3  A    between atoms: C_4  and  C_5
REMARK    4  A    between atoms: C_5  and  C_6
REMARK    5  A    between atoms: C_6  and  C_7
REMARK    6  A    between atoms: C_7  and  C_8
REMARK    7  A    between atoms: C_13  and  C_14
REMARK                            x       y       z     vdW  Elec       q    Type
REMARK                         _______ _______ _______ _____ _____    ______ ____
ROOT
ATOM      1  C   UNL     1      -2.015   3.181 -24.149  0.00  0.00    +0.127 C 
ATOM      2  C   UNL     1      -2.015   2.350 -23.151  0.00  0.00    +0.021 C 
ATOM      3  C   UNL     1      -0.892   1.939 -22.642  0.00  0.00    +0.013 C 
ATOM      4  C   UNL     1       0.236   2.361 -23.133  0.00  0.00    +0.041 A 
ATOM      5  C   UNL     1       0.238   3.194 -24.133  0.00  0.00    +0.134 A 
ATOM      6  C   UNL     1       1.366   3.616 -24.625  0.00  0.00    -0.007 A 
ATOM      7  C   UNL     1       2.489   3.206 -24.116  0.00  0.00    +0.017 A 
ATOM      8  C   UNL     1       2.487   2.376 -23.119  0.00  0.00    +0.008 A 
ATOM      9  C   UNL     1       3.452   1.824 -22.443  0.00  0.00    +0.007 A 
ATOM     10  C   UNL     1       4.745   1.918 -22.538  0.00  0.00    +0.010 A 
ATOM     11  C   UNL     1       5.506   1.249 -21.723  0.00  0.00    +0.001 A 
ATOM     12  C   UNL     1       4.976   0.486 -20.814  0.00  0.00    +0.002 A 
ATOM     13  C   UNL     1       3.683   0.392 -20.719  0.00  0.00    +0.026 A 
ATOM     14  C   UNL     1       2.920   1.061 -21.533  0.00  0.00    +0.047 A 
ATOM     15  N   UNL     1       1.629   1.139 -21.646  0.00  0.00    -0.354 N 
ATOM     16  H   UNL     1       0.969   0.667 -21.088  0.00  0.00    +0.166 HD
ATOM     17  C   UNL     1       1.368   4.447 -25.624  0.00  0.00    +0.047 C 
ATOM     18  C   UNL     1       1.361   1.952 -22.625  0.00  0.00    +0.058 A 
ATOM     19  C   UNL     1      -2.456   3.960 -25.091  0.00  0.00    +0.060 C 
ATOM     20  O   UNL     1      -0.886   3.604 -24.642  0.00  0.00    -0.481 OA
ENDROOT
BRANCH   1  21
ATOM     21  C   UNL     1      -3.294   3.029 -23.985  0.00  0.00    +0.056 C 
BRANCH  21  22
ATOM     22  C   UNL     1      -3.928   3.754 -23.111  0.00  0.00    +0.031 C 
BRANCH  22  25
ATOM     23  C   UNL     1      -6.831   2.698 -21.600  0.00  0.00    +0.038 C 
ATOM     24  C   UNL     1      -5.567   2.905 -21.822  0.00  0.00    -0.080 C 
ATOM     25  C   UNL     1      -5.192   3.547 -22.889  0.00  0.00    -0.028 C 
ATOM     26  C   UNL     1      -4.678   2.472 -20.979  0.00  0.00    +0.038 C 
ENDBRANCH  22  25
ENDBRANCH  21  22
ENDBRANCH   1  21
TORSDOF 3
ENDMDL
MODEL 3
REMARK VINA RESULT:   -10.397      1.378      2.588
REMARK INTER + INTRA:         -12.389
REMARK INTER:                 -11.920
REMARK INTRA:                  -0.469
REMARK UNBOUND:                -0.169
REMARK  Name = ZINC000000968444
REMARK  7 active torsions:
REMARK  status: ('A' for Active; 'I' for Inactive)
REMARK    1  A    between atoms: C_1  and  C_2
REMARK    2  A    between atoms: C_2  and  C_3
REMARK    3  A    between atoms: C_4  and  C_5
REMARK    4  A    between atoms: C_5  and  C_6
REMARK    5  A    between atoms: C_6  and  C_7
REMARK    6  A    between atoms: C_7  and  C_8
REMARK    7  A    between atoms: C_13  and  C_14
REMARK                            x       y       z     vdW  Elec       q    Type
REMARK                         _______ _______ _______ _____ _____    ______ ____
ROOT
ATOM      1  C   UNL     1       2.857   2.736 -23.164  0.00  0.00    +0.127 C 
ATOM      2  C   UNL     1       2.506   3.436 -24.200  0.00  0.00    +0.021 C 
ATOM      3  C   UNL     1       1.253   3.701 -24.416  0.00  0.00    +0.013 C 
ATOM      4  C   UNL     1       0.345   3.264 -23.592  0.00  0.00    +0.041 A 
ATOM      5  C   UNL     1       0.695   2.563 -22.553  0.00  0.00    +0.134 A 
ATOM      6  C   UNL     1      -0.211   2.127 -21.729  0.00  0.00    -0.007 A 
ATOM      7  C   UNL     1      -1.465   2.392 -21.944  0.00  0.00    +0.017 A 
ATOM      8  C   UNL     1      -1.814   3.091 -22.980  0.00  0.00    +0.008 A 
ATOM      9  C   UNL     1      -2.975   3.486 -23.414  0.00  0.00    +0.007 A 
ATOM     10  C   UNL     1      -4.179   3.314 -22.955  0.00  0.00    +0.010 A 
ATOM     11  C   UNL     1      -5.194   3.823 -23.589  0.00  0.00    +0.001 A 
ATOM     12  C   UNL     1      -5.007   4.503 -24.680  0.00  0.00    +0.002 A 
ATOM     13  C   UNL     1      -3.802   4.675 -25.139  0.00  0.00    +0.026 A 
ATOM     14  C   UNL     1      -2.786   4.167 -24.506  0.00  0.00    +0.047 A 
ATOM     15  N   UNL     1      -1.511   4.193 -24.748  0.00  0.00    -0.354 N 
ATOM     16  H   UNL     1      -1.075   4.638 -25.512  0.00  0.00    +0.166 HD
ATOM     17  C   UNL     1       0.137   1.427 -20.691  0.00  0.00    +0.047 C 
ATOM     18  C   UNL     1      -0.910   3.529 -23.806  0.00  0.00    +0.058 A 
ATOM     19  C   UNL     1       3.611   2.112 -22.308  0.00  0.00    +0.060 C 
ATOM     20  O   UNL     1       1.950   2.299 -22.338  0.00  0.00    -0.481 OA
ENDROOT
BRANCH   1  21
ATOM     21  C   UNL     1       4.024   2.955 -23.690  0.00  0.00    +0.056 C 
BRANCH  21  22
ATOM     22  C   UNL     1       4.828   3.821 -23.149  0.00  0.00    +0.031 C 
BRANCH  22  25
ATOM     23  C   UNL     1       8.252   4.137 -23.243  0.00  0.00    +0.038 C 
ATOM     24  C   UNL     1       7.044   3.999 -22.785  0.00  0.00    -0.080 C 
ATOM     25  C   UNL     1       6.037   3.960 -23.607  0.00  0.00    -0.028 C 
ATOM     26  C   UNL     1       6.840   3.898 -21.505  0.00  0.00    +0.038 C 
ENDBRANCH  22  25
ENDBRANCH  21  22
ENDBRANCH   1  21
TORSDOF 3
ENDMDL
MODEL 4
REMARK VINA RESULT:   -10.072      2.257      7.954
REMARK INTER + INTRA:         -12.008
REMARK INTER:                 -11.802
REMARK INTRA:                  -0.206
REMARK UNBOUND:                -0.169
REMARK  Name = ZINC000000968444
REMARK  7 active torsions:
REMARK  status: ('A' for Active; 'I' for Inactive)
REMARK    1  A    between atoms: C_1  and  C_2
REMARK    2  A    between atoms: C_2  and  C_3
REMARK    3  A    between atoms: C_4  and  C_5
REMARK    4  A    between atoms: C_5  and  C_6
REMARK    5  A    between atoms: C_6  and  C_7
REMARK    6  A    between atoms: C_7  and  C_8
REMARK    7  A    between atoms: C_13  and  C_14
REMARK                            x       y       z     vdW  Elec       q    Type
REMARK                         _______ _______ _______ _____ _____    ______ ____
ROOT
ATOM      1  C   UNL     1       0.217   3.702 -23.857  0.00  0.00    +0.127 C 
ATOM      2  C   UNL     1       0.496   4.889 -23.410  0.00  0.00    +0.021 C 
ATOM      3  C   UNL     1       1.727   5.218 -23.154  0.00  0.00    +0.013 C 
ATOM      4  C   UNL     1       2.683   4.357 -23.347  0.00  0.00    +0.041 A 
ATOM      5  C   UNL     1       2.405   3.168 -23.795  0.00  0.00    +0.134 A 
ATOM      6  C   UNL     1       3.360   2.307 -23.988  0.00  0.00    -0.007 A 
ATOM      7  C   UNL     1       4.591   2.637 -23.733  0.00  0.00    +0.017 A 
ATOM      8  C   UNL     1       4.868   3.823 -23.286  0.00  0.00    +0.008 A 
ATOM      9  C   UNL     1       5.993   4.390 -22.959  0.00  0.00    +0.007 A 
ATOM     10  C   UNL     1       7.220   3.960 -22.971  0.00  0.00    +0.010 A 
ATOM     11  C   UNL     1       8.185   4.741 -22.587  0.00  0.00    +0.001 A 
ATOM     12  C   UNL     1       7.926   5.952 -22.193  0.00  0.00    +0.002 A 
ATOM     13  C   UNL     1       6.699   6.382 -22.181  0.00  0.00    +0.026 A 
ATOM     14  C   UNL     1       5.732   5.602 -22.565  0.00  0.00    +0.047 A 
ATOM     15  N   UNL     1       4.449   5.784 -22.646  0.00  0.00    -0.354 N 
ATOM     16  H   UNL     1       3.965   6.610 -22.412  0.00  0.00    +0.166 HD
ATOM     17  C   UNL     1       3.084   1.119 -24.436  0.00  0.00    +0.047 C 
ATOM     18  C   UNL     1       3.915   4.686 -23.092  0.00  0.00    +0.058 A 
ATOM     19  C   UNL     1      -0.474   2.690 -24.290  0.00  0.00    +0.060 C 
ATOM     20  O   UNL     1       1.173   2.839 -24.050  0.00  0.00    -0.481 OA
ENDROOT
BRANCH   1  21
ATOM     21  C   UNL     1      -0.977   4.211 -23.814  0.00  0.00    +0.056 C 
BRANCH  21  22
ATOM     22  C   UNL     1      -1.667   4.157 -22.714  0.00  0.00    +0.031 C 
BRANCH  22  25
ATOM     23  C   UNL     1      -4.787   3.142 -21.683  0.00  0.00    +0.038 C 
ATOM     24  C   UNL     1      -3.537   3.494 -21.648  0.00  0.00    -0.080 C 
ATOM     25  C   UNL     1      -2.919   3.805 -22.749  0.00  0.00    -0.028 C 
ATOM     26  C   UNL     1      -2.904   3.537 -20.513  0.00  0.00    +0.038 C 
ENDBRANCH  22  25
ENDBRANCH  21  22
ENDBRANCH   1  21
TORSDOF 3
ENDMDL
MODEL 5
REMARK VINA RESULT:    -9.022      1.982      3.803
REMARK INTER + INTRA:         -10.774
REMARK INTER:                 -10.276
REMARK INTRA:                  -0.497
REMARK UNBOUND:                -0.169
REMARK  Name = ZINC000000968444
REMARK  7 active torsions:
REMARK  status: ('A' for Active; 'I' for Inactive)
REMARK    1  A    between atoms: C_1  and  C_2
REMARK    2  A    between atoms: C_2  and  C_3
REMARK    3  A    between atoms: C_4  and  C_5
REMARK    4  A    between atoms: C_5  and  C_6
REMARK    5  A    between atoms: C_6  and  C_7
REMARK    6  A    between atoms: C_7  and  C_8
REMARK    7  A    between atoms: C_13  and  C_14
REMARK                            x       y       z     vdW  Elec       q    Type
REMARK                         _______ _______ _______ _____ _____    ______ ____
ROOT
ATOM      1  C   UNL     1       5.276   3.649 -22.742  0.00  0.00    +0.127 C 
ATOM      2  C   UNL     1       4.636   4.686 -23.190  0.00  0.00    +0.021 C 
ATOM      3  C   UNL     1       3.337   4.676 -23.253  0.00  0.00    +0.013 C 
ATOM      4  C   UNL     1       2.676   3.625 -22.865  0.00  0.00    +0.041 A 
ATOM      5  C   UNL     1       3.316   2.585 -22.416  0.00  0.00    +0.134 A 
ATOM      6  C   UNL     1       2.656   1.534 -22.028  0.00  0.00    -0.007 A 
ATOM      7  C   UNL     1       1.358   1.524 -22.091  0.00  0.00    +0.017 A 
ATOM      8  C   UNL     1       0.720   2.562 -22.539  0.00  0.00    +0.008 A 
ATOM      9  C   UNL     1      -0.549   2.802 -22.700  0.00  0.00    +0.007 A 
ATOM     10  C   UNL     1      -1.607   2.083 -22.466  0.00  0.00    +0.010 A 
ATOM     11  C   UNL     1      -2.787   2.564 -22.719  0.00  0.00    +0.001 A 
ATOM     12  C   UNL     1      -2.912   3.763 -23.206  0.00  0.00    +0.002 A 
ATOM     13  C   UNL     1      -1.854   4.482 -23.440  0.00  0.00    +0.026 A 
ATOM     14  C   UNL     1      -0.672   4.002 -23.187  0.00  0.00    +0.047 A 
ATOM     15  N   UNL     1       0.517   4.503 -23.327  0.00  0.00    -0.354 N 
ATOM     16  H   UNL     1       0.731   5.400 -23.676  0.00  0.00    +0.166 HD
ATOM     17  C   UNL     1       3.294   0.495 -21.579  0.00  0.00    +0.047 C 
ATOM     18  C   UNL     1       1.377   3.614 -22.927  0.00  0.00    +0.058 A 
ATOM     19  C   UNL     1       6.261   2.881 -22.384  0.00  0.00    +0.060 C 
ATOM     20  O   UNL     1       4.615   2.596 -22.354  0.00  0.00    -0.481 OA
ENDROOT
BRANCH   1  21
ATOM     21  C   UNL     1       6.277   4.432 -23.005  0.00  0.00    +0.056 C 
BRANCH  21  22
ATOM     22  C   UNL     1       7.085   4.795 -22.054  0.00  0.00    +0.031 C 
BRANCH  22  25
ATOM     23  C   UNL     1       8.080   7.877 -20.896  0.00  0.00    +0.038 C 
ATOM     24  C   UNL     1       7.602   6.669 -20.917  0.00  0.00    -0.080 C 
ATOM     25  C   UNL     1       7.564   6.004 -22.033  0.00  0.00    -0.028 C 
ATOM     26  C   UNL     1       7.161   6.124 -19.822  0.00  0.00    +0.038 C 
ENDBRANCH  22  25
ENDBRANCH  21  22
ENDBRANCH   1  21
TORSDOF 3
ENDMDL
MODEL 6
REMARK VINA RESULT:    -7.880      1.781      3.000
REMARK INTER + INTRA:          -9.431
REMARK INTER:                  -9.098
REMARK INTRA:                  -0.333
REMARK UNBOUND:                -0.169
REMARK  Name = ZINC000000968444
REMARK  7 active torsions:
REMARK  status: ('A' for Active; 'I' for Inactive)
REMARK    1  A    between atoms: C_1  and  C_2
REMARK    2  A    between atoms: C_2  and  C_3
REMARK    3  A    between atoms: C_4  and  C_5
REMARK    4  A    between atoms: C_5  and  C_6
REMARK    5  A    between atoms: C_6  and  C_7
REMARK    6  A    between atoms: C_7  and  C_8
REMARK    7  A    between atoms: C_13  and  C_14
REMARK                            x       y       z     vdW  Elec       q    Type
REMARK                         _______ _______ _______ _____ _____    ______ ____
ROOT
ATOM      1  C   UNL     1       1.445   1.594 -21.491  0.00  0.00    +0.127 C 
ATOM      2  C   UNL     1       1.682   1.606 -22.767  0.00  0.00    +0.021 C 
ATOM      3  C   UNL     1       0.754   1.972 -23.601  0.00  0.00    +0.013 C 
ATOM      4  C   UNL     1      -0.416   2.326 -23.155  0.00  0.00    +0.041 A 
ATOM      5  C   UNL     1      -0.655   2.314 -21.877  0.00  0.00    +0.134 A 
ATOM      6  C   UNL     1      -1.824   2.668 -21.430  0.00  0.00    -0.007 A 
ATOM      7  C   UNL     1      -2.752   3.033 -22.264  0.00  0.00    +0.017 A 
ATOM      8  C   UNL     1      -2.514   3.045 -23.539  0.00  0.00    +0.008 A 
ATOM      9  C   UNL     1      -3.255   3.362 -24.561  0.00  0.00    +0.007 A 
ATOM     10  C   UNL     1      -4.485   3.774 -24.649  0.00  0.00    +0.010 A 
ATOM     11  C   UNL     1      -5.002   4.028 -25.814  0.00  0.00    +0.001 A 
ATOM     12  C   UNL     1      -4.292   3.870 -26.891  0.00  0.00    +0.002 A 
ATOM     13  C   UNL     1      -3.062   3.458 -26.803  0.00  0.00    +0.026 A 
ATOM     14  C   UNL     1      -2.542   3.204 -25.638  0.00  0.00    +0.047 A 
ATOM     15  N   UNL     1      -1.364   2.790 -25.284  0.00  0.00    -0.354 N 
ATOM     16  H   UNL     1      -0.615   2.586 -25.891  0.00  0.00    +0.166 HD
ATOM     17  C   UNL     1      -2.063   2.656 -20.153  0.00  0.00    +0.047 C 
ATOM     18  C   UNL     1      -1.346   2.692 -23.988  0.00  0.00    +0.058 A 
ATOM     19  C   UNL     1       1.634   1.441 -20.214  0.00  0.00    +0.060 C 
ATOM     20  O   UNL     1       0.274   1.948 -21.044  0.00  0.00    -0.481 OA
ENDROOT
BRANCH   1  21
ATOM     21  C   UNL     1       2.678   1.187 -21.493  0.00  0.00    +0.056 C 
BRANCH  21  22
ATOM     22  C   UNL     1       3.604   1.917 -20.945  0.00  0.00    +0.031 C 
BRANCH  22  25
ATOM     23  C   UNL     1       6.491   2.611 -22.680  0.00  0.00    +0.038 C 
ATOM     24  C   UNL     1       5.266   2.688 -22.254  0.00  0.00    -0.080 C 
ATOM     25  C   UNL     1       4.830   1.840 -21.371  0.00  0.00    -0.028 C 
ATOM     26  C   UNL     1       4.475   3.614 -22.710  0.00  0.00    +0.038 C 
ENDBRANCH  22  25
ENDBRANCH  21  22
ENDBRANCH   1  21
TORSDOF 3
ENDMDL
MODEL 7
REMARK VINA RESULT:    -7.553      3.443      5.113
REMARK INTER + INTRA:          -9.047
REMARK INTER:                  -8.672
REMARK INTRA:                  -0.375
REMARK UNBOUND:                -0.169
REMARK  Name = ZINC000000968444
REMARK  7 active torsions:
REMARK  status: ('A' for Active; 'I' for Inactive)
REMARK    1  A    between atoms: C_1  and  C_2
REMARK    2  A    between atoms: C_2  and  C_3
REMARK    3  A    between atoms: C_4  and  C_5
REMARK    4  A    between atoms: C_5  and  C_6
REMARK    5  A    between atoms: C_6  and  C_7
REMARK    6  A    between atoms: C_7  and  C_8
REMARK    7  A    between atoms: C_13  and  C_14
REMARK                            x       y       z     vdW  Elec       q    Type
REMARK                         _______ _______ _______ _____ _____    ______ ____
ROOT
ATOM      1  C   UNL     1       5.478   6.161 -22.278  0.00  0.00    +0.127 C 
ATOM      2  C   UNL     1       4.487   6.992 -22.170  0.00  0.00    +0.021 C 
ATOM      3  C   UNL     1       3.283   6.620 -22.489  0.00  0.00    +0.013 C 
ATOM      4  C   UNL     1       3.070   5.411 -22.919  0.00  0.00    +0.041 A 
ATOM      5  C   UNL     1       4.062   4.577 -23.029  0.00  0.00    +0.134 A 
ATOM      6  C   UNL     1       3.850   3.368 -23.459  0.00  0.00    -0.007 A 
ATOM      7  C   UNL     1       2.647   2.996 -23.778  0.00  0.00    +0.017 A 
ATOM      8  C   UNL     1       1.657   3.828 -23.669  0.00  0.00    +0.008 A 
ATOM      9  C   UNL     1       0.386   3.707 -23.918  0.00  0.00    +0.007 A 
ATOM     10  C   UNL     1      -0.323   2.711 -24.360  0.00  0.00    +0.010 A 
ATOM     11  C   UNL     1      -1.605   2.850 -24.525  0.00  0.00    +0.001 A 
ATOM     12  C   UNL     1      -2.179   3.983 -24.250  0.00  0.00    +0.002 A 
ATOM     13  C   UNL     1      -1.470   4.979 -23.808  0.00  0.00    +0.026 A 
ATOM     14  C   UNL     1      -0.187   4.842 -23.641  0.00  0.00    +0.047 A 
ATOM     15  N   UNL     1       0.727   5.663 -23.223  0.00  0.00    -0.354 N 
ATOM     16  H   UNL     1       0.583   6.597 -22.941  0.00  0.00    +0.166 HD
ATOM     17  C   UNL     1       4.840   2.534 -23.568  0.00  0.00    +0.047 C 
ATOM     18  C   UNL     1       1.867   5.037 -23.240  0.00  0.00    +0.058 A 
ATOM     19  C   UNL     1       6.688   5.689 -22.233  0.00  0.00    +0.060 C 
ATOM     20  O   UNL     1       5.266   4.950 -22.709  0.00  0.00    -0.481 OA
ENDROOT
BRANCH   1  21
ATOM     21  C   UNL     1       6.110   7.204 -21.833  0.00  0.00    +0.056 C 
BRANCH  21  22
ATOM     22  C   UNL     1       7.273   7.517 -22.322  0.00  0.00    +0.031 C 
BRANCH  22  25
ATOM     23  C   UNL     1       8.627  10.361 -23.703  0.00  0.00    +0.038 C 
ATOM     24  C   UNL     1       8.312   9.113 -23.525  0.00  0.00    -0.080 C 
ATOM     25  C   UNL     1       7.589   8.765 -22.501  0.00  0.00    -0.028 C 
ATOM     26  C   UNL     1       8.718   8.211 -24.368  0.00  0.00    +0.038 C 
ENDBRANCH  22  25
ENDBRANCH  21  22
ENDBRANCH   1  21
TORSDOF 3
ENDMDL
