MODEL 1
REMARK VINA RESULT:    -8.632      0.000      0.000
REMARK INTER + INTRA:         -10.655
REMARK INTER:                 -10.458
REMARK INTRA:                  -0.197
REMARK UNBOUND:                 0.248
REMARK  Name = ZINC000013374378
REMARK  7 active torsions:
REMARK  status: ('A' for Active; 'I' for Inactive)
REMARK    1  A    between atoms: C_2  and  C_3
REMARK    2  A    between atoms: C_2  and  C_4
REMARK    3  A    between atoms: C_4  and  O_5
REMARK    4  A    between atoms: C_4  and  C_6
REMARK    5  A    between atoms: C_6  and  C_7
REMARK    6  A    between atoms: C_8  and  O_9
REMARK    7  A    between atoms: O_9  and  C_10
REMARK                            x       y       z     vdW  Elec       q    Type
REMARK                         _______ _______ _______ _____ _____    ______ ____
ROOT
ATOM      1  C   UNL     1      -1.734   3.200 -23.054  0.00  0.00    +0.040 A 
ATOM      2  C   UNL     1      -1.283   2.650 -21.967  0.00  0.00    +0.127 A 
ATOM      3  C   UNL     1      -2.106   2.309 -21.020  0.00  0.00    +0.047 A 
ATOM      4  C   UNL     1      -3.381   2.518 -21.161  0.00  0.00    +0.015 A 
ATOM      5  C   UNL     1      -3.833   3.068 -22.249  0.00  0.00    +0.018 A 
ATOM      6  C   UNL     1      -5.108   3.277 -22.391  0.00  0.00    +0.018 A 
ATOM      7  C   UNL     1      -5.560   3.827 -23.479  0.00  0.00    +0.092 A 
ATOM      8  C   UNL     1      -4.737   4.168 -24.425  0.00  0.00    +0.337 A 
ATOM      9  O   UNL     1      -3.461   3.959 -24.283  0.00  0.00    -0.422 OA
ATOM     10  O   UNL     1      -5.188   4.718 -25.513  0.00  0.00    -0.245 OA
ATOM     11  C   UNL     1      -3.009   3.409 -23.195  0.00  0.00    +0.146 A 
ENDROOT
BRANCH   2  12
ATOM     12  O   UNL     1      -0.007   2.441 -21.825  0.00  0.00    -0.495 OA
ATOM     13  C   UNL     1       0.413   1.473 -21.066  0.00  0.00    +0.277 C 
ENDBRANCH   2  12
BRANCH   1  14
ATOM     14  C   UNL     1      -0.911   3.542 -24.001  0.00  0.00    +0.078 C 
BRANCH  14  15
ATOM     15  C   UNL     1      -0.145   4.581 -23.852  0.00  0.00    +0.144 C 
BRANCH  15  17
ATOM     16  C   UNL     1       2.038   5.051 -23.569  0.00  0.00    +0.010 C 
ATOM     17  C   UNL     1       1.078   4.556 -24.291  0.00  0.00    -0.051 C 
ATOM     18  C   UNL     1       1.342   4.035 -25.453  0.00  0.00    +0.041 C 
ENDBRANCH  15  17
BRANCH  15  19
ATOM     19  O   UNL     1      -0.603   5.647 -23.265  0.00  0.00    -0.387 OA
ATOM     20  H   UNL     1      -1.132   6.161 -23.895  0.00  0.00    +0.210 HD
ENDBRANCH  15  19
ENDBRANCH  14  15
ENDBRANCH   1  14
TORSDOF 5
ENDMDL
MODEL 2
REMARK VINA RESULT:    -8.324      1.460      5.519
REMARK INTER + INTRA:         -10.266
REMARK INTER:                  -9.862
REMARK INTRA:                  -0.404
REMARK UNBOUND:                 0.248
REMARK  Name = ZINC000013374378
REMARK  7 active torsions:
REMARK  status: ('A' for Active; 'I' for Inactive)
REMARK    1  A    between atoms: C_2  and  C_3
REMARK    2  A    between atoms: C_2  and  C_4
REMARK    3  A    between atoms: C_4  and  O_5
REMARK    4  A    between atoms: C_4  and  C_6
REMARK    5  A    between atoms: C_6  and  C_7
REMARK    6  A    between atoms: C_8  and  O_9
REMARK    7  A    between atoms: O_9  and  C_10
REMARK                            x       y       z     vdW  Elec       q    Type
REMARK                         _______ _______ _______ _____ _____    ______ ____
ROOT
ATOM      1  C   UNL     1      -1.635   3.905 -23.432  0.00  0.00    +0.040 A 
ATOM      2  C   UNL     1      -2.606   3.829 -24.293  0.00  0.00    +0.127 A 
ATOM      3  C   UNL     1      -2.344   3.661 -25.555  0.00  0.00    +0.047 A 
ATOM      4  C   UNL     1      -1.112   3.568 -25.956  0.00  0.00    +0.015 A 
ATOM      5  C   UNL     1      -0.141   3.643 -25.096  0.00  0.00    +0.018 A 
ATOM      6  C   UNL     1       1.093   3.550 -25.497  0.00  0.00    +0.018 A 
ATOM      7  C   UNL     1       2.064   3.626 -24.636  0.00  0.00    +0.092 A 
ATOM      8  C   UNL     1       1.802   3.794 -23.374  0.00  0.00    +0.337 A 
ATOM      9  O   UNL     1       0.569   3.887 -22.973  0.00  0.00    -0.422 OA
ATOM     10  O   UNL     1       2.773   3.870 -22.513  0.00  0.00    -0.245 OA
ATOM     11  C   UNL     1      -0.402   3.812 -23.833  0.00  0.00    +0.146 A 
ENDROOT
BRANCH   2  12
ATOM     12  O   UNL     1      -3.840   3.922 -23.891  0.00  0.00    -0.495 OA
ATOM     13  C   UNL     1      -4.800   4.030 -24.761  0.00  0.00    +0.277 C 
ENDBRANCH   2  12
BRANCH   1  14
ATOM     14  C   UNL     1      -1.897   4.073 -22.170  0.00  0.00    +0.078 C 
BRANCH  14  15
ATOM     15  C   UNL     1      -2.165   3.046 -21.419  0.00  0.00    +0.144 C 
BRANCH  15  17
ATOM     16  C   UNL     1      -4.229   2.293 -20.926  0.00  0.00    +0.010 C 
ATOM     17  C   UNL     1      -3.215   3.059 -20.652  0.00  0.00    -0.051 C 
ATOM     18  C   UNL     1      -3.251   3.837 -19.612  0.00  0.00    +0.041 C 
ENDBRANCH  15  17
BRANCH  15  19
ATOM     19  O   UNL     1      -1.384   2.008 -21.435  0.00  0.00    -0.387 OA
ATOM     20  H   UNL     1      -0.459   2.299 -21.427  0.00  0.00    +0.210 HD
ENDBRANCH  15  19
ENDBRANCH  14  15
ENDBRANCH   1  14
TORSDOF 5
ENDMDL
MODEL 3
REMARK VINA RESULT:    -8.285      1.732      3.296
REMARK INTER + INTRA:         -10.217
REMARK INTER:                 -10.014
REMARK INTRA:                  -0.203
REMARK UNBOUND:                 0.248
REMARK  Name = ZINC000013374378
REMARK  7 active torsions:
REMARK  status: ('A' for Active; 'I' for Inactive)
REMARK    1  A    between atoms: C_2  and  C_3
REMARK    2  A    between atoms: C_2  and  C_4
REMARK    3  A    between atoms: C_4  and  O_5
REMARK    4  A    between atoms: C_4  and  C_6
REMARK    5  A    between atoms: C_6  and  C_7
REMARK    6  A    between atoms: C_8  and  O_9
REMARK    7  A    between atoms: O_9  and  C_10
REMARK                            x       y       z     vdW  Elec       q    Type
REMARK                         _______ _______ _______ _____ _____    ______ ____
ROOT
ATOM      1  C   UNL     1      -1.572   3.474 -23.320  0.00  0.00    +0.040 A 
ATOM      2  C   UNL     1      -0.359   3.048 -23.130  0.00  0.00    +0.127 A 
ATOM      3  C   UNL     1      -0.099   2.247 -22.139  0.00  0.00    +0.047 A 
ATOM      4  C   UNL     1      -1.052   1.872 -21.339  0.00  0.00    +0.015 A 
ATOM      5  C   UNL     1      -2.265   2.299 -21.530  0.00  0.00    +0.018 A 
ATOM      6  C   UNL     1      -3.220   1.924 -20.729  0.00  0.00    +0.018 A 
ATOM      7  C   UNL     1      -4.433   2.351 -20.920  0.00  0.00    +0.092 A 
ATOM      8  C   UNL     1      -4.692   3.152 -21.910  0.00  0.00    +0.337 A 
ATOM      9  O   UNL     1      -3.738   3.526 -22.710  0.00  0.00    -0.422 OA
ATOM     10  O   UNL     1      -5.905   3.579 -22.100  0.00  0.00    -0.245 OA
ATOM     11  C   UNL     1      -2.525   3.100 -22.520  0.00  0.00    +0.146 A 
ENDROOT
BRANCH   2  12
ATOM     12  O   UNL     1       0.595   3.422 -23.930  0.00  0.00    -0.495 OA
ATOM     13  C   UNL     1       1.486   2.562 -24.327  0.00  0.00    +0.277 C 
ENDBRANCH   2  12
BRANCH   1  14
ATOM     14  C   UNL     1      -1.832   4.275 -24.311  0.00  0.00    +0.078 C 
BRANCH  14  15
ATOM     15  C   UNL     1      -2.198   3.791 -25.460  0.00  0.00    +0.144 C 
BRANCH  15  17
ATOM     16  C   UNL     1      -3.973   2.813 -26.441  0.00  0.00    +0.010 C 
ATOM     17  C   UNL     1      -3.450   3.821 -25.808  0.00  0.00    -0.051 C 
ATOM     18  C   UNL     1      -4.179   4.859 -25.524  0.00  0.00    +0.041 C 
ENDBRANCH  15  17
BRANCH  15  19
ATOM     19  O   UNL     1      -1.313   3.276 -26.260  0.00  0.00    -0.387 OA
ATOM     20  H   UNL     1      -1.762   2.774 -26.959  0.00  0.00    +0.210 HD
ENDBRANCH  15  19
ENDBRANCH  14  15
ENDBRANCH   1  14
TORSDOF 5
ENDMDL
MODEL 4
REMARK VINA RESULT:    -8.253      1.850      4.691
REMARK INTER + INTRA:         -10.176
REMARK INTER:                  -9.854
REMARK INTRA:                  -0.323
REMARK UNBOUND:                 0.248
REMARK  Name = ZINC000013374378
REMARK  7 active torsions:
REMARK  status: ('A' for Active; 'I' for Inactive)
REMARK    1  A    between atoms: C_2  and  C_3
REMARK    2  A    between atoms: C_2  and  C_4
REMARK    3  A    between atoms: C_4  and  O_5
REMARK    4  A    between atoms: C_4  and  C_6
REMARK    5  A    between atoms: C_6  and  C_7
REMARK    6  A    between atoms: C_8  and  O_9
REMARK    7  A    between atoms: O_9  and  C_10
REMARK                            x       y       z     vdW  Elec       q    Type
REMARK                         _______ _______ _______ _____ _____    ______ ____
ROOT
ATOM      1  C   UNL     1      -1.674   3.392 -23.150  0.00  0.00    +0.040 A 
ATOM      2  C   UNL     1      -2.585   3.062 -22.284  0.00  0.00    +0.127 A 
ATOM      3  C   UNL     1      -2.299   2.235 -21.322  0.00  0.00    +0.047 A 
ATOM      4  C   UNL     1      -1.102   1.739 -21.227  0.00  0.00    +0.015 A 
ATOM      5  C   UNL     1      -0.190   2.070 -22.093  0.00  0.00    +0.018 A 
ATOM      6  C   UNL     1       1.008   1.573 -21.997  0.00  0.00    +0.018 A 
ATOM      7  C   UNL     1       1.919   1.904 -22.863  0.00  0.00    +0.092 A 
ATOM      8  C   UNL     1       1.633   2.730 -23.825  0.00  0.00    +0.337 A 
ATOM      9  O   UNL     1       0.435   3.226 -23.921  0.00  0.00    -0.422 OA
ATOM     10  O   UNL     1       2.544   3.060 -24.691  0.00  0.00    -0.245 OA
ATOM     11  C   UNL     1      -0.477   2.896 -23.055  0.00  0.00    +0.146 A 
ENDROOT
BRANCH   2  12
ATOM     12  O   UNL     1      -3.783   3.558 -22.380  0.00  0.00    -0.495 OA
ATOM     13  C   UNL     1      -4.784   2.955 -21.810  0.00  0.00    +0.277 C 
ENDBRANCH   2  12
BRANCH   1  14
ATOM     14  C   UNL     1      -1.960   4.219 -24.112  0.00  0.00    +0.078 C 
BRANCH  14  15
ATOM     15  C   UNL     1      -2.296   3.764 -25.282  0.00  0.00    +0.144 C 
BRANCH  15  17
ATOM     16  C   UNL     1      -4.284   4.819 -25.326  0.00  0.00    +0.010 C 
ATOM     17  C   UNL     1      -3.537   3.812 -25.667  0.00  0.00    -0.051 C 
ATOM     18  C   UNL     1      -4.031   2.853 -26.392  0.00  0.00    +0.041 C 
ENDBRANCH  15  17
BRANCH  15  19
ATOM     19  O   UNL     1      -1.392   3.260 -26.068  0.00  0.00    -0.387 OA
ATOM     20  H   UNL     1      -1.823   2.763 -26.780  0.00  0.00    +0.210 HD
ENDBRANCH  15  19
ENDBRANCH  14  15
ENDBRANCH   1  14
TORSDOF 5
ENDMDL
MODEL 5
REMARK VINA RESULT:    -8.151      1.542      3.845
REMARK INTER + INTRA:         -10.048
REMARK INTER:                  -9.774
REMARK INTRA:                  -0.274
REMARK UNBOUND:                 0.248
REMARK  Name = ZINC000013374378
REMARK  7 active torsions:
REMARK  status: ('A' for Active; 'I' for Inactive)
REMARK    1  A    between atoms: C_2  and  C_3
REMARK    2  A    between atoms: C_2  and  C_4
REMARK    3  A    between atoms: C_4  and  O_5
REMARK    4  A    between atoms: C_4  and  C_6
REMARK    5  A    between atoms: C_6  and  C_7
REMARK    6  A    between atoms: C_8  and  O_9
REMARK    7  A    between atoms: O_9  and  C_10
REMARK                            x       y       z     vdW  Elec       q    Type
REMARK                         _______ _______ _______ _____ _____    ______ ____
ROOT
ATOM      1  C   UNL     1      -1.356   3.738 -23.351  0.00  0.00    +0.040 A 
ATOM      2  C   UNL     1      -0.134   3.650 -23.784  0.00  0.00    +0.127 A 
ATOM      3  C   UNL     1       0.098   3.535 -25.058  0.00  0.00    +0.047 A 
ATOM      4  C   UNL     1      -0.892   3.509 -25.899  0.00  0.00    +0.015 A 
ATOM      5  C   UNL     1      -2.114   3.598 -25.467  0.00  0.00    +0.018 A 
ATOM      6  C   UNL     1      -3.106   3.572 -26.308  0.00  0.00    +0.018 A 
ATOM      7  C   UNL     1      -4.328   3.661 -25.875  0.00  0.00    +0.092 A 
ATOM      8  C   UNL     1      -4.560   3.775 -24.601  0.00  0.00    +0.337 A 
ATOM      9  O   UNL     1      -3.569   3.801 -23.760  0.00  0.00    -0.422 OA
ATOM     10  O   UNL     1      -5.782   3.864 -24.169  0.00  0.00    -0.245 OA
ATOM     11  C   UNL     1      -2.346   3.712 -24.193  0.00  0.00    +0.146 A 
ENDROOT
BRANCH   2  12
ATOM     12  O   UNL     1       0.858   3.675 -22.943  0.00  0.00    -0.495 OA
ATOM     13  C   UNL     1       1.747   2.728 -22.957  0.00  0.00    +0.277 C 
ENDBRANCH   2  12
BRANCH   1  14
ATOM     14  C   UNL     1      -1.588   3.853 -22.078  0.00  0.00    +0.078 C 
BRANCH  14  15
ATOM     15  C   UNL     1      -2.023   2.831 -21.402  0.00  0.00    +0.144 C 
BRANCH  15  17
ATOM     16  C   UNL     1      -3.144   3.893 -19.764  0.00  0.00    +0.010 C 
ATOM     17  C   UNL     1      -3.080   2.949 -20.654  0.00  0.00    -0.051 C 
ATOM     18  C   UNL     1      -4.072   2.121 -20.796  0.00  0.00    +0.041 C 
ENDBRANCH  15  17
BRANCH  15  19
ATOM     19  O   UNL     1      -1.401   1.692 -21.474  0.00  0.00    -0.387 OA
ATOM     20  H   UNL     1      -1.480   1.226 -20.626  0.00  0.00    +0.210 HD
ENDBRANCH  15  19
ENDBRANCH  14  15
ENDBRANCH   1  14
TORSDOF 5
ENDMDL
MODEL 6
REMARK VINA RESULT:    -8.129      1.744      5.729
REMARK INTER + INTRA:         -10.019
REMARK INTER:                  -9.887
REMARK INTRA:                  -0.132
REMARK UNBOUND:                 0.248
REMARK  Name = ZINC000013374378
REMARK  7 active torsions:
REMARK  status: ('A' for Active; 'I' for Inactive)
REMARK    1  A    between atoms: C_2  and  C_3
REMARK    2  A    between atoms: C_2  and  C_4
REMARK    3  A    between atoms: C_4  and  O_5
REMARK    4  A    between atoms: C_4  and  C_6
REMARK    5  A    between atoms: C_6  and  C_7
REMARK    6  A    between atoms: C_8  and  O_9
REMARK    7  A    between atoms: O_9  and  C_10
REMARK                            x       y       z     vdW  Elec       q    Type
REMARK                         _______ _______ _______ _____ _____    ______ ____
ROOT
ATOM      1  C   UNL     1      -0.697   2.892 -23.525  0.00  0.00    +0.040 A 
ATOM      2  C   UNL     1      -0.916   3.461 -24.673  0.00  0.00    +0.127 A 
ATOM      3  C   UNL     1       0.074   3.694 -25.483  0.00  0.00    +0.047 A 
ATOM      4  C   UNL     1       1.283   3.358 -25.144  0.00  0.00    +0.015 A 
ATOM      5  C   UNL     1       1.502   2.789 -23.996  0.00  0.00    +0.018 A 
ATOM      6  C   UNL     1       2.711   2.452 -23.657  0.00  0.00    +0.018 A 
ATOM      7  C   UNL     1       2.930   1.883 -22.509  0.00  0.00    +0.092 A 
ATOM      8  C   UNL     1       1.940   1.651 -21.699  0.00  0.00    +0.337 A 
ATOM      9  O   UNL     1       0.730   1.987 -22.039  0.00  0.00    -0.422 OA
ATOM     10  O   UNL     1       2.158   1.082 -20.551  0.00  0.00    -0.245 OA
ATOM     11  C   UNL     1       0.511   2.556 -23.187  0.00  0.00    +0.146 A 
ENDROOT
BRANCH   2  12
ATOM     12  O   UNL     1      -2.126   3.798 -25.012  0.00  0.00    -0.495 OA
ATOM     13  C   UNL     1      -2.609   3.418 -26.158  0.00  0.00    +0.277 C 
ENDBRANCH   2  12
BRANCH   1  14
ATOM     14  C   UNL     1      -1.688   2.660 -22.716  0.00  0.00    +0.078 C 
BRANCH  14  15
ATOM     15  C   UNL     1      -2.154   3.615 -21.967  0.00  0.00    +0.144 C 
BRANCH  15  17
ATOM     16  C   UNL     1      -3.076   3.769 -19.919  0.00  0.00    +0.010 C 
ATOM     17  C   UNL     1      -3.144   3.382 -21.158  0.00  0.00    -0.051 C 
ATOM     18  C   UNL     1      -4.203   2.763 -21.588  0.00  0.00    +0.041 C 
ENDBRANCH  15  17
BRANCH  15  19
ATOM     19  O   UNL     1      -1.629   4.802 -22.028  0.00  0.00    -0.387 OA
ATOM     20  H   UNL     1      -2.059   5.379 -21.377  0.00  0.00    +0.210 HD
ENDBRANCH  15  19
ENDBRANCH  14  15
ENDBRANCH   1  14
TORSDOF 5
ENDMDL
MODEL 7
REMARK VINA RESULT:    -7.735      1.643      2.391
REMARK INTER + INTRA:          -9.522
REMARK INTER:                  -9.203
REMARK INTRA:                  -0.319
REMARK UNBOUND:                 0.248
REMARK  Name = ZINC000013374378
REMARK  7 active torsions:
REMARK  status: ('A' for Active; 'I' for Inactive)
REMARK    1  A    between atoms: C_2  and  C_3
REMARK    2  A    between atoms: C_2  and  C_4
REMARK    3  A    between atoms: C_4  and  O_5
REMARK    4  A    between atoms: C_4  and  C_6
REMARK    5  A    between atoms: C_6  and  C_7
REMARK    6  A    between atoms: C_8  and  O_9
REMARK    7  A    between atoms: O_9  and  C_10
REMARK                            x       y       z     vdW  Elec       q    Type
REMARK                         _______ _______ _______ _____ _____    ______ ____
ROOT
ATOM      1  C   UNL     1       0.575   2.394 -23.156  0.00  0.00    +0.040 A 
ATOM      2  C   UNL     1       1.023   1.824 -22.077  0.00  0.00    +0.127 A 
ATOM      3  C   UNL     1       0.203   1.517 -21.116  0.00  0.00    +0.047 A 
ATOM      4  C   UNL     1      -1.064   1.780 -21.233  0.00  0.00    +0.015 A 
ATOM      5  C   UNL     1      -1.512   2.351 -22.312  0.00  0.00    +0.018 A 
ATOM      6  C   UNL     1      -2.780   2.615 -22.430  0.00  0.00    +0.018 A 
ATOM      7  C   UNL     1      -3.227   3.185 -23.509  0.00  0.00    +0.092 A 
ATOM      8  C   UNL     1      -2.407   3.492 -24.470  0.00  0.00    +0.337 A 
ATOM      9  O   UNL     1      -1.140   3.228 -24.352  0.00  0.00    -0.422 OA
ATOM     10  O   UNL     1      -2.855   4.063 -25.549  0.00  0.00    -0.245 OA
ATOM     11  C   UNL     1      -0.692   2.658 -23.273  0.00  0.00    +0.146 A 
ENDROOT
BRANCH   2  12
ATOM     12  O   UNL     1       2.291   1.560 -21.959  0.00  0.00    -0.495 OA
ATOM     13  C   UNL     1       2.781   1.229 -20.801  0.00  0.00    +0.277 C 
ENDBRANCH   2  12
BRANCH   1  14
ATOM     14  C   UNL     1       1.395   2.702 -24.117  0.00  0.00    +0.078 C 
BRANCH  14  15
ATOM     15  C   UNL     1       1.744   3.940 -24.302  0.00  0.00    +0.144 C 
BRANCH  15  17
ATOM     16  C   UNL     1       2.607   5.571 -23.013  0.00  0.00    +0.010 C 
ATOM     17  C   UNL     1       2.744   4.440 -23.638  0.00  0.00    -0.051 C 
ATOM     18  C   UNL     1       3.879   3.809 -23.599  0.00  0.00    +0.041 C 
ENDBRANCH  15  17
BRANCH  15  19
ATOM     19  O   UNL     1       1.095   4.677 -25.152  0.00  0.00    -0.387 OA
ATOM     20  H   UNL     1       0.230   4.277 -25.333  0.00  0.00    +0.210 HD
ENDBRANCH  15  19
ENDBRANCH  14  15
ENDBRANCH   1  14
TORSDOF 5
ENDMDL
MODEL 8
REMARK VINA RESULT:    -7.445      3.148      6.392
REMARK INTER + INTRA:          -9.156
REMARK INTER:                  -8.734
REMARK INTRA:                  -0.422
REMARK UNBOUND:                 0.248
REMARK  Name = ZINC000013374378
REMARK  7 active torsions:
REMARK  status: ('A' for Active; 'I' for Inactive)
REMARK    1  A    between atoms: C_2  and  C_3
REMARK    2  A    between atoms: C_2  and  C_4
REMARK    3  A    between atoms: C_4  and  O_5
REMARK    4  A    between atoms: C_4  and  C_6
REMARK    5  A    between atoms: C_6  and  C_7
REMARK    6  A    between atoms: C_8  and  O_9
REMARK    7  A    between atoms: O_9  and  C_10
REMARK                            x       y       z     vdW  Elec       q    Type
REMARK                         _______ _______ _______ _____ _____    ______ ____
ROOT
ATOM      1  C   UNL     1       2.296   2.774 -23.067  0.00  0.00    +0.040 A 
ATOM      2  C   UNL     1       1.584   1.852 -22.490  0.00  0.00    +0.127 A 
ATOM      3  C   UNL     1       2.100   1.134 -21.537  0.00  0.00    +0.047 A 
ATOM      4  C   UNL     1       3.327   1.338 -21.160  0.00  0.00    +0.015 A 
ATOM      5  C   UNL     1       4.039   2.260 -21.737  0.00  0.00    +0.018 A 
ATOM      6  C   UNL     1       5.267   2.465 -21.361  0.00  0.00    +0.018 A 
ATOM      7  C   UNL     1       5.978   3.387 -21.938  0.00  0.00    +0.092 A 
ATOM      8  C   UNL     1       5.463   4.105 -22.891  0.00  0.00    +0.337 A 
ATOM      9  O   UNL     1       4.235   3.900 -23.267  0.00  0.00    -0.422 OA
ATOM     10  O   UNL     1       6.175   5.027 -23.468  0.00  0.00    -0.245 OA
ATOM     11  C   UNL     1       3.523   2.978 -22.690  0.00  0.00    +0.146 A 
ENDROOT
BRANCH   2  12
ATOM     12  O   UNL     1       0.357   1.648 -22.866  0.00  0.00    -0.495 OA
ATOM     13  C   UNL     1      -0.565   1.417 -21.979  0.00  0.00    +0.277 C 
ENDBRANCH   2  12
BRANCH   1  14
ATOM     14  C   UNL     1       1.781   3.492 -24.020  0.00  0.00    +0.078 C 
BRANCH  14  15
ATOM     15  C   UNL     1       1.158   4.598 -23.738  0.00  0.00    +0.144 C 
BRANCH  15  17
ATOM     16  C   UNL     1      -0.791   5.152 -22.758  0.00  0.00    +0.010 C 
ATOM     17  C   UNL     1      -0.141   4.635 -23.757  0.00  0.00    -0.051 C 
ATOM     18  C   UNL     1      -0.790   4.156 -24.776  0.00  0.00    +0.041 C 
ENDBRANCH  15  17
BRANCH  15  19
ATOM     19  O   UNL     1       1.835   5.665 -23.436  0.00  0.00    -0.387 OA
ATOM     20  H   UNL     1       2.673   5.666 -23.924  0.00  0.00    +0.210 HD
ENDBRANCH  15  19
ENDBRANCH  14  15
ENDBRANCH   1  14
TORSDOF 5
ENDMDL
MODEL 9
REMARK VINA RESULT:    -7.083      1.967      3.296
REMARK INTER + INTRA:          -8.699
REMARK INTER:                  -8.947
REMARK INTRA:                   0.248
REMARK UNBOUND:                 0.248
REMARK  Name = ZINC000013374378
REMARK  7 active torsions:
REMARK  status: ('A' for Active; 'I' for Inactive)
REMARK    1  A    between atoms: C_2  and  C_3
REMARK    2  A    between atoms: C_2  and  C_4
REMARK    3  A    between atoms: C_4  and  O_5
REMARK    4  A    between atoms: C_4  and  C_6
REMARK    5  A    between atoms: C_6  and  C_7
REMARK    6  A    between atoms: C_8  and  O_9
REMARK    7  A    between atoms: O_9  and  C_10
REMARK                            x       y       z     vdW  Elec       q    Type
REMARK                         _______ _______ _______ _____ _____    ______ ____
ROOT
ATOM      1  C   UNL     1      -0.328   3.464 -23.674  0.00  0.00    +0.040 A 
ATOM      2  C   UNL     1      -0.217   3.446 -24.969  0.00  0.00    +0.127 A 
ATOM      3  C   UNL     1      -1.284   3.426 -25.713  0.00  0.00    +0.047 A 
ATOM      4  C   UNL     1      -2.460   3.425 -25.161  0.00  0.00    +0.015 A 
ATOM      5  C   UNL     1      -2.571   3.444 -23.866  0.00  0.00    +0.018 A 
ATOM      6  C   UNL     1      -3.748   3.443 -23.313  0.00  0.00    +0.018 A 
ATOM      7  C   UNL     1      -3.858   3.462 -22.018  0.00  0.00    +0.092 A 
ATOM      8  C   UNL     1      -2.792   3.481 -21.275  0.00  0.00    +0.337 A 
ATOM      9  O   UNL     1      -1.615   3.482 -21.828  0.00  0.00    -0.422 OA
ATOM     10  O   UNL     1      -2.902   3.500 -19.980  0.00  0.00    -0.245 OA
ATOM     11  C   UNL     1      -1.504   3.464 -23.123  0.00  0.00    +0.146 A 
ENDROOT
BRANCH   2  12
ATOM     12  O   UNL     1       0.960   3.447 -25.522  0.00  0.00    -0.495 OA
ATOM     13  C   UNL     1       1.505   2.326 -25.892  0.00  0.00    +0.277 C 
ENDBRANCH   2  12
BRANCH   1  14
ATOM     14  C   UNL     1       0.739   3.484 -22.931  0.00  0.00    +0.078 C 
BRANCH  14  15
ATOM     15  C   UNL     1       1.594   4.456 -23.047  0.00  0.00    +0.144 C 
BRANCH  15  17
ATOM     16  C   UNL     1       3.283   3.014 -22.679  0.00  0.00    +0.010 C 
ATOM     17  C   UNL     1       2.867   4.219 -22.930  0.00  0.00    -0.051 C 
ATOM     18  C   UNL     1       3.724   5.187 -23.066  0.00  0.00    +0.041 C 
ENDBRANCH  15  17
BRANCH  15  19
ATOM     19  O   UNL     1       1.177   5.664 -23.279  0.00  0.00    -0.387 OA
ATOM     20  H   UNL     1       0.870   5.730 -24.198  0.00  0.00    +0.210 HD
ENDBRANCH  15  19
ENDBRANCH  14  15
ENDBRANCH   1  14
TORSDOF 5
ENDMDL
