MODEL 1
REMARK VINA RESULT:    -8.859      0.000      0.000
REMARK INTER + INTRA:         -10.327
REMARK INTER:                 -10.058
REMARK INTRA:                  -0.269
REMARK UNBOUND:                 0.086
REMARK  Name = ZINC000014650527
REMARK  5 active torsions:
REMARK  status: ('A' for Active; 'I' for Inactive)
REMARK    1  A    between atoms: C_2  and  C_3
REMARK    2  A    between atoms: C_2  and  C_4
REMARK    3  A    between atoms: C_6  and  C_7
REMARK    4  A    between atoms: C_8  and  O_9
REMARK    5  A    between atoms: O_9  and  C_10
REMARK                            x       y       z     vdW  Elec       q    Type
REMARK                         _______ _______ _______ _____ _____    ______ ____
ROOT
ATOM      1  C   UNL     1      -0.437   2.783 -23.321  0.00  0.00    +0.068 A 
ATOM      2  C   UNL     1      -1.063   3.202 -24.380  0.00  0.00    +0.129 A 
ATOM      3  C   UNL     1      -0.396   3.725 -25.366  0.00  0.00    +0.047 A 
ATOM      4  C   UNL     1       0.898   3.829 -25.292  0.00  0.00    +0.015 A 
ATOM      5  C   UNL     1       1.524   3.411 -24.232  0.00  0.00    +0.018 A 
ATOM      6  C   UNL     1       2.817   3.516 -24.158  0.00  0.00    +0.018 A 
ATOM      7  C   UNL     1       3.444   3.097 -23.098  0.00  0.00    +0.092 A 
ATOM      8  C   UNL     1       2.776   2.574 -22.113  0.00  0.00    +0.337 A 
ATOM      9  O   UNL     1       1.482   2.470 -22.187  0.00  0.00    -0.422 OA
ATOM     10  O   UNL     1       3.402   2.156 -21.053  0.00  0.00    -0.245 OA
ATOM     11  C   UNL     1       0.856   2.888 -23.247  0.00  0.00    +0.148 A 
ENDROOT
BRANCH   1  14
ATOM     12  C   UNL     1      -2.088   2.315 -21.487  0.00  0.00    +0.178 C 
ATOM     13  O   UNL     1      -1.277   1.300 -21.476  0.00  0.00    -0.358 OA
ATOM     14  C   UNL     1      -1.104   2.261 -22.335  0.00  0.00    +0.189 C 
BRANCH  12  16
ATOM     15  C   UNL     1      -4.311   2.678 -21.472  0.00  0.00    +0.010 C 
ATOM     16  C   UNL     1      -3.125   2.932 -21.003  0.00  0.00    -0.049 C 
ATOM     17  C   UNL     1      -2.977   3.805 -20.051  0.00  0.00    +0.041 C 
ENDBRANCH  12  16
ENDBRANCH   1  14
BRANCH   2  18
ATOM     18  O   UNL     1      -2.358   3.097 -24.454  0.00  0.00    -0.495 OA
ATOM     19  C   UNL     1      -3.075   4.127 -24.791  0.00  0.00    +0.277 C 
ENDBRANCH   2  18
TORSDOF 3
ENDMDL
MODEL 2
REMARK VINA RESULT:    -8.414      1.608      5.938
REMARK INTER + INTRA:          -9.803
REMARK INTER:                  -9.892
REMARK INTRA:                   0.089
REMARK UNBOUND:                 0.086
REMARK  Name = ZINC000014650527
REMARK  5 active torsions:
REMARK  status: ('A' for Active; 'I' for Inactive)
REMARK    1  A    between atoms: C_2  and  C_3
REMARK    2  A    between atoms: C_2  and  C_4
REMARK    3  A    between atoms: C_6  and  C_7
REMARK    4  A    between atoms: C_8  and  O_9
REMARK    5  A    between atoms: O_9  and  C_10
REMARK                            x       y       z     vdW  Elec       q    Type
REMARK                         _______ _______ _______ _____ _____    ______ ____
ROOT
ATOM      1  C   UNL     1      -1.692   3.268 -23.081  0.00  0.00    +0.068 A 
ATOM      2  C   UNL     1      -1.262   2.763 -21.964  0.00  0.00    +0.129 A 
ATOM      3  C   UNL     1      -2.102   2.469 -21.017  0.00  0.00    +0.047 A 
ATOM      4  C   UNL     1      -3.373   2.681 -21.187  0.00  0.00    +0.015 A 
ATOM      5  C   UNL     1      -3.803   3.187 -22.304  0.00  0.00    +0.018 A 
ATOM      6  C   UNL     1      -5.074   3.399 -22.475  0.00  0.00    +0.018 A 
ATOM      7  C   UNL     1      -5.505   3.905 -23.593  0.00  0.00    +0.092 A 
ATOM      8  C   UNL     1      -4.665   4.198 -24.540  0.00  0.00    +0.337 A 
ATOM      9  O   UNL     1      -3.393   3.986 -24.369  0.00  0.00    -0.422 OA
ATOM     10  O   UNL     1      -5.095   4.704 -25.657  0.00  0.00    -0.245 OA
ATOM     11  C   UNL     1      -2.963   3.480 -23.251  0.00  0.00    +0.148 A 
ENDROOT
BRANCH   1  14
ATOM     12  C   UNL     1       0.348   3.891 -24.408  0.00  0.00    +0.178 C 
ATOM     13  O   UNL     1      -0.594   3.742 -25.291  0.00  0.00    -0.358 OA
ATOM     14  C   UNL     1      -0.851   3.562 -24.028  0.00  0.00    +0.189 C 
BRANCH  12  16
ATOM     15  C   UNL     1       2.523   3.306 -24.384  0.00  0.00    +0.010 C 
ATOM     16  C   UNL     1       1.585   4.166 -24.117  0.00  0.00    -0.049 C 
ATOM     17  C   UNL     1       1.884   5.302 -23.560  0.00  0.00    +0.041 C 
ENDBRANCH  12  16
ENDBRANCH   1  14
BRANCH   2  18
ATOM     18  O   UNL     1       0.011   2.551 -21.794  0.00  0.00    -0.495 OA
ATOM     19  C   UNL     1       0.421   1.417 -21.308  0.00  0.00    +0.277 C 
ENDBRANCH   2  18
TORSDOF 3
ENDMDL
MODEL 3
REMARK VINA RESULT:    -8.324      1.871      3.619
REMARK INTER + INTRA:          -9.698
REMARK INTER:                  -9.374
REMARK INTRA:                  -0.324
REMARK UNBOUND:                 0.086
REMARK  Name = ZINC000014650527
REMARK  5 active torsions:
REMARK  status: ('A' for Active; 'I' for Inactive)
REMARK    1  A    between atoms: C_2  and  C_3
REMARK    2  A    between atoms: C_2  and  C_4
REMARK    3  A    between atoms: C_6  and  C_7
REMARK    4  A    between atoms: C_8  and  O_9
REMARK    5  A    between atoms: O_9  and  C_10
REMARK                            x       y       z     vdW  Elec       q    Type
REMARK                         _______ _______ _______ _____ _____    ______ ____
ROOT
ATOM      1  C   UNL     1      -1.334   3.134 -22.867  0.00  0.00    +0.068 A 
ATOM      2  C   UNL     1      -1.765   2.721 -21.713  0.00  0.00    +0.129 A 
ATOM      3  C   UNL     1      -1.028   1.932 -20.988  0.00  0.00    +0.047 A 
ATOM      4  C   UNL     1       0.139   1.556 -21.418  0.00  0.00    +0.015 A 
ATOM      5  C   UNL     1       0.570   1.969 -22.573  0.00  0.00    +0.018 A 
ATOM      6  C   UNL     1       1.737   1.593 -23.003  0.00  0.00    +0.018 A 
ATOM      7  C   UNL     1       2.169   2.006 -24.158  0.00  0.00    +0.092 A 
ATOM      8  C   UNL     1       1.433   2.795 -24.883  0.00  0.00    +0.337 A 
ATOM      9  O   UNL     1       0.265   3.171 -24.452  0.00  0.00    -0.422 OA
ATOM     10  O   UNL     1       1.864   3.208 -26.037  0.00  0.00    -0.245 OA
ATOM     11  C   UNL     1      -0.166   2.758 -23.297  0.00  0.00    +0.148 A 
ENDROOT
BRANCH   1  14
ATOM     12  C   UNL     1      -3.151   4.136 -24.283  0.00  0.00    +0.178 C 
ATOM     13  O   UNL     1      -2.265   5.078 -24.157  0.00  0.00    -0.358 OA
ATOM     14  C   UNL     1      -2.070   3.923 -23.592  0.00  0.00    +0.189 C 
BRANCH  12  16
ATOM     15  C   UNL     1      -5.380   3.888 -24.070  0.00  0.00    +0.010 C 
ATOM     16  C   UNL     1      -4.287   3.714 -24.754  0.00  0.00    -0.049 C 
ATOM     17  C   UNL     1      -4.331   3.119 -25.909  0.00  0.00    +0.041 C 
ENDBRANCH  12  16
ENDBRANCH   1  14
BRANCH   2  18
ATOM     18  O   UNL     1      -2.933   3.098 -21.283  0.00  0.00    -0.495 OA
ATOM     19  C   UNL     1      -3.045   3.667 -20.119  0.00  0.00    +0.277 C 
ENDBRANCH   2  18
TORSDOF 3
ENDMDL
MODEL 4
REMARK VINA RESULT:    -8.289      1.634      4.977
REMARK INTER + INTRA:          -9.657
REMARK INTER:                  -9.884
REMARK INTRA:                   0.227
REMARK UNBOUND:                 0.086
REMARK  Name = ZINC000014650527
REMARK  5 active torsions:
REMARK  status: ('A' for Active; 'I' for Inactive)
REMARK    1  A    between atoms: C_2  and  C_3
REMARK    2  A    between atoms: C_2  and  C_4
REMARK    3  A    between atoms: C_6  and  C_7
REMARK    4  A    between atoms: C_8  and  O_9
REMARK    5  A    between atoms: O_9  and  C_10
REMARK                            x       y       z     vdW  Elec       q    Type
REMARK                         _______ _______ _______ _____ _____    ______ ____
ROOT
ATOM      1  C   UNL     1      -1.149   2.551 -23.206  0.00  0.00    +0.068 A 
ATOM      2  C   UNL     1      -0.682   2.983 -24.339  0.00  0.00    +0.129 A 
ATOM      3  C   UNL     1      -1.452   3.649 -25.148  0.00  0.00    +0.047 A 
ATOM      4  C   UNL     1      -2.689   3.882 -24.824  0.00  0.00    +0.015 A 
ATOM      5  C   UNL     1      -3.156   3.449 -23.691  0.00  0.00    +0.018 A 
ATOM      6  C   UNL     1      -4.392   3.683 -23.366  0.00  0.00    +0.018 A 
ATOM      7  C   UNL     1      -4.860   3.250 -22.232  0.00  0.00    +0.092 A 
ATOM      8  C   UNL     1      -4.090   2.585 -21.423  0.00  0.00    +0.337 A 
ATOM      9  O   UNL     1      -2.853   2.352 -21.748  0.00  0.00    -0.422 OA
ATOM     10  O   UNL     1      -4.557   2.152 -20.290  0.00  0.00    -0.245 OA
ATOM     11  C   UNL     1      -2.386   2.784 -22.882  0.00  0.00    +0.148 A 
ENDROOT
BRANCH   1  14
ATOM     12  C   UNL     1       0.809   1.505 -22.030  0.00  0.00    +0.178 C 
ATOM     13  O   UNL     1      -0.234   1.112 -21.361  0.00  0.00    -0.358 OA
ATOM     14  C   UNL     1      -0.379   1.885 -22.397  0.00  0.00    +0.189 C 
BRANCH  12  16
ATOM     15  C   UNL     1       2.762   2.624 -22.101  0.00  0.00    +0.010 C 
ATOM     16  C   UNL     1       2.097   1.512 -22.206  0.00  0.00    -0.049 C 
ATOM     17  C   UNL     1       2.721   0.406 -22.485  0.00  0.00    +0.041 C 
ENDBRANCH  12  16
ENDBRANCH   1  14
BRANCH   2  18
ATOM     18  O   UNL     1       0.556   2.749 -24.664  0.00  0.00    -0.495 OA
ATOM     19  C   UNL     1       1.212   3.610 -25.384  0.00  0.00    +0.277 C 
ENDBRANCH   2  18
TORSDOF 3
ENDMDL
MODEL 5
REMARK VINA RESULT:    -8.057      1.593      5.642
REMARK INTER + INTRA:          -9.384
REMARK INTER:                  -9.085
REMARK INTRA:                  -0.298
REMARK UNBOUND:                 0.086
REMARK  Name = ZINC000014650527
REMARK  5 active torsions:
REMARK  status: ('A' for Active; 'I' for Inactive)
REMARK    1  A    between atoms: C_2  and  C_3
REMARK    2  A    between atoms: C_2  and  C_4
REMARK    3  A    between atoms: C_6  and  C_7
REMARK    4  A    between atoms: C_8  and  O_9
REMARK    5  A    between atoms: O_9  and  C_10
REMARK                            x       y       z     vdW  Elec       q    Type
REMARK                         _______ _______ _______ _____ _____    ______ ____
ROOT
ATOM      1  C   UNL     1       0.384   2.804 -22.905  0.00  0.00    +0.068 A 
ATOM      2  C   UNL     1       0.830   1.934 -22.047  0.00  0.00    +0.129 A 
ATOM      3  C   UNL     1      -0.001   1.293 -21.280  0.00  0.00    +0.047 A 
ATOM      4  C   UNL     1      -1.278   1.521 -21.371  0.00  0.00    +0.015 A 
ATOM      5  C   UNL     1      -1.723   2.390 -22.228  0.00  0.00    +0.018 A 
ATOM      6  C   UNL     1      -2.999   2.618 -22.319  0.00  0.00    +0.018 A 
ATOM      7  C   UNL     1      -3.445   3.488 -23.177  0.00  0.00    +0.092 A 
ATOM      8  C   UNL     1      -2.614   4.129 -23.944  0.00  0.00    +0.337 A 
ATOM      9  O   UNL     1      -1.337   3.901 -23.853  0.00  0.00    -0.422 OA
ATOM     10  O   UNL     1      -3.060   4.998 -24.802  0.00  0.00    -0.245 OA
ATOM     11  C   UNL     1      -0.892   3.031 -22.995  0.00  0.00    +0.148 A 
ENDROOT
BRANCH   1  14
ATOM     12  C   UNL     1       2.271   4.191 -23.813  0.00  0.00    +0.178 C 
ATOM     13  O   UNL     1       1.600   3.810 -24.859  0.00  0.00    -0.358 OA
ATOM     14  C   UNL     1       1.215   3.445 -23.672  0.00  0.00    +0.189 C 
BRANCH  12  16
ATOM     15  C   UNL     1       3.097   6.056 -22.859  0.00  0.00    +0.010 C 
ATOM     16  C   UNL     1       3.268   4.842 -23.291  0.00  0.00    -0.049 C 
ATOM     17  C   UNL     1       4.436   4.279 -23.202  0.00  0.00    +0.041 C 
ENDBRANCH  12  16
ENDBRANCH   1  14
BRANCH   2  18
ATOM     18  O   UNL     1       2.107   1.706 -21.957  0.00  0.00    -0.495 OA
ATOM     19  C   UNL     1       2.647   1.488 -20.795  0.00  0.00    +0.277 C 
ENDBRANCH   2  18
TORSDOF 3
ENDMDL
MODEL 6
REMARK VINA RESULT:    -7.959      1.142      4.276
REMARK INTER + INTRA:          -9.268
REMARK INTER:                  -9.336
REMARK INTRA:                   0.067
REMARK UNBOUND:                 0.086
REMARK  Name = ZINC000014650527
REMARK  5 active torsions:
REMARK  status: ('A' for Active; 'I' for Inactive)
REMARK    1  A    between atoms: C_2  and  C_3
REMARK    2  A    between atoms: C_2  and  C_4
REMARK    3  A    between atoms: C_6  and  C_7
REMARK    4  A    between atoms: C_8  and  O_9
REMARK    5  A    between atoms: O_9  and  C_10
REMARK                            x       y       z     vdW  Elec       q    Type
REMARK                         _______ _______ _______ _____ _____    ______ ____
ROOT
ATOM      1  C   UNL     1      -0.944   2.785 -23.446  0.00  0.00    +0.068 A 
ATOM      2  C   UNL     1       0.312   2.793 -23.781  0.00  0.00    +0.129 A 
ATOM      3  C   UNL     1       0.662   3.156 -24.979  0.00  0.00    +0.047 A 
ATOM      4  C   UNL     1      -0.243   3.512 -25.842  0.00  0.00    +0.015 A 
ATOM      5  C   UNL     1      -1.499   3.503 -25.506  0.00  0.00    +0.018 A 
ATOM      6  C   UNL     1      -2.404   3.858 -26.369  0.00  0.00    +0.018 A 
ATOM      7  C   UNL     1      -3.660   3.850 -26.033  0.00  0.00    +0.092 A 
ATOM      8  C   UNL     1      -4.011   3.487 -24.836  0.00  0.00    +0.337 A 
ATOM      9  O   UNL     1      -3.105   3.132 -23.973  0.00  0.00    -0.422 OA
ATOM     10  O   UNL     1      -5.267   3.479 -24.500  0.00  0.00    -0.245 OA
ATOM     11  C   UNL     1      -1.849   3.140 -24.308  0.00  0.00    +0.148 A 
ENDROOT
BRANCH   1  14
ATOM     12  C   UNL     1      -2.124   2.486 -21.249  0.00  0.00    +0.178 C 
ATOM     13  O   UNL     1      -1.072   1.727 -21.171  0.00  0.00    -0.358 OA
ATOM     14  C   UNL     1      -1.295   2.421 -22.248  0.00  0.00    +0.189 C 
BRANCH  12  16
ATOM     15  C   UNL     1      -3.167   4.059 -20.020  0.00  0.00    +0.010 C 
ATOM     16  C   UNL     1      -3.211   2.962 -20.717  0.00  0.00    -0.049 C 
ATOM     17  C   UNL     1      -4.341   2.342 -20.881  0.00  0.00    +0.041 C 
ENDBRANCH  12  16
ENDBRANCH   1  14
BRANCH   2  18
ATOM     18  O   UNL     1       1.217   2.438 -22.918  0.00  0.00    -0.495 OA
ATOM     19  C   UNL     1       2.304   1.849 -23.321  0.00  0.00    +0.277 C 
ENDBRANCH   2  18
TORSDOF 3
ENDMDL
MODEL 7
REMARK VINA RESULT:    -7.775      1.139      3.793
REMARK INTER + INTRA:          -9.053
REMARK INTER:                  -9.015
REMARK INTRA:                  -0.038
REMARK UNBOUND:                 0.086
REMARK  Name = ZINC000014650527
REMARK  5 active torsions:
REMARK  status: ('A' for Active; 'I' for Inactive)
REMARK    1  A    between atoms: C_2  and  C_3
REMARK    2  A    between atoms: C_2  and  C_4
REMARK    3  A    between atoms: C_6  and  C_7
REMARK    4  A    between atoms: C_8  and  O_9
REMARK    5  A    between atoms: O_9  and  C_10
REMARK                            x       y       z     vdW  Elec       q    Type
REMARK                         _______ _______ _______ _____ _____    ______ ____
ROOT
ATOM      1  C   UNL     1       0.876   2.121 -22.456  0.00  0.00    +0.068 A 
ATOM      2  C   UNL     1       2.070   1.899 -21.994  0.00  0.00    +0.129 A 
ATOM      3  C   UNL     1       3.111   2.274 -22.676  0.00  0.00    +0.047 A 
ATOM      4  C   UNL     1       2.959   2.870 -23.820  0.00  0.00    +0.015 A 
ATOM      5  C   UNL     1       1.764   3.093 -24.282  0.00  0.00    +0.018 A 
ATOM      6  C   UNL     1       1.611   3.689 -25.427  0.00  0.00    +0.018 A 
ATOM      7  C   UNL     1       0.416   3.912 -25.890  0.00  0.00    +0.092 A 
ATOM      8  C   UNL     1      -0.625   3.538 -25.208  0.00  0.00    +0.337 A 
ATOM      9  O   UNL     1      -0.471   2.940 -24.063  0.00  0.00    -0.422 OA
ATOM     10  O   UNL     1      -1.819   3.760 -25.670  0.00  0.00    -0.245 OA
ATOM     11  C   UNL     1       0.723   2.718 -23.600  0.00  0.00    +0.148 A 
ENDROOT
BRANCH   1  14
ATOM     12  C   UNL     1      -1.378   1.966 -21.358  0.00  0.00    +0.178 C 
ATOM     13  O   UNL     1      -0.758   0.879 -21.007  0.00  0.00    -0.358 OA
ATOM     14  C   UNL     1      -0.166   1.747 -21.774  0.00  0.00    +0.189 C 
BRANCH  12  16
ATOM     15  C   UNL     1      -2.653   3.487 -20.293  0.00  0.00    +0.010 C 
ATOM     16  C   UNL     1      -2.437   2.720 -21.321  0.00  0.00    -0.049 C 
ATOM     17  C   UNL     1      -3.279   2.707 -22.311  0.00  0.00    +0.041 C 
ENDBRANCH  12  16
ENDBRANCH   1  14
BRANCH   2  18
ATOM     18  O   UNL     1       2.223   1.302 -20.848  0.00  0.00    -0.495 OA
ATOM     19  C   UNL     1       3.329   0.671 -20.587  0.00  0.00    +0.277 C 
ENDBRANCH   2  18
TORSDOF 3
ENDMDL
MODEL 8
REMARK VINA RESULT:    -7.578      1.904      5.164
REMARK INTER + INTRA:          -8.821
REMARK INTER:                  -8.586
REMARK INTRA:                  -0.234
REMARK UNBOUND:                 0.086
REMARK  Name = ZINC000014650527
REMARK  5 active torsions:
REMARK  status: ('A' for Active; 'I' for Inactive)
REMARK    1  A    between atoms: C_2  and  C_3
REMARK    2  A    between atoms: C_2  and  C_4
REMARK    3  A    between atoms: C_6  and  C_7
REMARK    4  A    between atoms: C_8  and  O_9
REMARK    5  A    between atoms: O_9  and  C_10
REMARK                            x       y       z     vdW  Elec       q    Type
REMARK                         _______ _______ _______ _____ _____    ______ ____
ROOT
ATOM      1  C   UNL     1       1.518   2.822 -23.000  0.00  0.00    +0.068 A 
ATOM      2  C   UNL     1       2.277   3.749 -23.504  0.00  0.00    +0.129 A 
ATOM      3  C   UNL     1       1.804   4.944 -23.694  0.00  0.00    +0.047 A 
ATOM      4  C   UNL     1       0.571   5.213 -23.380  0.00  0.00    +0.015 A 
ATOM      5  C   UNL     1      -0.188   4.286 -22.876  0.00  0.00    +0.018 A 
ATOM      6  C   UNL     1      -1.420   4.555 -22.562  0.00  0.00    +0.018 A 
ATOM      7  C   UNL     1      -2.180   3.628 -22.058  0.00  0.00    +0.092 A 
ATOM      8  C   UNL     1      -1.707   2.432 -21.868  0.00  0.00    +0.337 A 
ATOM      9  O   UNL     1      -0.474   2.164 -22.182  0.00  0.00    -0.422 OA
ATOM     10  O   UNL     1      -2.466   1.505 -21.364  0.00  0.00    -0.245 OA
ATOM     11  C   UNL     1       0.285   3.091 -22.686  0.00  0.00    +0.148 A 
ENDROOT
BRANCH   1  14
ATOM     12  C   UNL     1       2.898   0.840 -22.310  0.00  0.00    +0.178 C 
ATOM     13  O   UNL     1       1.903   0.339 -22.980  0.00  0.00    -0.358 OA
ATOM     14  C   UNL     1       1.991   1.626 -22.810  0.00  0.00    +0.189 C 
BRANCH  12  16
ATOM     15  C   UNL     1       3.944   0.341 -20.379  0.00  0.00    +0.010 C 
ATOM     16  C   UNL     1       3.997   0.675 -21.635  0.00  0.00    -0.049 C 
ATOM     17  C   UNL     1       5.148   0.844 -22.214  0.00  0.00    +0.041 C 
ENDBRANCH  12  16
ENDBRANCH   1  14
BRANCH   2  18
ATOM     18  O   UNL     1       3.510   3.479 -23.818  0.00  0.00    -0.495 OA
ATOM     19  C   UNL     1       4.478   4.184 -23.313  0.00  0.00    +0.277 C 
ENDBRANCH   2  18
TORSDOF 3
ENDMDL
MODEL 9
REMARK VINA RESULT:    -6.859      2.255      4.583
REMARK INTER + INTRA:          -7.976
REMARK INTER:                  -8.062
REMARK INTRA:                   0.086
REMARK UNBOUND:                 0.086
REMARK  Name = ZINC000014650527
REMARK  5 active torsions:
REMARK  status: ('A' for Active; 'I' for Inactive)
REMARK    1  A    between atoms: C_2  and  C_3
REMARK    2  A    between atoms: C_2  and  C_4
REMARK    3  A    between atoms: C_6  and  C_7
REMARK    4  A    between atoms: C_8  and  O_9
REMARK    5  A    between atoms: O_9  and  C_10
REMARK                            x       y       z     vdW  Elec       q    Type
REMARK                         _______ _______ _______ _____ _____    ______ ____
ROOT
ATOM      1  C   UNL     1       1.629   2.326 -22.799  0.00  0.00    +0.068 A 
ATOM      2  C   UNL     1       0.329   2.318 -22.784  0.00  0.00    +0.129 A 
ATOM      3  C   UNL     1      -0.329   3.432 -22.899  0.00  0.00    +0.047 A 
ATOM      4  C   UNL     1       0.312   4.556 -23.029  0.00  0.00    +0.015 A 
ATOM      5  C   UNL     1       1.611   4.564 -23.044  0.00  0.00    +0.018 A 
ATOM      6  C   UNL     1       2.252   5.687 -23.174  0.00  0.00    +0.018 A 
ATOM      7  C   UNL     1       3.553   5.696 -23.188  0.00  0.00    +0.092 A 
ATOM      8  C   UNL     1       4.211   4.581 -23.074  0.00  0.00    +0.337 A 
ATOM      9  O   UNL     1       3.570   3.457 -22.944  0.00  0.00    -0.422 OA
ATOM     10  O   UNL     1       5.511   4.589 -23.088  0.00  0.00    -0.245 OA
ATOM     11  C   UNL     1       2.270   3.449 -22.929  0.00  0.00    +0.148 A 
ENDROOT
BRANCH   1  14
ATOM     12  C   UNL     1       3.329   0.556 -22.262  0.00  0.00    +0.178 C 
ATOM     13  O   UNL     1       2.388  -0.066 -22.907  0.00  0.00    -0.358 OA
ATOM     14  C   UNL     1       2.288   1.211 -22.684  0.00  0.00    +0.189 C 
BRANCH  12  16
ATOM     15  C   UNL     1       5.540   0.986 -22.241  0.00  0.00    +0.010 C 
ATOM     16  C   UNL     1       4.474   0.538 -21.646  0.00  0.00    -0.049 C 
ATOM     17  C   UNL     1       4.553   0.071 -20.435  0.00  0.00    +0.041 C 
ENDBRANCH  12  16
ENDBRANCH   1  14
BRANCH   2  18
ATOM     18  O   UNL     1      -0.312   1.193 -22.654  0.00  0.00    -0.495 OA
ATOM     19  C   UNL     1      -1.212   1.062 -21.726  0.00  0.00    +0.277 C 
ENDBRANCH   2  18
TORSDOF 3
ENDMDL
