MODEL 1
REMARK VINA RESULT:   -10.362      0.000      0.000
REMARK INTER + INTRA:         -12.457
REMARK INTER:                 -13.156
REMARK INTRA:                   0.699
REMARK UNBOUND:                 0.631
REMARK  Name = COCO[C@@H]1C=C2[C@H]3Cc4ccc(OC)c5c4[C@]2(CCN3C)[C@](C)(O5)[C@@H]1O   ZINC000100393640
REMARK  9 active torsions:
REMARK  status: ('A' for Active; 'I' for Inactive)
REMARK    1  A    between atoms: C_1  and  O_2
REMARK    2  A    between atoms: O_2  and  C_3
REMARK    3  A    between atoms: C_3  and  O_4
REMARK    4  A    between atoms: O_4  and  C_5
REMARK    5  A    between atoms: C_13  and  O_14
REMARK    6  A    between atoms: O_14  and  C_15
REMARK    7  A    between atoms: N_21  and  C_22
REMARK    8  A    between atoms: C_23  and  C_24
REMARK    9  A    between atoms: C_26  and  O_27
REMARK                            x       y       z     vdW  Elec       q    Type
REMARK                         _______ _______ _______ _____ _____    ______ ____
ROOT
ATOM      1  C   UNL     1       0.971   2.157 -22.652  0.00  0.00    +0.176 C 
ATOM      2  C   UNL     1       0.613   2.667 -23.745  0.00  0.00    +0.013 C 
ATOM      3  C   UNL     1      -0.603   2.984 -23.931  0.00  0.00    -0.009 C 
ATOM      4  C   UNL     1      -0.959   3.499 -25.039  0.00  0.00    +0.096 C 
ATOM      5  C   UNL     1      -2.162   3.814 -25.224  0.00  0.00    +0.094 C 
ATOM      6  C   UNL     1      -3.024   3.616 -24.301  0.00  0.00    -0.034 A 
ATOM      7  C   UNL     1      -4.231   3.931 -24.486  0.00  0.00    +0.008 A 
ATOM      8  C   UNL     1      -5.075   3.735 -23.576  0.00  0.00    +0.050 A 
ATOM      9  C   UNL     1      -4.724   3.222 -22.469  0.00  0.00    +0.162 A 
ATOM     10  C   UNL     1      -3.504   2.904 -22.284  0.00  0.00    +0.167 A 
ATOM     11  O   UNL     1      -2.486   2.321 -21.336  0.00  0.00    -0.478 OA
ATOM     12  C   UNL     1      -1.083   2.271 -21.912  0.00  0.00    +0.150 C 
ATOM     13  C   UNL     1      -1.011   1.792 -20.751  0.00  0.00    +0.060 C 
ATOM     14  C   UNL     1      -2.653   3.103 -23.204  0.00  0.00    +0.016 A 
ATOM     15  N   UNL     1       0.432   3.178 -24.931  0.00  0.00    +0.239 N 
ATOM     16  H   UNL     1       1.092   3.350 -25.689  0.00  0.00    +0.204 HD
ATOM     17  C   UNL     1       1.233   3.396 -25.874  0.00  0.00    +0.191 C 
ATOM     18  C   UNL     1       0.864   2.602 -23.709  0.00  0.00    +0.133 C 
ATOM     19  C   UNL     1      -0.113   2.394 -22.701  0.00  0.00    +0.071 C 
ATOM     20  C   UNL     1      -1.451   2.790 -23.023  0.00  0.00    +0.072 C 
ATOM     21  C   UNL     1       0.121   1.958 -21.730  0.00  0.00    +0.192 C 
ENDROOT
BRANCH   9  22
ATOM     22  O   UNL     1      -5.572   3.028 -21.562  0.00  0.00    -0.491 OA
ATOM     23  C   UNL     1      -6.707   2.568 -21.847  0.00  0.00    +0.277 C 
ENDBRANCH   9  22
BRANCH  21  24
ATOM     24  O   UNL     1       0.482   1.448 -20.637  0.00  0.00    -0.385 OA
ATOM     25  H   UNL     1       0.091   0.566 -20.548  0.00  0.00    +0.210 HD
ENDBRANCH  21  24
BRANCH   1  26
ATOM     26  O   UNL     1       2.177   1.845 -22.472  0.00  0.00    -0.344 OA
BRANCH  26  27
ATOM     27  C   UNL     1       2.576   0.683 -22.747  0.00  0.00    +0.323 C 
BRANCH  27  29
ATOM     28  C   UNL     1       3.838   0.402 -20.992  0.00  0.00    +0.196 C 
ATOM     29  O   UNL     1       3.028  -0.060 -21.837  0.00  0.00    -0.357 OA
ENDBRANCH  27  29
ENDBRANCH  26  27
ENDBRANCH   1  26
TORSDOF 5
ENDMDL
MODEL 2
REMARK VINA RESULT:    -9.923      1.932      3.208
REMARK INTER + INTRA:         -11.903
REMARK INTER:                 -12.793
REMARK INTRA:                   0.890
REMARK UNBOUND:                 0.631
REMARK  Name = COCO[C@@H]1C=C2[C@H]3Cc4ccc(OC)c5c4[C@]2(CCN3C)[C@](C)(O5)[C@@H]1O   ZINC000100393640
REMARK  9 active torsions:
REMARK  status: ('A' for Active; 'I' for Inactive)
REMARK    1  A    between atoms: C_1  and  O_2
REMARK    2  A    between atoms: O_2  and  C_3
REMARK    3  A    between atoms: C_3  and  O_4
REMARK    4  A    between atoms: O_4  and  C_5
REMARK    5  A    between atoms: C_13  and  O_14
REMARK    6  A    between atoms: O_14  and  C_15
REMARK    7  A    between atoms: N_21  and  C_22
REMARK    8  A    between atoms: C_23  and  C_24
REMARK    9  A    between atoms: C_26  and  O_27
REMARK                            x       y       z     vdW  Elec       q    Type
REMARK                         _______ _______ _______ _____ _____    ______ ____
ROOT
ATOM      1  C   UNL     1       1.726   2.680 -24.059  0.00  0.00    +0.176 C 
ATOM      2  C   UNL     1       1.396   2.271 -22.915  0.00  0.00    +0.013 C 
ATOM      3  C   UNL     1       0.186   2.345 -22.537  0.00  0.00    -0.009 C 
ATOM      4  C   UNL     1      -0.141   1.931 -21.380  0.00  0.00    +0.096 C 
ATOM      5  C   UNL     1      -1.338   2.004 -21.003  0.00  0.00    +0.094 C 
ATOM      6  C   UNL     1      -2.224   2.494 -21.784  0.00  0.00    -0.034 A 
ATOM      7  C   UNL     1      -3.425   2.568 -21.408  0.00  0.00    +0.008 A 
ATOM      8  C   UNL     1      -4.294   3.050 -22.178  0.00  0.00    +0.050 A 
ATOM      9  C   UNL     1      -3.972   3.465 -23.335  0.00  0.00    +0.162 A 
ATOM     10  C   UNL     1      -2.757   3.390 -23.712  0.00  0.00    +0.167 A 
ATOM     11  O   UNL     1      -1.765   3.656 -24.816  0.00  0.00    -0.478 OA
ATOM     12  C   UNL     1      -0.347   3.242 -24.467  0.00  0.00    +0.150 C 
ATOM     13  C   UNL     1      -0.306   3.715 -25.633  0.00  0.00    +0.060 C 
ATOM     14  C   UNL     1      -1.883   2.902 -22.933  0.00  0.00    +0.016 A 
ATOM     15  N   UNL     1       1.247   1.802 -21.708  0.00  0.00    +0.239 N 
ATOM     16  H   UNL     1       1.926   1.406 -21.060  0.00  0.00    +0.204 HD
ATOM     17  C   UNL     1       2.072   1.311 -20.898  0.00  0.00    +0.191 C 
ATOM     18  C   UNL     1       1.646   2.255 -22.991  0.00  0.00    +0.133 C 
ATOM     19  C   UNL     1       0.643   2.794 -23.837  0.00  0.00    +0.071 C 
ATOM     20  C   UNL     1      -0.686   2.828 -23.305  0.00  0.00    +0.072 C 
ATOM     21  C   UNL     1       0.851   3.168 -24.840  0.00  0.00    +0.192 C 
ENDROOT
BRANCH   9  22
ATOM     22  O   UNL     1      -4.844   3.947 -24.101  0.00  0.00    -0.491 OA
ATOM     23  C   UNL     1      -4.822   3.679 -25.330  0.00  0.00    +0.277 C 
ENDBRANCH   9  22
BRANCH  21  24
ATOM     24  O   UNL     1       1.183   3.576 -25.983  0.00  0.00    -0.385 OA
ATOM     25  H   UNL     1       1.673   4.408 -25.899  0.00  0.00    +0.210 HD
ENDBRANCH  21  24
BRANCH   1  26
ATOM     26  O   UNL     1       2.926   2.604 -24.429  0.00  0.00    -0.344 OA
BRANCH  26  27
ATOM     27  C   UNL     1       3.824   3.215 -23.792  0.00  0.00    +0.323 C 
BRANCH  27  29
ATOM     28  C   UNL     1       5.361   2.398 -22.480  0.00  0.00    +0.196 C 
ATOM     29  O   UNL     1       4.955   2.686 -23.635  0.00  0.00    -0.357 OA
ENDBRANCH  27  29
ENDBRANCH  26  27
ENDBRANCH   1  26
TORSDOF 5
ENDMDL
MODEL 3
REMARK VINA RESULT:    -9.857      2.063      6.412
REMARK INTER + INTRA:         -11.818
REMARK INTER:                 -12.463
REMARK INTRA:                   0.645
REMARK UNBOUND:                 0.631
REMARK  Name = COCO[C@@H]1C=C2[C@H]3Cc4ccc(OC)c5c4[C@]2(CCN3C)[C@](C)(O5)[C@@H]1O   ZINC000100393640
REMARK  9 active torsions:
REMARK  status: ('A' for Active; 'I' for Inactive)
REMARK    1  A    between atoms: C_1  and  O_2
REMARK    2  A    between atoms: O_2  and  C_3
REMARK    3  A    between atoms: C_3  and  O_4
REMARK    4  A    between atoms: O_4  and  C_5
REMARK    5  A    between atoms: C_13  and  O_14
REMARK    6  A    between atoms: O_14  and  C_15
REMARK    7  A    between atoms: N_21  and  C_22
REMARK    8  A    between atoms: C_23  and  C_24
REMARK    9  A    between atoms: C_26  and  O_27
REMARK                            x       y       z     vdW  Elec       q    Type
REMARK                         _______ _______ _______ _____ _____    ______ ____
ROOT
ATOM      1  C   UNL     1      -1.441   3.338 -24.460  0.00  0.00    +0.176 C 
ATOM      2  C   UNL     1      -1.581   2.841 -23.312  0.00  0.00    +0.013 C 
ATOM      3  C   UNL     1      -0.564   2.452 -22.658  0.00  0.00    -0.009 C 
ATOM      4  C   UNL     1      -0.712   1.951 -21.498  0.00  0.00    +0.096 C 
ATOM      5  C   UNL     1       0.293   1.567 -20.849  0.00  0.00    +0.094 C 
ATOM      6  C   UNL     1       1.462   1.680 -21.355  0.00  0.00    -0.034 A 
ATOM      7  C   UNL     1       2.471   1.295 -20.705  0.00  0.00    +0.008 A 
ATOM      8  C   UNL     1       3.619   1.408 -21.206  0.00  0.00    +0.050 A 
ATOM      9  C   UNL     1       3.771   1.909 -22.363  0.00  0.00    +0.162 A 
ATOM     10  C   UNL     1       2.750   2.297 -23.018  0.00  0.00    +0.167 A 
ATOM     11  O   UNL     1       2.234   2.914 -24.294  0.00  0.00    -0.478 OA
ATOM     12  C   UNL     1       0.725   3.071 -24.323  0.00  0.00    +0.150 C 
ATOM     13  C   UNL     1       1.153   3.517 -25.419  0.00  0.00    +0.060 C 
ATOM     14  C   UNL     1       1.593   2.182 -22.511  0.00  0.00    +0.016 A 
ATOM     15  N   UNL     1      -1.921   2.356 -22.151  0.00  0.00    +0.239 N 
ATOM     16  H   UNL     1      -2.837   2.250 -21.716  0.00  0.00    +0.204 HD
ATOM     17  C   UNL     1      -3.042   2.219 -21.602  0.00  0.00    +0.191 C 
ATOM     18  C   UNL     1      -1.792   2.920 -23.445  0.00  0.00    +0.133 C 
ATOM     19  C   UNL     1      -0.484   3.034 -23.983  0.00  0.00    +0.071 C 
ATOM     20  C   UNL     1       0.586   2.565 -23.156  0.00  0.00    +0.072 C 
ATOM     21  C   UNL     1      -0.283   3.454 -24.969  0.00  0.00    +0.192 C 
ENDROOT
BRANCH   9  22
ATOM     22  O   UNL     1       4.921   2.020 -22.860  0.00  0.00    -0.491 OA
ATOM     23  C   UNL     1       5.492   3.141 -22.884  0.00  0.00    +0.277 C 
ENDBRANCH   9  22
BRANCH  21  24
ATOM     24  O   UNL     1      -0.146   3.951 -26.117  0.00  0.00    -0.385 OA
ATOM     25  H   UNL     1      -0.105   3.240 -26.774  0.00  0.00    +0.210 HD
ENDBRANCH  21  24
BRANCH   1  26
ATOM     26  O   UNL     1      -2.451   3.720 -25.104  0.00  0.00    -0.344 OA
BRANCH  26  27
ATOM     27  C   UNL     1      -3.162   4.662 -24.665  0.00  0.00    +0.323 C 
BRANCH  27  29
ATOM     28  C   UNL     1      -5.260   4.173 -24.330  0.00  0.00    +0.196 C 
ATOM     29  O   UNL     1      -4.370   4.752 -25.006  0.00  0.00    -0.357 OA
ENDBRANCH  27  29
ENDBRANCH  26  27
ENDBRANCH   1  26
TORSDOF 5
ENDMDL
MODEL 4
REMARK VINA RESULT:    -9.418      1.266      5.622
REMARK INTER + INTRA:         -11.264
REMARK INTER:                 -11.950
REMARK INTRA:                   0.687
REMARK UNBOUND:                 0.631
REMARK  Name = COCO[C@@H]1C=C2[C@H]3Cc4ccc(OC)c5c4[C@]2(CCN3C)[C@](C)(O5)[C@@H]1O   ZINC000100393640
REMARK  9 active torsions:
REMARK  status: ('A' for Active; 'I' for Inactive)
REMARK    1  A    between atoms: C_1  and  O_2
REMARK    2  A    between atoms: O_2  and  C_3
REMARK    3  A    between atoms: C_3  and  O_4
REMARK    4  A    between atoms: O_4  and  C_5
REMARK    5  A    between atoms: C_13  and  O_14
REMARK    6  A    between atoms: O_14  and  C_15
REMARK    7  A    between atoms: N_21  and  C_22
REMARK    8  A    between atoms: C_23  and  C_24
REMARK    9  A    between atoms: C_26  and  O_27
REMARK                            x       y       z     vdW  Elec       q    Type
REMARK                         _______ _______ _______ _____ _____    ______ ____
ROOT
ATOM      1  C   UNL     1      -2.502   2.581 -23.207  0.00  0.00    +0.176 C 
ATOM      2  C   UNL     1      -1.899   2.921 -24.258  0.00  0.00    +0.013 C 
ATOM      3  C   UNL     1      -0.629   2.918 -24.294  0.00  0.00    -0.009 C 
ATOM      4  C   UNL     1      -0.026   3.263 -25.359  0.00  0.00    +0.096 C 
ATOM      5  C   UNL     1       1.230   3.260 -25.396  0.00  0.00    +0.094 C 
ATOM      6  C   UNL     1       1.899   2.912 -24.363  0.00  0.00    -0.034 A 
ATOM      7  C   UNL     1       3.159   2.910 -24.399  0.00  0.00    +0.008 A 
ATOM      8  C   UNL     1       3.813   2.567 -23.382  0.00  0.00    +0.050 A 
ATOM      9  C   UNL     1       3.215   2.222 -22.315  0.00  0.00    +0.162 A 
ATOM     10  C   UNL     1       1.941   2.225 -22.282  0.00  0.00    +0.167 A 
ATOM     11  O   UNL     1       0.704   1.968 -21.459  0.00  0.00    -0.478 OA
ATOM     12  C   UNL     1      -0.588   2.230 -22.210  0.00  0.00    +0.150 C 
ATOM     13  C   UNL     1      -0.915   1.853 -21.055  0.00  0.00    +0.060 C 
ATOM     14  C   UNL     1       1.283   2.572 -23.310  0.00  0.00    +0.016 A 
ATOM     15  N   UNL     1      -1.457   3.300 -25.424  0.00  0.00    +0.239 N 
ATOM     16  H   UNL     1      -1.957   3.584 -26.266  0.00  0.00    +0.204 HD
ATOM     17  C   UNL     1      -2.058   3.652 -26.469  0.00  0.00    +0.191 C 
ATOM     18  C   UNL     1      -2.161   2.922 -24.253  0.00  0.00    +0.133 C 
ATOM     19  C   UNL     1      -1.395   2.540 -23.122  0.00  0.00    +0.071 C 
ATOM     20  C   UNL     1       0.028   2.575 -23.277  0.00  0.00    +0.072 C 
ATOM     21  C   UNL     1      -1.844   2.234 -22.177  0.00  0.00    +0.192 C 
ENDROOT
BRANCH   9  22
ATOM     22  O   UNL     1       3.873   1.880 -21.301  0.00  0.00    -0.491 OA
ATOM     23  C   UNL     1       4.005   0.662 -21.015  0.00  0.00    +0.277 C 
ENDBRANCH   9  22
BRANCH  21  24
ATOM     24  O   UNL     1      -2.450   1.895 -21.127  0.00  0.00    -0.385 OA
ATOM     25  H   UNL     1      -2.530   2.661 -20.539  0.00  0.00    +0.210 HD
ENDBRANCH  21  24
BRANCH   1  26
ATOM     26  O   UNL     1      -3.760   2.585 -23.177  0.00  0.00    -0.344 OA
BRANCH  26  27
ATOM     27  C   UNL     1      -4.391   3.665 -23.319  0.00  0.00    +0.323 C 
BRANCH  27  29
ATOM     28  C   UNL     1      -5.967   3.060 -21.938  0.00  0.00    +0.196 C 
ATOM     29  O   UNL     1      -5.579   3.759 -22.910  0.00  0.00    -0.357 OA
ENDBRANCH  27  29
ENDBRANCH  26  27
ENDBRANCH   1  26
TORSDOF 5
ENDMDL
MODEL 5
REMARK VINA RESULT:    -8.405      2.819      4.243
REMARK INTER + INTRA:          -9.985
REMARK INTER:                 -10.770
REMARK INTRA:                   0.785
REMARK UNBOUND:                 0.631
REMARK  Name = COCO[C@@H]1C=C2[C@H]3Cc4ccc(OC)c5c4[C@]2(CCN3C)[C@](C)(O5)[C@@H]1O   ZINC000100393640
REMARK  9 active torsions:
REMARK  status: ('A' for Active; 'I' for Inactive)
REMARK    1  A    between atoms: C_1  and  O_2
REMARK    2  A    between atoms: O_2  and  C_3
REMARK    3  A    between atoms: C_3  and  O_4
REMARK    4  A    between atoms: O_4  and  C_5
REMARK    5  A    between atoms: C_13  and  O_14
REMARK    6  A    between atoms: O_14  and  C_15
REMARK    7  A    between atoms: N_21  and  C_22
REMARK    8  A    between atoms: C_23  and  C_24
REMARK    9  A    between atoms: C_26  and  O_27
REMARK                            x       y       z     vdW  Elec       q    Type
REMARK                         _______ _______ _______ _____ _____    ______ ____
ROOT
ATOM      1  C   UNL     1       3.912   3.541 -22.438  0.00  0.00    +0.176 C 
ATOM      2  C   UNL     1       3.320   2.486 -22.093  0.00  0.00    +0.013 C 
ATOM      3  C   UNL     1       2.073   2.359 -22.297  0.00  0.00    -0.009 C 
ATOM      4  C   UNL     1       1.480   1.290 -21.945  0.00  0.00    +0.096 C 
ATOM      5  C   UNL     1       0.246   1.164 -22.146  0.00  0.00    +0.094 C 
ATOM      6  C   UNL     1      -0.411   2.109 -22.703  0.00  0.00    -0.034 A 
ATOM      7  C   UNL     1      -1.649   1.984 -22.905  0.00  0.00    +0.008 A 
ATOM      8  C   UNL     1      -2.291   2.915 -23.452  0.00  0.00    +0.050 A 
ATOM      9  C   UNL     1      -1.703   3.985 -23.805  0.00  0.00    +0.162 A 
ATOM     10  C   UNL     1      -0.452   4.109 -23.600  0.00  0.00    +0.167 A 
ATOM     11  O   UNL     1       0.764   4.991 -23.738  0.00  0.00    -0.478 OA
ATOM     12  C   UNL     1       2.032   4.362 -23.194  0.00  0.00    +0.150 C 
ATOM     13  C   UNL     1       2.354   5.497 -23.631  0.00  0.00    +0.060 C 
ATOM     14  C   UNL     1       0.194   3.167 -23.047  0.00  0.00    +0.016 A 
ATOM     15  N   UNL     1       2.885   1.332 -21.671  0.00  0.00    +0.239 N 
ATOM     16  H   UNL     1       3.376   0.557 -21.225  0.00  0.00    +0.204 HD
ATOM     17  C   UNL     1       3.476   0.369 -21.121  0.00  0.00    +0.191 C 
ATOM     18  C   UNL     1       3.577   2.509 -22.050  0.00  0.00    +0.133 C 
ATOM     19  C   UNL     1       2.825   3.542 -22.665  0.00  0.00    +0.071 C 
ATOM     20  C   UNL     1       1.427   3.290 -22.844  0.00  0.00    +0.072 C 
ATOM     21  C   UNL     1       3.267   4.484 -22.991  0.00  0.00    +0.192 C 
ENDROOT
BRANCH   9  22
ATOM     22  O   UNL     1      -2.350   4.913 -24.352  0.00  0.00    -0.491 OA
ATOM     23  C   UNL     1      -3.477   4.683 -24.860  0.00  0.00    +0.277 C 
ENDBRANCH   9  22
BRANCH  21  24
ATOM     24  O   UNL     1       3.862   5.539 -23.336  0.00  0.00    -0.385 OA
ATOM     25  H   UNL     1       3.212   6.244 -23.479  0.00  0.00    +0.210 HD
ENDBRANCH  21  24
BRANCH   1  26
ATOM     26  O   UNL     1       5.148   3.661 -22.234  0.00  0.00    -0.344 OA
BRANCH  26  27
ATOM     27  C   UNL     1       5.963   2.901 -22.822  0.00  0.00    +0.323 C 
BRANCH  27  29
ATOM     28  C   UNL     1       7.783   3.360 -23.931  0.00  0.00    +0.196 C 
ATOM     29  O   UNL     1       7.190   3.184 -22.836  0.00  0.00    -0.357 OA
ENDBRANCH  27  29
ENDBRANCH  26  27
ENDBRANCH   1  26
TORSDOF 5
ENDMDL
MODEL 6
REMARK VINA RESULT:    -8.247      2.920      6.703
REMARK INTER + INTRA:          -9.785
REMARK INTER:                 -10.484
REMARK INTRA:                   0.699
REMARK UNBOUND:                 0.631
REMARK  Name = COCO[C@@H]1C=C2[C@H]3Cc4ccc(OC)c5c4[C@]2(CCN3C)[C@](C)(O5)[C@@H]1O   ZINC000100393640
REMARK  9 active torsions:
REMARK  status: ('A' for Active; 'I' for Inactive)
REMARK    1  A    between atoms: C_1  and  O_2
REMARK    2  A    between atoms: O_2  and  C_3
REMARK    3  A    between atoms: C_3  and  O_4
REMARK    4  A    between atoms: O_4  and  C_5
REMARK    5  A    between atoms: C_13  and  O_14
REMARK    6  A    between atoms: O_14  and  C_15
REMARK    7  A    between atoms: N_21  and  C_22
REMARK    8  A    between atoms: C_23  and  C_24
REMARK    9  A    between atoms: C_26  and  O_27
REMARK                            x       y       z     vdW  Elec       q    Type
REMARK                         _______ _______ _______ _____ _____    ______ ____
ROOT
ATOM      1  C   UNL     1       0.551   2.006 -22.638  0.00  0.00    +0.176 C 
ATOM      2  C   UNL     1       0.651   3.251 -22.791  0.00  0.00    +0.013 C 
ATOM      3  C   UNL     1       1.796   3.792 -22.884  0.00  0.00    -0.009 C 
ATOM      4  C   UNL     1       1.889   5.051 -23.039  0.00  0.00    +0.096 C 
ATOM      5  C   UNL     1       3.022   5.588 -23.132  0.00  0.00    +0.094 C 
ATOM      6  C   UNL     1       4.077   4.868 -23.070  0.00  0.00    -0.034 A 
ATOM      7  C   UNL     1       5.214   5.406 -23.162  0.00  0.00    +0.008 A 
ATOM      8  C   UNL     1       6.249   4.695 -23.101  0.00  0.00    +0.050 A 
ATOM      9  C   UNL     1       6.160   3.437 -22.946  0.00  0.00    +0.162 A 
ATOM     10  C   UNL     1       5.010   2.897 -22.853  0.00  0.00    +0.167 A 
ATOM     11  O   UNL     1       4.233   1.616 -22.679  0.00  0.00    -0.478 OA
ATOM     12  C   UNL     1       2.730   1.818 -22.667  0.00  0.00    +0.150 C 
ATOM     13  C   UNL     1       2.926   0.584 -22.522  0.00  0.00    +0.060 C 
ATOM     14  C   UNL     1       3.967   3.616 -22.915  0.00  0.00    +0.016 A 
ATOM     15  N   UNL     1       0.554   4.542 -22.946  0.00  0.00    +0.239 N 
ATOM     16  H   UNL     1      -0.265   5.147 -22.999  0.00  0.00    +0.204 HD
ATOM     17  C   UNL     1      -0.445   5.300 -23.014  0.00  0.00    +0.191 C 
ATOM     18  C   UNL     1       0.414   3.142 -22.772  0.00  0.00    +0.133 C 
ATOM     19  C   UNL     1       1.600   2.367 -22.707  0.00  0.00    +0.071 C 
ATOM     20  C   UNL     1       2.834   3.084 -22.823  0.00  0.00    +0.072 C 
ATOM     21  C   UNL     1       1.595   1.285 -22.575  0.00  0.00    +0.192 C 
ENDROOT
BRANCH   9  22
ATOM     22  O   UNL     1       7.198   2.731 -22.885  0.00  0.00    -0.491 OA
ATOM     23  C   UNL     1       8.247   3.099 -23.473  0.00  0.00    +0.277 C 
ENDBRANCH   9  22
BRANCH  21  24
ATOM     24  O   UNL     1       1.493   0.040 -22.422  0.00  0.00    -0.385 OA
ATOM     25  H   UNL     1       1.084  -0.147 -21.562  0.00  0.00    +0.210 HD
ENDBRANCH  21  24
BRANCH   1  26
ATOM     26  O   UNL     1      -0.586   1.475 -22.546  0.00  0.00    -0.344 OA
BRANCH  26  27
ATOM     27  C   UNL     1      -1.346   1.771 -21.587  0.00  0.00    +0.323 C 
BRANCH  27  29
ATOM     28  C   UNL     1      -3.077   3.085 -21.410  0.00  0.00    +0.196 C 
ATOM     29  O   UNL     1      -2.565   2.004 -21.800  0.00  0.00    -0.357 OA
ENDBRANCH  27  29
ENDBRANCH  26  27
ENDBRANCH   1  26
TORSDOF 5
ENDMDL
