MODEL 1
REMARK VINA RESULT:   -10.038      0.000      0.000
REMARK INTER + INTRA:         -10.198
REMARK INTER:                 -11.145
REMARK INTRA:                   0.947
REMARK UNBOUND:                 1.013
REMARK  Name = COC1=C2Oc3c(OC)ccc4c3[C@@]23CCN(C=O)[C@@H](C4)[C@H]3C=C1             ZINC000253505557
REMARK  4 active torsions:
REMARK  status: ('A' for Active; 'I' for Inactive)
REMARK    1  A    between atoms: C_1  and  O_2
REMARK    2  A    between atoms: O_2  and  C_3
REMARK    3  A    between atoms: C_7  and  O_8
REMARK    4  A    between atoms: O_8  and  C_9
REMARK                            x       y       z     vdW  Elec       q    Type
REMARK                         _______ _______ _______ _____ _____    ______ ____
ROOT
ATOM      1  C   UNL     1      -2.773   3.731 -25.311  0.00  0.00    +0.159 C 
ATOM      2  C   UNL     1      -1.638   3.371 -24.918  0.00  0.00    +0.158 C 
ATOM      3  O   UNL     1      -0.173   3.210 -25.263  0.00  0.00    -0.452 OA
ATOM      4  C   UNL     1       0.647   2.649 -24.135  0.00  0.00    +0.174 A 
ATOM      5  C   UNL     1       1.796   2.285 -23.741  0.00  0.00    +0.162 A 
ATOM      6  C   UNL     1       1.941   1.838 -22.566  0.00  0.00    +0.050 A 
ATOM      7  C   UNL     1       0.960   1.752 -21.794  0.00  0.00    +0.008 A 
ATOM      8  C   UNL     1      -0.175   2.113 -22.186  0.00  0.00    -0.038 A 
ATOM      9  C   UNL     1      -1.180   2.028 -21.402  0.00  0.00    +0.058 C 
ATOM     10  C   UNL     1      -2.314   2.387 -21.794  0.00  0.00    +0.088 C 
ATOM     11  C   UNL     1      -2.461   2.835 -22.969  0.00  0.00    +0.051 C 
ATOM     12  C   UNL     1      -3.610   3.198 -23.362  0.00  0.00    -0.017 C 
ATOM     13  N   UNL     1      -3.644   2.769 -22.141  0.00  0.00    -0.300 N 
ATOM     14  C   UNL     1      -4.605   2.665 -21.325  0.00  0.00    +0.328 C 
ATOM     15  O   UNL     1      -4.417   2.216 -20.168  0.00  0.00    -0.279 OA
ATOM     16  C   UNL     1      -3.844   3.273 -23.444  0.00  0.00    +0.109 C 
ATOM     17  C   UNL     1      -2.718   3.357 -24.292  0.00  0.00    +0.039 C 
ATOM     18  C   UNL     1      -0.343   2.561 -23.352  0.00  0.00    +0.016 A 
ATOM     19  C   UNL     1      -1.477   2.919 -23.739  0.00  0.00    +0.070 C 
ATOM     20  C   UNL     1      -3.759   3.642 -24.524  0.00  0.00    +0.045 C 
ENDROOT
BRANCH   1  22
ATOM     21  C   UNL     1      -3.333   3.418 -27.382  0.00  0.00    +0.277 C 
ATOM     22  O   UNL     1      -2.928   4.175 -26.471  0.00  0.00    -0.492 OA
ENDBRANCH   1  22
BRANCH   5  23
ATOM     23  O   UNL     1       2.781   2.369 -24.511  0.00  0.00    -0.491 OA
ATOM     24  C   UNL     1       3.944   2.293 -24.052  0.00  0.00    +0.277 C 
ENDBRANCH   5  23
TORSDOF 2
ENDMDL
MODEL 2
REMARK VINA RESULT:    -9.661      1.510      3.566
REMARK INTER + INTRA:          -9.778
REMARK INTER:                 -10.694
REMARK INTRA:                   0.916
REMARK UNBOUND:                 1.013
REMARK  Name = COC1=C2Oc3c(OC)ccc4c3[C@@]23CCN(C=O)[C@@H](C4)[C@H]3C=C1             ZINC000253505557
REMARK  4 active torsions:
REMARK  status: ('A' for Active; 'I' for Inactive)
REMARK    1  A    between atoms: C_1  and  O_2
REMARK    2  A    between atoms: O_2  and  C_3
REMARK    3  A    between atoms: C_7  and  O_8
REMARK    4  A    between atoms: O_8  and  C_9
REMARK                            x       y       z     vdW  Elec       q    Type
REMARK                         _______ _______ _______ _____ _____    ______ ____
ROOT
ATOM      1  C   UNL     1      -2.912   2.872 -21.832  0.00  0.00    +0.159 C 
ATOM      2  C   UNL     1      -1.682   2.785 -22.060  0.00  0.00    +0.158 C 
ATOM      3  O   UNL     1      -0.306   2.521 -21.489  0.00  0.00    -0.452 OA
ATOM      4  C   UNL     1       0.792   2.608 -22.513  0.00  0.00    +0.174 A 
ATOM      5  C   UNL     1       2.036   2.519 -22.740  0.00  0.00    +0.162 A 
ATOM      6  C   UNL     1       2.472   2.708 -23.914  0.00  0.00    +0.050 A 
ATOM      7  C   UNL     1       1.684   2.981 -24.847  0.00  0.00    +0.008 A 
ATOM      8  C   UNL     1       0.454   3.068 -24.618  0.00  0.00    -0.038 A 
ATOM      9  C   UNL     1      -0.355   3.347 -25.567  0.00  0.00    +0.058 C 
ATOM     10  C   UNL     1      -1.583   3.434 -25.339  0.00  0.00    +0.088 C 
ATOM     11  C   UNL     1      -2.021   3.246 -24.166  0.00  0.00    +0.051 C 
ATOM     12  C   UNL     1      -3.264   3.335 -23.940  0.00  0.00    -0.017 C 
ATOM     13  N   UNL     1      -2.997   3.557 -25.187  0.00  0.00    -0.300 N 
ATOM     14  C   UNL     1      -3.754   3.834 -26.161  0.00  0.00    +0.328 C 
ATOM     15  O   UNL     1      -3.280   4.014 -27.309  0.00  0.00    -0.279 OA
ATOM     16  C   UNL     1      -3.519   3.352 -23.891  0.00  0.00    +0.109 C 
ATOM     17  C   UNL     1      -2.605   3.046 -22.859  0.00  0.00    +0.039 C 
ATOM     18  C   UNL     1      -0.003   2.884 -23.458  0.00  0.00    +0.016 A 
ATOM     19  C   UNL     1      -1.230   2.973 -23.235  0.00  0.00    +0.070 C 
ATOM     20  C   UNL     1      -3.701   3.149 -22.780  0.00  0.00    +0.045 C 
ENDROOT
BRANCH   1  22
ATOM     21  C   UNL     1      -3.263   3.596 -19.818  0.00  0.00    +0.277 C 
ATOM     22  O   UNL     1      -3.353   2.688 -20.675  0.00  0.00    -0.492 OA
ENDBRANCH   1  22
BRANCH   5  23
ATOM     23  O   UNL     1       2.829   2.246 -21.809  0.00  0.00    -0.491 OA
ATOM     24  C   UNL     1       2.962   1.062 -21.425  0.00  0.00    +0.277 C 
ENDBRANCH   5  23
TORSDOF 2
ENDMDL
MODEL 3
REMARK VINA RESULT:    -9.626      1.905      5.918
REMARK INTER + INTRA:          -9.739
REMARK INTER:                 -10.877
REMARK INTRA:                   1.138
REMARK UNBOUND:                 1.013
REMARK  Name = COC1=C2Oc3c(OC)ccc4c3[C@@]23CCN(C=O)[C@@H](C4)[C@H]3C=C1             ZINC000253505557
REMARK  4 active torsions:
REMARK  status: ('A' for Active; 'I' for Inactive)
REMARK    1  A    between atoms: C_1  and  O_2
REMARK    2  A    between atoms: O_2  and  C_3
REMARK    3  A    between atoms: C_7  and  O_8
REMARK    4  A    between atoms: O_8  and  C_9
REMARK                            x       y       z     vdW  Elec       q    Type
REMARK                         _______ _______ _______ _____ _____    ______ ____
ROOT
ATOM      1  C   UNL     1       0.197   1.721 -21.565  0.00  0.00    +0.159 C 
ATOM      2  C   UNL     1      -0.998   2.056 -21.746  0.00  0.00    +0.158 C 
ATOM      3  O   UNL     1      -2.414   2.028 -21.214  0.00  0.00    -0.452 OA
ATOM      4  C   UNL     1      -3.401   2.728 -22.105  0.00  0.00    +0.174 A 
ATOM      5  C   UNL     1      -4.609   3.065 -22.286  0.00  0.00    +0.162 A 
ATOM      6  C   UNL     1      -4.928   3.719 -23.322  0.00  0.00    +0.050 A 
ATOM      7  C   UNL     1      -4.059   4.032 -24.166  0.00  0.00    +0.008 A 
ATOM      8  C   UNL     1      -2.865   3.697 -23.985  0.00  0.00    -0.038 A 
ATOM      9  C   UNL     1      -1.973   4.014 -24.844  0.00  0.00    +0.058 C 
ATOM     10  C   UNL     1      -0.780   3.679 -24.663  0.00  0.00    +0.088 C 
ATOM     11  C   UNL     1      -0.460   3.025 -23.627  0.00  0.00    +0.051 C 
ATOM     12  C   UNL     1       0.748   2.688 -23.447  0.00  0.00    -0.017 C 
ATOM     13  N   UNL     1       0.603   3.347 -24.553  0.00  0.00    -0.300 N 
ATOM     14  C   UNL     1       1.446   3.686 -25.433  0.00  0.00    +0.328 C 
ATOM     15  O   UNL     1       1.087   4.334 -26.446  0.00  0.00    -0.279 OA
ATOM     16  C   UNL     1       0.996   2.618 -23.409  0.00  0.00    +0.109 C 
ATOM     17  C   UNL     1      -0.007   2.280 -22.474  0.00  0.00    +0.039 C 
ATOM     18  C   UNL     1      -2.524   3.046 -22.960  0.00  0.00    +0.016 A 
ATOM     19  C   UNL     1      -1.332   2.714 -22.784  0.00  0.00    +0.070 C 
ATOM     20  C   UNL     1       1.069   2.042 -22.423  0.00  0.00    +0.045 C 
ENDROOT
BRANCH   1  22
ATOM     21  C   UNL     1       1.559   1.383 -19.912  0.00  0.00    +0.277 C 
ATOM     22  O   UNL     1       0.523   1.075 -20.543  0.00  0.00    -0.492 OA
ENDBRANCH   1  22
BRANCH   5  23
ATOM     23  O   UNL     1      -5.483   2.754 -21.443  0.00  0.00    -0.491 OA
ATOM     24  C   UNL     1      -6.685   2.676 -21.785  0.00  0.00    +0.277 C 
ENDBRANCH   5  23
TORSDOF 2
ENDMDL
MODEL 4
REMARK VINA RESULT:    -8.752      1.909      4.749
REMARK INTER + INTRA:          -8.763
REMARK INTER:                  -9.812
REMARK INTRA:                   1.049
REMARK UNBOUND:                 1.013
REMARK  Name = COC1=C2Oc3c(OC)ccc4c3[C@@]23CCN(C=O)[C@@H](C4)[C@H]3C=C1             ZINC000253505557
REMARK  4 active torsions:
REMARK  status: ('A' for Active; 'I' for Inactive)
REMARK    1  A    between atoms: C_1  and  O_2
REMARK    2  A    between atoms: O_2  and  C_3
REMARK    3  A    between atoms: C_7  and  O_8
REMARK    4  A    between atoms: O_8  and  C_9
REMARK                            x       y       z     vdW  Elec       q    Type
REMARK                         _______ _______ _______ _____ _____    ______ ____
ROOT
ATOM      1  C   UNL     1       0.777   2.918 -24.746  0.00  0.00    +0.159 C 
ATOM      2  C   UNL     1      -0.420   3.004 -24.382  0.00  0.00    +0.158 C 
ATOM      3  O   UNL     1      -1.838   3.358 -24.773  0.00  0.00    -0.452 OA
ATOM      4  C   UNL     1      -2.827   3.180 -23.655  0.00  0.00    +0.174 A 
ATOM      5  C   UNL     1      -4.038   3.268 -23.290  0.00  0.00    +0.162 A 
ATOM      6  C   UNL     1      -4.358   2.958 -22.105  0.00  0.00    +0.050 A 
ATOM      7  C   UNL     1      -3.488   2.566 -21.295  0.00  0.00    +0.008 A 
ATOM      8  C   UNL     1      -2.291   2.480 -21.660  0.00  0.00    -0.038 A 
ATOM      9  C   UNL     1      -1.399   2.081 -20.837  0.00  0.00    +0.058 C 
ATOM     10  C   UNL     1      -0.204   1.994 -21.201  0.00  0.00    +0.088 C 
ATOM     11  C   UNL     1       0.118   2.304 -22.386  0.00  0.00    +0.051 C 
ATOM     12  C   UNL     1       1.328   2.215 -22.750  0.00  0.00    -0.017 C 
ATOM     13  N   UNL     1       1.182   1.861 -21.513  0.00  0.00    -0.300 N 
ATOM     14  C   UNL     1       2.026   1.460 -20.660  0.00  0.00    +0.328 C 
ATOM     15  O   UNL     1       1.666   1.163 -19.495  0.00  0.00    -0.279 OA
ATOM     16  C   UNL     1       1.576   2.198 -22.827  0.00  0.00    +0.109 C 
ATOM     17  C   UNL     1       0.572   2.637 -23.717  0.00  0.00    +0.039 C 
ATOM     18  C   UNL     1      -1.950   2.783 -22.835  0.00  0.00    +0.016 A 
ATOM     19  C   UNL     1      -0.755   2.696 -23.193  0.00  0.00    +0.070 C 
ATOM     20  C   UNL     1       1.650   2.521 -23.921  0.00  0.00    +0.045 C 
ENDROOT
BRANCH   1  22
ATOM     21  C   UNL     1       1.229   4.426 -26.238  0.00  0.00    +0.277 C 
ATOM     22  O   UNL     1       1.104   3.222 -25.916  0.00  0.00    -0.492 OA
ENDBRANCH   1  22
BRANCH   5  23
ATOM     23  O   UNL     1      -4.913   3.660 -24.098  0.00  0.00    -0.491 OA
ATOM     24  C   UNL     1      -4.756   4.735 -24.719  0.00  0.00    +0.277 C 
ENDBRANCH   5  23
TORSDOF 2
ENDMDL
MODEL 5
REMARK VINA RESULT:    -8.337      2.554      5.623
REMARK INTER + INTRA:          -8.299
REMARK INTER:                  -9.363
REMARK INTRA:                   1.064
REMARK UNBOUND:                 1.013
REMARK  Name = COC1=C2Oc3c(OC)ccc4c3[C@@]23CCN(C=O)[C@@H](C4)[C@H]3C=C1             ZINC000253505557
REMARK  4 active torsions:
REMARK  status: ('A' for Active; 'I' for Inactive)
REMARK    1  A    between atoms: C_1  and  O_2
REMARK    2  A    between atoms: O_2  and  C_3
REMARK    3  A    between atoms: C_7  and  O_8
REMARK    4  A    between atoms: O_8  and  C_9
REMARK                            x       y       z     vdW  Elec       q    Type
REMARK                         _______ _______ _______ _____ _____    ______ ____
ROOT
ATOM      1  C   UNL     1       2.628   5.155 -23.177  0.00  0.00    +0.159 C 
ATOM      2  C   UNL     1       1.423   4.869 -23.375  0.00  0.00    +0.158 C 
ATOM      3  O   UNL     1       0.062   5.364 -23.814  0.00  0.00    -0.452 OA
ATOM      4  C   UNL     1      -1.000   4.301 -23.775  0.00  0.00    +0.174 A 
ATOM      5  C   UNL     1      -2.219   4.016 -23.976  0.00  0.00    +0.162 A 
ATOM      6  C   UNL     1      -2.629   2.838 -23.759  0.00  0.00    +0.050 A 
ATOM      7  C   UNL     1      -1.841   1.958 -23.349  0.00  0.00    +0.008 A 
ATOM      8  C   UNL     1      -0.636   2.243 -23.151  0.00  0.00    -0.038 A 
ATOM      9  C   UNL     1       0.174   1.348 -22.731  0.00  0.00    +0.058 C 
ATOM     10  C   UNL     1       1.377   1.632 -22.533  0.00  0.00    +0.088 C 
ATOM     11  C   UNL     1       1.789   2.810 -22.750  0.00  0.00    +0.051 C 
ATOM     12  C   UNL     1       3.007   3.095 -22.549  0.00  0.00    -0.017 C 
ATOM     13  N   UNL     1       2.763   1.852 -22.277  0.00  0.00    -0.300 N 
ATOM     14  C   UNL     1       3.522   0.930 -21.862  0.00  0.00    +0.328 C 
ATOM     15  O   UNL     1       3.074  -0.225 -21.659  0.00  0.00    -0.279 OA
ATOM     16  C   UNL     1       3.256   3.155 -22.508  0.00  0.00    +0.109 C 
ATOM     17  C   UNL     1       2.343   4.127 -22.971  0.00  0.00    +0.039 C 
ATOM     18  C   UNL     1      -0.205   3.409 -23.360  0.00  0.00    +0.016 A 
ATOM     19  C   UNL     1       0.997   3.688 -23.161  0.00  0.00    +0.070 C 
ATOM     20  C   UNL     1       3.419   4.258 -22.762  0.00  0.00    +0.045 C 
ENDROOT
BRANCH   1  22
ATOM     21  C   UNL     1       3.620   6.950 -22.475  0.00  0.00    +0.277 C 
ATOM     22  O   UNL     1       3.044   6.316 -23.389  0.00  0.00    -0.492 OA
ENDBRANCH   1  22
BRANCH   5  23
ATOM     23  O   UNL     1      -3.012   4.895 -24.388  0.00  0.00    -0.491 OA
ATOM     24  C   UNL     1      -3.996   4.572 -25.092  0.00  0.00    +0.277 C 
ENDBRANCH   5  23
TORSDOF 2
ENDMDL
MODEL 6
REMARK VINA RESULT:    -8.043      3.421      7.483
REMARK INTER + INTRA:          -7.970
REMARK INTER:                  -8.901
REMARK INTRA:                   0.931
REMARK UNBOUND:                 1.013
REMARK  Name = COC1=C2Oc3c(OC)ccc4c3[C@@]23CCN(C=O)[C@@H](C4)[C@H]3C=C1             ZINC000253505557
REMARK  4 active torsions:
REMARK  status: ('A' for Active; 'I' for Inactive)
REMARK    1  A    between atoms: C_1  and  O_2
REMARK    2  A    between atoms: O_2  and  C_3
REMARK    3  A    between atoms: C_7  and  O_8
REMARK    4  A    between atoms: O_8  and  C_9
REMARK                            x       y       z     vdW  Elec       q    Type
REMARK                         _______ _______ _______ _____ _____    ______ ____
ROOT
ATOM      1  C   UNL     1       5.044   1.565 -22.079  0.00  0.00    +0.159 C 
ATOM      2  C   UNL     1       3.900   1.914 -22.454  0.00  0.00    +0.158 C 
ATOM      3  O   UNL     1       2.490   1.476 -22.786  0.00  0.00    -0.452 OA
ATOM      4  C   UNL     1       1.597   2.610 -23.206  0.00  0.00    +0.174 A 
ATOM      5  C   UNL     1       0.439   2.959 -23.584  0.00  0.00    +0.162 A 
ATOM      6  C   UNL     1       0.203   4.179 -23.832  0.00  0.00    +0.050 A 
ATOM      7  C   UNL     1       1.105   5.037 -23.705  0.00  0.00    +0.008 A 
ATOM      8  C   UNL     1       2.249   4.688 -23.330  0.00  0.00    -0.038 A 
ATOM      9  C   UNL     1       3.174   5.560 -23.199  0.00  0.00    +0.058 C 
ATOM     10  C   UNL     1       4.317   5.212 -22.825  0.00  0.00    +0.088 C 
ATOM     11  C   UNL     1       4.554   3.993 -22.577  0.00  0.00    +0.051 C 
ATOM     12  C   UNL     1       5.712   3.644 -22.199  0.00  0.00    -0.017 C 
ATOM     13  N   UNL     1       5.650   4.921 -22.406  0.00  0.00    -0.300 N 
ATOM     14  C   UNL     1       6.528   5.823 -22.292  0.00  0.00    +0.328 C 
ATOM     15  O   UNL     1       6.252   7.021 -22.547  0.00  0.00    -0.279 OA
ATOM     16  C   UNL     1       5.949   3.570 -22.121  0.00  0.00    +0.109 C 
ATOM     17  C   UNL     1       4.911   2.625 -22.274  0.00  0.00    +0.039 C 
ATOM     18  C   UNL     1       2.507   3.480 -23.078  0.00  0.00    +0.016 A 
ATOM     19  C   UNL     1       3.650   3.137 -22.705  0.00  0.00    +0.070 C 
ATOM     20  C   UNL     1       5.950   2.439 -21.953  0.00  0.00    +0.045 C 
ENDROOT
BRANCH   1  22
ATOM     21  C   UNL     1       5.127  -0.084 -20.673  0.00  0.00    +0.277 C 
ATOM     22  O   UNL     1       5.288   0.362 -21.832  0.00  0.00    -0.492 OA
ENDBRANCH   1  22
BRANCH   5  23
ATOM     23  O   UNL     1      -0.467   2.103 -23.713  0.00  0.00    -0.491 OA
ATOM     24  C   UNL     1      -1.648   2.388 -23.406  0.00  0.00    +0.277 C 
ENDBRANCH   5  23
TORSDOF 2
ENDMDL
MODEL 7
REMARK VINA RESULT:    -7.658      3.080      6.745
REMARK INTER + INTRA:          -7.541
REMARK INTER:                  -8.582
REMARK INTRA:                   1.042
REMARK UNBOUND:                 1.013
REMARK  Name = COC1=C2Oc3c(OC)ccc4c3[C@@]23CCN(C=O)[C@@H](C4)[C@H]3C=C1             ZINC000253505557
REMARK  4 active torsions:
REMARK  status: ('A' for Active; 'I' for Inactive)
REMARK    1  A    between atoms: C_1  and  O_2
REMARK    2  A    between atoms: O_2  and  C_3
REMARK    3  A    between atoms: C_7  and  O_8
REMARK    4  A    between atoms: O_8  and  C_9
REMARK                            x       y       z     vdW  Elec       q    Type
REMARK                         _______ _______ _______ _____ _____    ______ ____
ROOT
ATOM      1  C   UNL     1       4.992   4.311 -22.840  0.00  0.00    +0.159 C 
ATOM      2  C   UNL     1       3.755   4.166 -22.985  0.00  0.00    +0.158 C 
ATOM      3  O   UNL     1       2.468   4.750 -23.524  0.00  0.00    -0.452 OA
ATOM      4  C   UNL     1       1.268   3.879 -23.279  0.00  0.00    +0.174 A 
ATOM      5  C   UNL     1       0.017   3.735 -23.427  0.00  0.00    +0.162 A 
ATOM      6  C   UNL     1      -0.550   2.696 -22.978  0.00  0.00    +0.050 A 
ATOM      7  C   UNL     1       0.115   1.813 -22.392  0.00  0.00    +0.008 A 
ATOM      8  C   UNL     1       1.352   1.958 -22.247  0.00  0.00    -0.038 A 
ATOM      9  C   UNL     1       2.037   1.060 -21.650  0.00  0.00    +0.058 C 
ATOM     10  C   UNL     1       3.272   1.205 -21.505  0.00  0.00    +0.088 C 
ATOM     11  C   UNL     1       3.841   2.244 -21.953  0.00  0.00    +0.051 C 
ATOM     12  C   UNL     1       5.091   2.388 -21.804  0.00  0.00    -0.017 C 
ATOM     13  N   UNL     1       4.681   1.273 -21.288  0.00  0.00    -0.300 N 
ATOM     14  C   UNL     1       5.312   0.355 -20.690  0.00  0.00    +0.328 C 
ATOM     15  O   UNL     1       4.710  -0.660 -20.261  0.00  0.00    -0.279 OA
ATOM     16  C   UNL     1       5.347   2.419 -21.775  0.00  0.00    +0.109 C 
ATOM     17  C   UNL     1       4.570   3.397 -22.432  0.00  0.00    +0.039 C 
ATOM     18  C   UNL     1       1.938   2.985 -22.686  0.00  0.00    +0.016 A 
ATOM     19  C   UNL     1       3.172   3.125 -22.539  0.00  0.00    +0.070 C 
ATOM     20  C   UNL     1       5.658   3.414 -22.246  0.00  0.00    +0.045 C 
ENDROOT
BRANCH   1  22
ATOM     21  C   UNL     1       6.187   6.088 -22.497  0.00  0.00    +0.277 C 
ATOM     22  O   UNL     1       5.563   5.335 -23.279  0.00  0.00    -0.492 OA
ENDBRANCH   1  22
BRANCH   5  23
ATOM     23  O   UNL     1      -0.654   4.617 -24.013  0.00  0.00    -0.491 OA
ATOM     24  C   UNL     1      -1.902   4.533 -24.052  0.00  0.00    +0.277 C 
ENDBRANCH   5  23
TORSDOF 2
ENDMDL
MODEL 8
REMARK VINA RESULT:    -7.444      1.606      5.383
REMARK INTER + INTRA:          -7.301
REMARK INTER:                  -8.355
REMARK INTRA:                   1.054
REMARK UNBOUND:                 1.013
REMARK  Name = COC1=C2Oc3c(OC)ccc4c3[C@@]23CCN(C=O)[C@@H](C4)[C@H]3C=C1             ZINC000253505557
REMARK  4 active torsions:
REMARK  status: ('A' for Active; 'I' for Inactive)
REMARK    1  A    between atoms: C_1  and  O_2
REMARK    2  A    between atoms: O_2  and  C_3
REMARK    3  A    between atoms: C_7  and  O_8
REMARK    4  A    between atoms: O_8  and  C_9
REMARK                            x       y       z     vdW  Elec       q    Type
REMARK                         _______ _______ _______ _____ _____    ______ ____
ROOT
ATOM      1  C   UNL     1      -2.119   2.623 -21.170  0.00  0.00    +0.159 C 
ATOM      2  C   UNL     1      -2.539   2.947 -22.306  0.00  0.00    +0.158 C 
ATOM      3  O   UNL     1      -3.722   3.396 -23.136  0.00  0.00    -0.452 OA
ATOM      4  C   UNL     1      -3.390   3.600 -24.588  0.00  0.00    +0.174 A 
ATOM      5  C   UNL     1      -3.818   3.928 -25.735  0.00  0.00    +0.162 A 
ATOM      6  C   UNL     1      -3.024   3.929 -26.722  0.00  0.00    +0.050 A 
ATOM      7  C   UNL     1      -1.825   3.609 -26.571  0.00  0.00    +0.008 A 
ATOM      8  C   UNL     1      -1.404   3.284 -25.435  0.00  0.00    -0.038 A 
ATOM      9  C   UNL     1      -0.180   2.956 -25.274  0.00  0.00    +0.058 C 
ATOM     10  C   UNL     1       0.240   2.633 -24.140  0.00  0.00    +0.088 C 
ATOM     11  C   UNL     1      -0.552   2.631 -23.152  0.00  0.00    +0.051 C 
ATOM     12  C   UNL     1      -0.124   2.303 -22.006  0.00  0.00    -0.017 C 
ATOM     13  N   UNL     1       0.818   2.248 -22.893  0.00  0.00    -0.300 N 
ATOM     14  C   UNL     1       2.038   1.933 -22.789  0.00  0.00    +0.328 C 
ATOM     15  O   UNL     1       2.791   1.947 -23.794  0.00  0.00    -0.279 OA
ATOM     16  C   UNL     1      -0.037   2.236 -21.770  0.00  0.00    +0.109 C 
ATOM     17  C   UNL     1      -1.386   2.602 -21.972  0.00  0.00    +0.039 C 
ATOM     18  C   UNL     1      -2.176   3.276 -24.438  0.00  0.00    +0.016 A 
ATOM     19  C   UNL     1      -1.752   2.952 -23.307  0.00  0.00    +0.070 C 
ATOM     20  C   UNL     1      -0.904   2.300 -21.026  0.00  0.00    +0.045 C 
ENDROOT
BRANCH   1  22
ATOM     21  C   UNL     1      -3.265   3.700 -19.678  0.00  0.00    +0.277 C 
ATOM     22  O   UNL     1      -2.895   2.618 -20.188  0.00  0.00    -0.492 OA
ENDBRANCH   1  22
BRANCH   5  23
ATOM     23  O   UNL     1      -5.019   4.249 -25.891  0.00  0.00    -0.491 OA
ATOM     24  C   UNL     1      -5.930   3.481 -25.507  0.00  0.00    +0.277 C 
ENDBRANCH   5  23
TORSDOF 2
ENDMDL
MODEL 9
REMARK VINA RESULT:    -7.273      3.537      5.932
REMARK INTER + INTRA:          -7.110
REMARK INTER:                  -8.123
REMARK INTRA:                   1.013
REMARK UNBOUND:                 1.013
REMARK  Name = COC1=C2Oc3c(OC)ccc4c3[C@@]23CCN(C=O)[C@@H](C4)[C@H]3C=C1             ZINC000253505557
REMARK  4 active torsions:
REMARK  status: ('A' for Active; 'I' for Inactive)
REMARK    1  A    between atoms: C_1  and  O_2
REMARK    2  A    between atoms: O_2  and  C_3
REMARK    3  A    between atoms: C_7  and  O_8
REMARK    4  A    between atoms: O_8  and  C_9
REMARK                            x       y       z     vdW  Elec       q    Type
REMARK                         _______ _______ _______ _____ _____    ______ ____
ROOT
ATOM      1  C   UNL     1       0.933   4.850 -23.555  0.00  0.00    +0.159 C 
ATOM      2  C   UNL     1       2.081   5.208 -23.200  0.00  0.00    +0.158 C 
ATOM      3  O   UNL     1       2.930   6.294 -22.577  0.00  0.00    -0.452 OA
ATOM      4  C   UNL     1       4.387   5.933 -22.484  0.00  0.00    +0.174 A 
ATOM      5  C   UNL     1       5.546   6.298 -22.123  0.00  0.00    +0.162 A 
ATOM      6  C   UNL     1       6.529   5.519 -22.296  0.00  0.00    +0.050 A 
ATOM      7  C   UNL     1       6.362   4.394 -22.818  0.00  0.00    +0.008 A 
ATOM      8  C   UNL     1       5.214   4.036 -23.173  0.00  0.00    -0.038 A 
ATOM      9  C   UNL     1       5.037   2.888 -23.707  0.00  0.00    +0.058 C 
ATOM     10  C   UNL     1       3.891   2.531 -24.062  0.00  0.00    +0.088 C 
ATOM     11  C   UNL     1       2.907   3.309 -23.890  0.00  0.00    +0.051 C 
ATOM     12  C   UNL     1       1.749   2.944 -24.251  0.00  0.00    -0.017 C 
ATOM     13  N   UNL     1       2.630   2.028 -24.500  0.00  0.00    -0.300 N 
ATOM     14  C   UNL     1       2.510   0.883 -25.023  0.00  0.00    +0.328 C 
ATOM     15  O   UNL     1       3.511   0.141 -25.176  0.00  0.00    -0.279 OA
ATOM     16  C   UNL     1       1.511   2.870 -24.324  0.00  0.00    +0.109 C 
ATOM     17  C   UNL     1       1.731   4.133 -23.732  0.00  0.00    +0.039 C 
ATOM     18  C   UNL     1       4.221   4.796 -23.011  0.00  0.00    +0.016 A 
ATOM     19  C   UNL     1       3.078   4.434 -23.367  0.00  0.00    +0.070 C 
ATOM     20  C   UNL     1       0.773   3.711 -24.082  0.00  0.00    +0.045 C 
ENDROOT
BRANCH   1  22
ATOM     21  C   UNL     1      -0.971   5.284 -22.613  0.00  0.00    +0.277 C 
ATOM     22  O   UNL     1      -0.045   5.613 -23.389  0.00  0.00    -0.492 OA
ENDBRANCH   1  22
BRANCH   5  23
ATOM     23  O   UNL     1       5.718   7.424 -21.600  0.00  0.00    -0.491 OA
ATOM     24  C   UNL     1       6.877   7.864 -21.425  0.00  0.00    +0.277 C 
ENDBRANCH   5  23
TORSDOF 2
ENDMDL
