MODEL 1
REMARK VINA RESULT:   -10.259      0.000      0.000
REMARK INTER + INTRA:         -10.259
REMARK INTER:                 -10.259
REMARK INTRA:                   0.000
REMARK UNBOUND:                 0.000
REMARK  Name = C=C1C(=O)O[C@@H]2C[C@]3(C)CCC[C@H](C)[C@]34O[C@@H]4[C@@H]12          ZINC001857795303
REMARK  2 active torsions:
REMARK  status: ('A' for Active; 'I' for Inactive)
REMARK    1  A    between atoms: C_8  and  C_9
REMARK    2  A    between atoms: C_13  and  C_14
REMARK                            x       y       z     vdW  Elec       q    Type
REMARK                         _______ _______ _______ _____ _____    ______ ____
ROOT
ATOM      1  C   UNL     1       0.927   2.686 -24.168  0.00  0.00    +0.020 C 
ATOM      2  C   UNL     1       0.216   2.410 -23.115  0.00  0.00    +0.039 C 
ATOM      3  C   UNL     1       0.652   1.861 -22.020  0.00  0.00    +0.335 C 
ATOM      4  O   UNL     1      -0.350   1.747 -21.201  0.00  0.00    -0.457 OA
ATOM      5  C   UNL     1      -1.406   2.226 -21.789  0.00  0.00    +0.188 C 
ATOM      6  C   UNL     1      -2.641   2.342 -21.401  0.00  0.00    +0.055 C 
ATOM      7  C   UNL     1      -3.527   2.868 -22.195  0.00  0.00    +0.003 C 
ATOM      8  C   UNL     1      -4.762   2.983 -21.805  0.00  0.00    +0.010 C 
ATOM      9  C   UNL     1      -5.646   3.509 -22.599  0.00  0.00    +0.001 C 
ATOM     10  C   UNL     1      -5.296   3.919 -23.782  0.00  0.00    +0.006 C 
ATOM     11  C   UNL     1      -4.061   3.804 -24.171  0.00  0.00    +0.021 C 
ATOM     12  C   UNL     1      -3.711   4.214 -25.354  0.00  0.00    +0.010 C 
ATOM     13  C   UNL     1      -3.876   2.457 -21.012  0.00  0.00    +0.014 C 
ATOM     14  C   UNL     1      -3.176   3.278 -23.377  0.00  0.00    +0.105 C 
ATOM     15  O   UNL     1      -2.825   3.688 -24.560  0.00  0.00    -0.363 OA
ATOM     16  C   UNL     1      -1.941   3.162 -23.767  0.00  0.00    +0.163 C 
ATOM     17  O   UNL     1       1.875   1.490 -21.786  0.00  0.00    -0.245 OA
ATOM     18  C   UNL     1      -1.056   2.636 -22.972  0.00  0.00    +0.098 C 
ENDROOT
TORSDOF 0
ENDMDL
MODEL 2
REMARK VINA RESULT:   -10.056      1.285      2.617
REMARK INTER + INTRA:         -10.056
REMARK INTER:                 -10.056
REMARK INTRA:                   0.000
REMARK UNBOUND:                 0.000
REMARK  Name = C=C1C(=O)O[C@@H]2C[C@]3(C)CCC[C@H](C)[C@]34O[C@@H]4[C@@H]12          ZINC001857795303
REMARK  2 active torsions:
REMARK  status: ('A' for Active; 'I' for Inactive)
REMARK    1  A    between atoms: C_8  and  C_9
REMARK    2  A    between atoms: C_13  and  C_14
REMARK                            x       y       z     vdW  Elec       q    Type
REMARK                         _______ _______ _______ _____ _____    ______ ____
ROOT
ATOM      1  C   UNL     1       0.073   1.505 -20.997  0.00  0.00    +0.020 C 
ATOM      2  C   UNL     1      -0.025   1.935 -22.220  0.00  0.00    +0.039 C 
ATOM      3  C   UNL     1       0.933   1.966 -23.098  0.00  0.00    +0.335 C 
ATOM      4  O   UNL     1       0.453   2.460 -24.200  0.00  0.00    -0.457 OA
ATOM      5  C   UNL     1      -0.803   2.735 -24.003  0.00  0.00    +0.188 C 
ATOM      6  C   UNL     1      -1.716   3.238 -24.779  0.00  0.00    +0.055 C 
ATOM      7  C   UNL     1      -2.924   3.417 -24.333  0.00  0.00    +0.003 C 
ATOM      8  C   UNL     1      -3.837   3.920 -25.110  0.00  0.00    +0.010 C 
ATOM      9  C   UNL     1      -5.044   4.099 -24.663  0.00  0.00    +0.001 C 
ATOM     10  C   UNL     1      -5.339   3.774 -23.439  0.00  0.00    +0.006 C 
ATOM     11  C   UNL     1      -4.427   3.271 -22.662  0.00  0.00    +0.021 C 
ATOM     12  C   UNL     1      -4.721   2.946 -21.438  0.00  0.00    +0.010 C 
ATOM     13  C   UNL     1      -2.628   3.741 -25.556  0.00  0.00    +0.014 C 
ATOM     14  C   UNL     1      -3.219   3.092 -23.109  0.00  0.00    +0.105 C 
ATOM     15  O   UNL     1      -3.513   2.767 -21.885  0.00  0.00    -0.363 OA
ATOM     16  C   UNL     1      -2.306   2.589 -22.332  0.00  0.00    +0.163 C 
ATOM     17  O   UNL     1       2.157   1.573 -22.908  0.00  0.00    -0.245 OA
ATOM     18  C   UNL     1      -1.098   2.410 -22.779  0.00  0.00    +0.098 C 
ENDROOT
TORSDOF 0
ENDMDL
MODEL 3
REMARK VINA RESULT:    -9.717      1.643      4.540
REMARK INTER + INTRA:          -9.717
REMARK INTER:                  -9.717
REMARK INTRA:                   0.000
REMARK UNBOUND:                 0.000
REMARK  Name = C=C1C(=O)O[C@@H]2C[C@]3(C)CCC[C@H](C)[C@]34O[C@@H]4[C@@H]12          ZINC001857795303
REMARK  2 active torsions:
REMARK  status: ('A' for Active; 'I' for Inactive)
REMARK    1  A    between atoms: C_8  and  C_9
REMARK    2  A    between atoms: C_13  and  C_14
REMARK                            x       y       z     vdW  Elec       q    Type
REMARK                         _______ _______ _______ _____ _____    ______ ____
ROOT
ATOM      1  C   UNL     1      -4.756   4.228 -24.385  0.00  0.00    +0.020 C 
ATOM      2  C   UNL     1      -4.297   3.590 -23.350  0.00  0.00    +0.039 C 
ATOM      3  C   UNL     1      -4.987   3.220 -22.312  0.00  0.00    +0.335 C 
ATOM      4  O   UNL     1      -4.184   2.610 -21.492  0.00  0.00    -0.457 OA
ATOM      5  C   UNL     1      -2.996   2.604 -22.023  0.00  0.00    +0.188 C 
ATOM      6  C   UNL     1      -1.861   2.125 -21.609  0.00  0.00    +0.055 C 
ATOM      7  C   UNL     1      -0.795   2.251 -22.343  0.00  0.00    +0.003 C 
ATOM      8  C   UNL     1       0.340   1.772 -21.929  0.00  0.00    +0.010 C 
ATOM      9  C   UNL     1       1.405   1.898 -22.663  0.00  0.00    +0.001 C 
ATOM     10  C   UNL     1       1.335   2.503 -23.812  0.00  0.00    +0.006 C 
ATOM     11  C   UNL     1       0.200   2.982 -24.226  0.00  0.00    +0.021 C 
ATOM     12  C   UNL     1       0.130   3.588 -25.374  0.00  0.00    +0.010 C 
ATOM     13  C   UNL     1      -0.726   1.646 -21.195  0.00  0.00    +0.014 C 
ATOM     14  C   UNL     1      -0.866   2.856 -23.492  0.00  0.00    +0.105 C 
ATOM     15  O   UNL     1      -0.936   3.462 -24.640  0.00  0.00    -0.363 OA
ATOM     16  C   UNL     1      -2.001   3.335 -23.906  0.00  0.00    +0.163 C 
ATOM     17  O   UNL     1      -6.256   3.423 -22.127  0.00  0.00    -0.245 OA
ATOM     18  C   UNL     1      -3.067   3.209 -23.171  0.00  0.00    +0.098 C 
ENDROOT
TORSDOF 0
ENDMDL
MODEL 4
REMARK VINA RESULT:    -9.497      1.350      5.097
REMARK INTER + INTRA:          -9.497
REMARK INTER:                  -9.497
REMARK INTRA:                   0.000
REMARK UNBOUND:                 0.000
REMARK  Name = C=C1C(=O)O[C@@H]2C[C@]3(C)CCC[C@H](C)[C@]34O[C@@H]4[C@@H]12          ZINC001857795303
REMARK  2 active torsions:
REMARK  status: ('A' for Active; 'I' for Inactive)
REMARK    1  A    between atoms: C_8  and  C_9
REMARK    2  A    between atoms: C_13  and  C_14
REMARK                            x       y       z     vdW  Elec       q    Type
REMARK                         _______ _______ _______ _____ _____    ______ ____
ROOT
ATOM      1  C   UNL     1      -4.074   2.249 -20.581  0.00  0.00    +0.020 C 
ATOM      2  C   UNL     1      -3.962   2.750 -21.776  0.00  0.00    +0.039 C 
ATOM      3  C   UNL     1      -4.921   3.283 -22.474  0.00  0.00    +0.335 C 
ATOM      4  O   UNL     1      -4.423   3.668 -23.611  0.00  0.00    -0.457 OA
ATOM      5  C   UNL     1      -3.157   3.374 -23.616  0.00  0.00    +0.188 C 
ATOM      6  C   UNL     1      -2.226   3.548 -24.506  0.00  0.00    +0.055 C 
ATOM      7  C   UNL     1      -1.010   3.156 -24.263  0.00  0.00    +0.003 C 
ATOM      8  C   UNL     1      -0.080   3.331 -25.154  0.00  0.00    +0.010 C 
ATOM      9  C   UNL     1       1.134   2.939 -24.911  0.00  0.00    +0.001 C 
ATOM     10  C   UNL     1       1.420   2.372 -23.776  0.00  0.00    +0.006 C 
ATOM     11  C   UNL     1       0.490   2.196 -22.885  0.00  0.00    +0.021 C 
ATOM     12  C   UNL     1       0.774   1.629 -21.751  0.00  0.00    +0.010 C 
ATOM     13  C   UNL     1      -1.296   3.724 -25.397  0.00  0.00    +0.014 C 
ATOM     14  C   UNL     1      -0.726   2.589 -23.129  0.00  0.00    +0.105 C 
ATOM     15  O   UNL     1      -0.442   2.021 -21.994  0.00  0.00    -0.363 OA
ATOM     16  C   UNL     1      -1.656   2.413 -22.238  0.00  0.00    +0.163 C 
ATOM     17  O   UNL     1      -6.159   3.408 -22.101  0.00  0.00    -0.245 OA
ATOM     18  C   UNL     1      -2.872   2.806 -22.482  0.00  0.00    +0.098 C 
ENDROOT
TORSDOF 0
ENDMDL
MODEL 5
REMARK VINA RESULT:    -8.567      2.445      3.861
REMARK INTER + INTRA:          -8.567
REMARK INTER:                  -8.567
REMARK INTRA:                   0.000
REMARK UNBOUND:                 0.000
REMARK  Name = C=C1C(=O)O[C@@H]2C[C@]3(C)CCC[C@H](C)[C@]34O[C@@H]4[C@@H]12          ZINC001857795303
REMARK  2 active torsions:
REMARK  status: ('A' for Active; 'I' for Inactive)
REMARK    1  A    between atoms: C_8  and  C_9
REMARK    2  A    between atoms: C_13  and  C_14
REMARK                            x       y       z     vdW  Elec       q    Type
REMARK                         _______ _______ _______ _____ _____    ______ ____
ROOT
ATOM      1  C   UNL     1       4.854   1.738 -22.832  0.00  0.00    +0.020 C 
ATOM      2  C   UNL     1       3.823   1.450 -22.094  0.00  0.00    +0.039 C 
ATOM      3  C   UNL     1       3.842   0.774 -20.984  0.00  0.00    +0.335 C 
ATOM      4  O   UNL     1       2.622   0.694 -20.542  0.00  0.00    -0.457 OA
ATOM      5  C   UNL     1       1.849   1.319 -21.379  0.00  0.00    +0.188 C 
ATOM      6  C   UNL     1       0.566   1.524 -21.393  0.00  0.00    +0.055 C 
ATOM      7  C   UNL     1       0.024   2.196 -22.365  0.00  0.00    +0.003 C 
ATOM      8  C   UNL     1      -1.260   2.401 -22.377  0.00  0.00    +0.010 C 
ATOM      9  C   UNL     1      -1.801   3.073 -23.349  0.00  0.00    +0.001 C 
ATOM     10  C   UNL     1      -1.059   3.540 -24.309  0.00  0.00    +0.006 C 
ATOM     11  C   UNL     1       0.224   3.336 -24.296  0.00  0.00    +0.021 C 
ATOM     12  C   UNL     1       0.967   3.803 -25.256  0.00  0.00    +0.010 C 
ATOM     13  C   UNL     1      -0.718   1.729 -21.405  0.00  0.00    +0.014 C 
ATOM     14  C   UNL     1       0.766   2.664 -23.324  0.00  0.00    +0.105 C 
ATOM     15  O   UNL     1       1.509   3.131 -24.284  0.00  0.00    -0.363 OA
ATOM     16  C   UNL     1       2.050   2.459 -23.312  0.00  0.00    +0.163 C 
ATOM     17  O   UNL     1       4.895   0.268 -20.416  0.00  0.00    -0.245 OA
ATOM     18  C   UNL     1       2.592   1.787 -22.339  0.00  0.00    +0.098 C 
ENDROOT
TORSDOF 0
ENDMDL
MODEL 6
REMARK VINA RESULT:    -8.297      1.575      5.631
REMARK INTER + INTRA:          -8.297
REMARK INTER:                  -8.297
REMARK INTRA:                   0.000
REMARK UNBOUND:                 0.000
REMARK  Name = C=C1C(=O)O[C@@H]2C[C@]3(C)CCC[C@H](C)[C@]34O[C@@H]4[C@@H]12          ZINC001857795303
REMARK  2 active torsions:
REMARK  status: ('A' for Active; 'I' for Inactive)
REMARK    1  A    between atoms: C_8  and  C_9
REMARK    2  A    between atoms: C_13  and  C_14
REMARK                            x       y       z     vdW  Elec       q    Type
REMARK                         _______ _______ _______ _____ _____    ______ ____
ROOT
ATOM      1  C   UNL     1      -2.853   1.975 -21.356  0.00  0.00    +0.020 C 
ATOM      2  C   UNL     1      -2.421   2.813 -22.251  0.00  0.00    +0.039 C 
ATOM      3  C   UNL     1      -3.154   3.617 -22.963  0.00  0.00    +0.335 C 
ATOM      4  O   UNL     1      -2.365   4.294 -23.743  0.00  0.00    -0.457 OA
ATOM      5  C   UNL     1      -1.145   3.909 -23.514  0.00  0.00    +0.188 C 
ATOM      6  C   UNL     1      -0.007   4.274 -24.025  0.00  0.00    +0.055 C 
ATOM      7  C   UNL     1       1.097   3.723 -23.615  0.00  0.00    +0.003 C 
ATOM      8  C   UNL     1       2.235   4.088 -24.127  0.00  0.00    +0.010 C 
ATOM      9  C   UNL     1       3.338   3.537 -23.717  0.00  0.00    +0.001 C 
ATOM     10  C   UNL     1       3.305   2.622 -22.795  0.00  0.00    +0.006 C 
ATOM     11  C   UNL     1       2.167   2.257 -22.283  0.00  0.00    +0.021 C 
ATOM     12  C   UNL     1       2.132   1.341 -21.360  0.00  0.00    +0.010 C 
ATOM     13  C   UNL     1       1.131   4.638 -24.538  0.00  0.00    +0.014 C 
ATOM     14  C   UNL     1       1.063   2.807 -22.693  0.00  0.00    +0.105 C 
ATOM     15  O   UNL     1       1.028   1.892 -21.771  0.00  0.00    -0.363 OA
ATOM     16  C   UNL     1      -0.075   2.442 -22.181  0.00  0.00    +0.163 C 
ATOM     17  O   UNL     1      -4.447   3.724 -22.904  0.00  0.00    -0.245 OA
ATOM     18  C   UNL     1      -1.179   2.994 -22.592  0.00  0.00    +0.098 C 
ENDROOT
TORSDOF 0
ENDMDL
MODEL 7
REMARK VINA RESULT:    -8.262      2.468      4.649
REMARK INTER + INTRA:          -8.262
REMARK INTER:                  -8.262
REMARK INTRA:                   0.000
REMARK UNBOUND:                 0.000
REMARK  Name = C=C1C(=O)O[C@@H]2C[C@]3(C)CCC[C@H](C)[C@]34O[C@@H]4[C@@H]12          ZINC001857795303
REMARK  2 active torsions:
REMARK  status: ('A' for Active; 'I' for Inactive)
REMARK    1  A    between atoms: C_8  and  C_9
REMARK    2  A    between atoms: C_13  and  C_14
REMARK                            x       y       z     vdW  Elec       q    Type
REMARK                         _______ _______ _______ _____ _____    ______ ____
ROOT
ATOM      1  C   UNL     1       3.789   0.432 -21.389  0.00  0.00    +0.020 C 
ATOM      2  C   UNL     1       3.767   1.564 -22.030  0.00  0.00    +0.039 C 
ATOM      3  C   UNL     1       4.803   2.215 -22.468  0.00  0.00    +0.335 C 
ATOM      4  O   UNL     1       4.381   3.296 -23.053  0.00  0.00    -0.457 OA
ATOM      5  C   UNL     1       3.083   3.313 -22.977  0.00  0.00    +0.188 C 
ATOM      6  C   UNL     1       2.197   4.164 -23.401  0.00  0.00    +0.055 C 
ATOM      7  C   UNL     1       0.932   3.946 -23.194  0.00  0.00    +0.003 C 
ATOM      8  C   UNL     1       0.047   4.798 -23.619  0.00  0.00    +0.010 C 
ATOM      9  C   UNL     1      -1.217   4.579 -23.411  0.00  0.00    +0.001 C 
ATOM     10  C   UNL     1      -1.597   3.509 -22.779  0.00  0.00    +0.006 C 
ATOM     11  C   UNL     1      -0.711   2.657 -22.354  0.00  0.00    +0.021 C 
ATOM     12  C   UNL     1      -1.090   1.586 -21.721  0.00  0.00    +0.010 C 
ATOM     13  C   UNL     1       1.312   5.016 -23.826  0.00  0.00    +0.014 C 
ATOM     14  C   UNL     1       0.553   2.875 -22.561  0.00  0.00    +0.105 C 
ATOM     15  O   UNL     1       0.175   1.805 -21.929  0.00  0.00    -0.363 OA
ATOM     16  C   UNL     1       1.439   2.023 -22.136  0.00  0.00    +0.163 C 
ATOM     17  O   UNL     1       6.044   1.850 -22.343  0.00  0.00    -0.245 OA
ATOM     18  C   UNL     1       2.704   2.242 -22.344  0.00  0.00    +0.098 C 
ENDROOT
TORSDOF 0
ENDMDL
MODEL 8
REMARK VINA RESULT:    -8.145      3.210      6.667
REMARK INTER + INTRA:          -8.145
REMARK INTER:                  -8.145
REMARK INTRA:                   0.000
REMARK UNBOUND:                 0.000
REMARK  Name = C=C1C(=O)O[C@@H]2C[C@]3(C)CCC[C@H](C)[C@]34O[C@@H]4[C@@H]12          ZINC001857795303
REMARK  2 active torsions:
REMARK  status: ('A' for Active; 'I' for Inactive)
REMARK    1  A    between atoms: C_8  and  C_9
REMARK    2  A    between atoms: C_13  and  C_14
REMARK                            x       y       z     vdW  Elec       q    Type
REMARK                         _______ _______ _______ _____ _____    ______ ____
ROOT
ATOM      1  C   UNL     1      -0.976   5.222 -23.245  0.00  0.00    +0.020 C 
ATOM      2  C   UNL     1      -0.307   4.149 -23.552  0.00  0.00    +0.039 C 
ATOM      3  C   UNL     1      -0.814   3.023 -23.958  0.00  0.00    +0.335 C 
ATOM      4  O   UNL     1       0.165   2.194 -24.164  0.00  0.00    -0.457 OA
ATOM      5  C   UNL     1       1.277   2.807 -23.884  0.00  0.00    +0.188 C 
ATOM      6  C   UNL     1       2.518   2.421 -23.925  0.00  0.00    +0.055 C 
ATOM      7  C   UNL     1       3.467   3.244 -23.587  0.00  0.00    +0.003 C 
ATOM      8  C   UNL     1       4.707   2.857 -23.628  0.00  0.00    +0.010 C 
ATOM      9  C   UNL     1       5.655   3.680 -23.291  0.00  0.00    +0.001 C 
ATOM     10  C   UNL     1       5.363   4.889 -22.913  0.00  0.00    +0.006 C 
ATOM     11  C   UNL     1       4.123   5.275 -22.872  0.00  0.00    +0.021 C 
ATOM     12  C   UNL     1       3.830   6.484 -22.494  0.00  0.00    +0.010 C 
ATOM     13  C   UNL     1       3.758   2.035 -23.966  0.00  0.00    +0.014 C 
ATOM     14  C   UNL     1       3.174   4.453 -23.209  0.00  0.00    +0.105 C 
ATOM     15  O   UNL     1       2.881   5.662 -22.831  0.00  0.00    -0.363 OA
ATOM     16  C   UNL     1       1.933   4.839 -23.168  0.00  0.00    +0.163 C 
ATOM     17  O   UNL     1      -2.077   2.771 -24.129  0.00  0.00    -0.245 OA
ATOM     18  C   UNL     1       0.985   4.016 -23.506  0.00  0.00    +0.098 C 
ENDROOT
TORSDOF 0
ENDMDL
MODEL 9
REMARK VINA RESULT:    -8.030      2.380      6.259
REMARK INTER + INTRA:          -8.030
REMARK INTER:                  -8.030
REMARK INTRA:                   0.000
REMARK UNBOUND:                 0.000
REMARK  Name = C=C1C(=O)O[C@@H]2C[C@]3(C)CCC[C@H](C)[C@]34O[C@@H]4[C@@H]12          ZINC001857795303
REMARK  2 active torsions:
REMARK  status: ('A' for Active; 'I' for Inactive)
REMARK    1  A    between atoms: C_8  and  C_9
REMARK    2  A    between atoms: C_13  and  C_14
REMARK                            x       y       z     vdW  Elec       q    Type
REMARK                         _______ _______ _______ _____ _____    ______ ____
ROOT
ATOM      1  C   UNL     1      -1.907   2.221 -23.690  0.00  0.00    +0.020 C 
ATOM      2  C   UNL     1      -1.123   3.257 -23.723  0.00  0.00    +0.039 C 
ATOM      3  C   UNL     1      -1.481   4.478 -23.987  0.00  0.00    +0.335 C 
ATOM      4  O   UNL     1      -0.422   5.230 -23.925  0.00  0.00    -0.457 OA
ATOM      5  C   UNL     1       0.591   4.472 -23.623  0.00  0.00    +0.188 C 
ATOM      6  C   UNL     1       1.851   4.735 -23.446  0.00  0.00    +0.055 C 
ATOM      7  C   UNL     1       2.679   3.779 -23.143  0.00  0.00    +0.003 C 
ATOM      8  C   UNL     1       3.940   4.042 -22.966  0.00  0.00    +0.010 C 
ATOM      9  C   UNL     1       4.767   3.087 -22.664  0.00  0.00    +0.001 C 
ATOM     10  C   UNL     1       4.334   1.867 -22.539  0.00  0.00    +0.006 C 
ATOM     11  C   UNL     1       3.074   1.604 -22.716  0.00  0.00    +0.021 C 
ATOM     12  C   UNL     1       2.640   0.385 -22.591  0.00  0.00    +0.010 C 
ATOM     13  C   UNL     1       3.112   4.998 -23.268  0.00  0.00    +0.014 C 
ATOM     14  C   UNL     1       2.246   2.560 -23.018  0.00  0.00    +0.105 C 
ATOM     15  O   UNL     1       1.812   1.341 -22.894  0.00  0.00    -0.363 OA
ATOM     16  C   UNL     1       0.985   2.296 -23.196  0.00  0.00    +0.163 C 
ATOM     17  O   UNL     1      -2.685   4.879 -24.264  0.00  0.00    -0.245 OA
ATOM     18  C   UNL     1       0.158   3.253 -23.498  0.00  0.00    +0.098 C 
ENDROOT
TORSDOF 0
ENDMDL
