MODEL 1
REMARK VINA RESULT:    -8.485      0.000      0.000
REMARK INTER + INTRA:          -9.149
REMARK INTER:                 -11.187
REMARK INTRA:                   2.038
REMARK UNBOUND:                 1.815
REMARK  Name = ZINC000000345846
REMARK  10 active torsions:
REMARK  status: ('A' for Active; 'I' for Inactive)
REMARK    1  A    between atoms: C_1  and  O_2
REMARK    2  A    between atoms: O_2  and  C_3
REMARK    3  A    between atoms: C_6  and  C_7
REMARK    4  A    between atoms: C_7  and  C_8
REMARK    5  A    between atoms: C_11  and  O_12
REMARK    6  A    between atoms: C_13  and  O_14
REMARK    7  A    between atoms: O_14  and  C_15
REMARK    8  A    between atoms: N_20  and  C_21
REMARK    9  A    between atoms: N_20  and  C_22
REMARK   10  A    between atoms: C_24  and  O_25
REMARK                            x       y       z     vdW  Elec       q    Type
REMARK                         _______ _______ _______ _____ _____    ______ ____
ROOT
ATOM      1  C   UNL     1       0.841   3.447 -23.506  0.00  0.00    +0.102 C 
ATOM      2  C   UNL     1       1.517   2.552 -22.849  0.00  0.00    +0.008 A 
ATOM      3  C   UNL     1       1.388   2.459 -21.558  0.00  0.00    +0.058 A 
ATOM      4  C   UNL     1       2.063   1.564 -20.901  0.00  0.00    +0.159 A 
ATOM      5  C   UNL     1       2.867   0.761 -21.533  0.00  0.00    +0.162 A 
ATOM      6  C   UNL     1       2.996   0.854 -22.824  0.00  0.00    +0.053 A 
ATOM      7  C   UNL     1       2.320   1.749 -23.481  0.00  0.00    -0.030 A 
ATOM      8  C   UNL     1       2.449   1.842 -24.771  0.00  0.00    +0.086 C 
ATOM      9  C   UNL     1       1.773   2.737 -25.430  0.00  0.00    +0.138 C 
ATOM     10  N   UNL     1       0.969   3.540 -24.797  0.00  0.00    +0.245 N 
ATOM     11  C   UNL     1       0.107   4.488 -24.586  0.00  0.00    +0.193 C 
ATOM     12  C   UNL     1       0.798   3.962 -26.014  0.00  0.00    +0.193 C 
ENDROOT
BRANCH   5  13
ATOM     13  O   UNL     1       3.543  -0.134 -20.876  0.00  0.00    -0.491 OA
ATOM     14  C   UNL     1       4.814   0.036 -20.663  0.00  0.00    +0.277 C 
ENDBRANCH   5  13
BRANCH   4  15
ATOM     15  O   UNL     1       1.935   1.471 -19.610  0.00  0.00    -0.503 OA
ATOM     16  H   UNL     1       1.090   1.560 -19.216  0.00  0.00    +0.292 HD
ENDBRANCH   4  15
BRANCH   1  17
ATOM     17  C   UNL     1       0.037   4.249 -22.874  0.00  0.00    +0.094 C 
BRANCH  17  21
ATOM     18  C   UNL     1      -3.502   3.017 -21.795  0.00  0.00    +0.161 A 
ATOM     19  C   UNL     1      -3.011   2.660 -22.945  0.00  0.00    +0.049 A 
ATOM     20  C   UNL     1      -1.831   3.070 -23.304  0.00  0.00    +0.007 A 
ATOM     21  C   UNL     1      -1.142   3.839 -22.514  0.00  0.00    -0.038 A 
ATOM     22  C   UNL     1      -1.633   4.197 -21.365  0.00  0.00    +0.053 A 
ATOM     23  C   UNL     1      -2.812   3.787 -21.004  0.00  0.00    +0.159 A 
BRANCH  18  25
ATOM     24  C   UNL     1      -5.742   3.075 -22.025  0.00  0.00    +0.277 C 
ATOM     25  O   UNL     1      -4.682   2.607 -21.435  0.00  0.00    -0.491 OA
ENDBRANCH  18  25
BRANCH  23  26
ATOM     26  O   UNL     1      -3.303   4.145 -19.855  0.00  0.00    -0.503 OA
ATOM     27  H   UNL     1      -4.080   4.666 -19.820  0.00  0.00    +0.292 HD
ENDBRANCH  23  26
ENDBRANCH  17  21
ENDBRANCH   1  17
TORSDOF 6
ENDMDL
MODEL 2
REMARK VINA RESULT:    -7.544      1.398      6.018
REMARK INTER + INTRA:          -7.934
REMARK INTER:                 -10.861
REMARK INTRA:                   2.927
REMARK UNBOUND:                 1.815
REMARK  Name = ZINC000000345846
REMARK  10 active torsions:
REMARK  status: ('A' for Active; 'I' for Inactive)
REMARK    1  A    between atoms: C_1  and  O_2
REMARK    2  A    between atoms: O_2  and  C_3
REMARK    3  A    between atoms: C_6  and  C_7
REMARK    4  A    between atoms: C_7  and  C_8
REMARK    5  A    between atoms: C_11  and  O_12
REMARK    6  A    between atoms: C_13  and  O_14
REMARK    7  A    between atoms: O_14  and  C_15
REMARK    8  A    between atoms: N_20  and  C_21
REMARK    9  A    between atoms: N_20  and  C_22
REMARK   10  A    between atoms: C_24  and  O_25
REMARK                            x       y       z     vdW  Elec       q    Type
REMARK                         _______ _______ _______ _____ _____    ______ ____
ROOT
ATOM      1  C   UNL     1      -0.831   3.941 -23.763  0.00  0.00    +0.102 C 
ATOM      2  C   UNL     1      -1.952   3.783 -23.124  0.00  0.00    +0.008 A 
ATOM      3  C   UNL     1      -1.996   3.960 -21.837  0.00  0.00    +0.058 A 
ATOM      4  C   UNL     1      -3.117   3.802 -21.198  0.00  0.00    +0.159 A 
ATOM      5  C   UNL     1      -4.193   3.467 -21.845  0.00  0.00    +0.162 A 
ATOM      6  C   UNL     1      -4.148   3.289 -23.132  0.00  0.00    +0.053 A 
ATOM      7  C   UNL     1      -3.028   3.447 -23.772  0.00  0.00    -0.030 A 
ATOM      8  C   UNL     1      -2.983   3.270 -25.058  0.00  0.00    +0.086 C 
ATOM      9  C   UNL     1      -1.862   3.428 -25.698  0.00  0.00    +0.138 C 
ATOM     10  N   UNL     1      -0.786   3.763 -25.051  0.00  0.00    +0.245 N 
ATOM     11  C   UNL     1       0.455   4.075 -24.822  0.00  0.00    +0.193 C 
ATOM     12  C   UNL     1      -0.311   3.694 -26.259  0.00  0.00    +0.193 C 
ENDROOT
BRANCH   5  13
ATOM     13  O   UNL     1      -5.315   3.308 -21.206  0.00  0.00    -0.491 OA
ATOM     14  C   UNL     1      -6.342   2.791 -21.813  0.00  0.00    +0.277 C 
ENDBRANCH   5  13
BRANCH   4  15
ATOM     15  O   UNL     1      -3.162   3.980 -19.910  0.00  0.00    -0.503 OA
ATOM     16  H   UNL     1      -2.785   3.342 -19.336  0.00  0.00    +0.292 HD
ENDBRANCH   4  15
BRANCH   1  17
ATOM     17  C   UNL     1       0.245   4.276 -23.116  0.00  0.00    +0.094 C 
BRANCH  17  21
ATOM     18  C   UNL     1       2.897   1.567 -22.200  0.00  0.00    +0.161 A 
ATOM     19  C   UNL     1       1.629   1.299 -22.093  0.00  0.00    +0.049 A 
ATOM     20  C   UNL     1       0.745   2.202 -22.399  0.00  0.00    +0.007 A 
ATOM     21  C   UNL     1       1.129   3.374 -22.811  0.00  0.00    -0.038 A 
ATOM     22  C   UNL     1       2.397   3.642 -22.918  0.00  0.00    +0.053 A 
ATOM     23  C   UNL     1       3.281   2.740 -22.612  0.00  0.00    +0.159 A 
BRANCH  18  25
ATOM     24  C   UNL     1       3.910   0.270 -20.663  0.00  0.00    +0.277 C 
ATOM     25  O   UNL     1       3.781   0.665 -21.895  0.00  0.00    -0.491 OA
ENDBRANCH  18  25
BRANCH  23  26
ATOM     26  O   UNL     1       4.549   3.009 -22.719  0.00  0.00    -0.503 OA
ATOM     27  H   UNL     1       4.861   3.507 -23.448  0.00  0.00    +0.292 HD
ENDBRANCH  23  26
ENDBRANCH  17  21
ENDBRANCH   1  17
TORSDOF 6
ENDMDL
MODEL 3
REMARK VINA RESULT:    -7.488      3.113      6.723
REMARK INTER + INTRA:          -7.861
REMARK INTER:                 -11.120
REMARK INTRA:                   3.259
REMARK UNBOUND:                 1.815
REMARK  Name = ZINC000000345846
REMARK  10 active torsions:
REMARK  status: ('A' for Active; 'I' for Inactive)
REMARK    1  A    between atoms: C_1  and  O_2
REMARK    2  A    between atoms: O_2  and  C_3
REMARK    3  A    between atoms: C_6  and  C_7
REMARK    4  A    between atoms: C_7  and  C_8
REMARK    5  A    between atoms: C_11  and  O_12
REMARK    6  A    between atoms: C_13  and  O_14
REMARK    7  A    between atoms: O_14  and  C_15
REMARK    8  A    between atoms: N_20  and  C_21
REMARK    9  A    between atoms: N_20  and  C_22
REMARK   10  A    between atoms: C_24  and  O_25
REMARK                            x       y       z     vdW  Elec       q    Type
REMARK                         _______ _______ _______ _____ _____    ______ ____
ROOT
ATOM      1  C   UNL     1       0.105   2.240 -23.057  0.00  0.00    +0.102 C 
ATOM      2  C   UNL     1      -0.961   2.652 -23.676  0.00  0.00    +0.008 A 
ATOM      3  C   UNL     1      -0.895   2.991 -24.929  0.00  0.00    +0.058 A 
ATOM      4  C   UNL     1      -1.961   3.403 -25.547  0.00  0.00    +0.159 A 
ATOM      5  C   UNL     1      -3.094   3.476 -24.914  0.00  0.00    +0.162 A 
ATOM      6  C   UNL     1      -3.160   3.136 -23.660  0.00  0.00    +0.053 A 
ATOM      7  C   UNL     1      -2.094   2.724 -23.041  0.00  0.00    -0.030 A 
ATOM      8  C   UNL     1      -2.160   2.385 -21.788  0.00  0.00    +0.086 C 
ATOM      9  C   UNL     1      -1.093   1.973 -21.169  0.00  0.00    +0.138 C 
ATOM     10  N   UNL     1       0.039   1.900 -21.803  0.00  0.00    +0.245 N 
ATOM     11  C   UNL     1       1.300   1.684 -22.030  0.00  0.00    +0.193 C 
ATOM     12  C   UNL     1       0.411   1.486 -20.629  0.00  0.00    +0.193 C 
ENDROOT
BRANCH   5  13
ATOM     13  O   UNL     1      -4.161   3.888 -25.532  0.00  0.00    -0.491 OA
ATOM     14  C   UNL     1      -5.180   4.323 -24.852  0.00  0.00    +0.277 C 
ENDBRANCH   5  13
BRANCH   4  15
ATOM     15  O   UNL     1      -1.895   3.742 -26.801  0.00  0.00    -0.503 OA
ATOM     16  H   UNL     1      -2.341   4.509 -27.103  0.00  0.00    +0.292 HD
ENDBRANCH   4  15
BRANCH   1  17
ATOM     17  C   UNL     1       1.238   2.167 -23.691  0.00  0.00    +0.094 C 
BRANCH  17  21
ATOM     18  C   UNL     1       4.021   4.816 -23.027  0.00  0.00    +0.161 A 
ATOM     19  C   UNL     1       4.321   3.551 -23.059  0.00  0.00    +0.049 A 
ATOM     20  C   UNL     1       3.393   2.668 -23.280  0.00  0.00    +0.007 A 
ATOM     21  C   UNL     1       2.165   3.050 -23.469  0.00  0.00    -0.038 A 
ATOM     22  C   UNL     1       1.865   4.314 -23.437  0.00  0.00    +0.053 A 
ATOM     23  C   UNL     1       2.792   5.198 -23.216  0.00  0.00    +0.159 A 
BRANCH  18  25
ATOM     24  C   UNL     1       6.173   5.319 -22.590  0.00  0.00    +0.277 C 
ATOM     25  O   UNL     1       4.949   5.700 -22.805  0.00  0.00    -0.491 OA
ENDBRANCH  18  25
BRANCH  23  26
ATOM     26  O   UNL     1       2.491   6.462 -23.184  0.00  0.00    -0.503 OA
ATOM     27  H   UNL     1       3.154   7.105 -23.343  0.00  0.00    +0.292 HD
ENDBRANCH  23  26
ENDBRANCH  17  21
ENDBRANCH   1  17
TORSDOF 6
ENDMDL
MODEL 4
REMARK VINA RESULT:    -7.456      3.863      7.142
REMARK INTER + INTRA:          -7.819
REMARK INTER:                 -10.425
REMARK INTRA:                   2.606
REMARK UNBOUND:                 1.815
REMARK  Name = ZINC000000345846
REMARK  10 active torsions:
REMARK  status: ('A' for Active; 'I' for Inactive)
REMARK    1  A    between atoms: C_1  and  O_2
REMARK    2  A    between atoms: O_2  and  C_3
REMARK    3  A    between atoms: C_6  and  C_7
REMARK    4  A    between atoms: C_7  and  C_8
REMARK    5  A    between atoms: C_11  and  O_12
REMARK    6  A    between atoms: C_13  and  O_14
REMARK    7  A    between atoms: O_14  and  C_15
REMARK    8  A    between atoms: N_20  and  C_21
REMARK    9  A    between atoms: N_20  and  C_22
REMARK   10  A    between atoms: C_24  and  O_25
REMARK                            x       y       z     vdW  Elec       q    Type
REMARK                         _______ _______ _______ _____ _____    ______ ____
ROOT
ATOM      1  C   UNL     1       3.095   1.923 -23.054  0.00  0.00    +0.102 C 
ATOM      2  C   UNL     1       1.985   2.394 -23.538  0.00  0.00    +0.008 A 
ATOM      3  C   UNL     1       1.990   3.041 -24.665  0.00  0.00    +0.058 A 
ATOM      4  C   UNL     1       0.880   3.513 -25.149  0.00  0.00    +0.159 A 
ATOM      5  C   UNL     1      -0.236   3.338 -24.506  0.00  0.00    +0.162 A 
ATOM      6  C   UNL     1      -0.241   2.691 -23.378  0.00  0.00    +0.053 A 
ATOM      7  C   UNL     1       0.869   2.220 -22.894  0.00  0.00    -0.030 A 
ATOM      8  C   UNL     1       0.863   1.573 -21.766  0.00  0.00    +0.086 C 
ATOM      9  C   UNL     1       1.974   1.101 -21.282  0.00  0.00    +0.138 C 
ATOM     10  N   UNL     1       3.089   1.276 -21.925  0.00  0.00    +0.245 N 
ATOM     11  C   UNL     1       4.356   1.219 -22.212  0.00  0.00    +0.193 C 
ATOM     12  C   UNL     1       3.524   0.609 -20.897  0.00  0.00    +0.193 C 
ENDROOT
BRANCH   5  13
ATOM     13  O   UNL     1      -1.347   3.810 -24.989  0.00  0.00    -0.491 OA
ATOM     14  C   UNL     1      -2.388   3.039 -25.101  0.00  0.00    +0.277 C 
ENDBRANCH   5  13
BRANCH   4  15
ATOM     15  O   UNL     1       0.885   4.160 -26.277  0.00  0.00    -0.503 OA
ATOM     16  H   UNL     1       0.208   4.008 -26.907  0.00  0.00    +0.292 HD
ENDBRANCH   4  15
BRANCH   1  17
ATOM     17  C   UNL     1       4.211   2.097 -23.697  0.00  0.00    +0.094 C 
BRANCH  17  21
ATOM     18  C   UNL     1       6.433   5.212 -22.943  0.00  0.00    +0.161 A 
ATOM     19  C   UNL     1       6.982   4.101 -23.334  0.00  0.00    +0.049 A 
ATOM     20  C   UNL     1       6.241   3.062 -23.585  0.00  0.00    +0.007 A 
ATOM     21  C   UNL     1       4.951   3.135 -23.446  0.00  0.00    -0.038 A 
ATOM     22  C   UNL     1       4.401   4.246 -23.054  0.00  0.00    +0.053 A 
ATOM     23  C   UNL     1       5.141   5.286 -22.803  0.00  0.00    +0.159 A 
BRANCH  18  25
ATOM     24  C   UNL     1       8.135   6.170 -21.821  0.00  0.00    +0.277 C 
ATOM     25  O   UNL     1       7.173   6.251 -22.692  0.00  0.00    -0.491 OA
ENDBRANCH  18  25
BRANCH  23  26
ATOM     26  O   UNL     1       4.591   6.397 -22.412  0.00  0.00    -0.503 OA
ATOM     27  H   UNL     1       3.694   6.405 -22.143  0.00  0.00    +0.292 HD
ENDBRANCH  23  26
ENDBRANCH  17  21
ENDBRANCH   1  17
TORSDOF 6
ENDMDL
MODEL 5
REMARK VINA RESULT:    -7.367      3.167      3.737
REMARK INTER + INTRA:          -7.704
REMARK INTER:                  -9.833
REMARK INTRA:                   2.128
REMARK UNBOUND:                 1.815
REMARK  Name = ZINC000000345846
REMARK  10 active torsions:
REMARK  status: ('A' for Active; 'I' for Inactive)
REMARK    1  A    between atoms: C_1  and  O_2
REMARK    2  A    between atoms: O_2  and  C_3
REMARK    3  A    between atoms: C_6  and  C_7
REMARK    4  A    between atoms: C_7  and  C_8
REMARK    5  A    between atoms: C_11  and  O_12
REMARK    6  A    between atoms: C_13  and  O_14
REMARK    7  A    between atoms: O_14  and  C_15
REMARK    8  A    between atoms: N_20  and  C_21
REMARK    9  A    between atoms: N_20  and  C_22
REMARK   10  A    between atoms: C_24  and  O_25
REMARK                            x       y       z     vdW  Elec       q    Type
REMARK                         _______ _______ _______ _____ _____    ______ ____
ROOT
ATOM      1  C   UNL     1       2.438   3.442 -24.246  0.00  0.00    +0.102 C 
ATOM      2  C   UNL     1       3.260   4.199 -23.583  0.00  0.00    +0.008 A 
ATOM      3  C   UNL     1       2.897   5.394 -23.225  0.00  0.00    +0.058 A 
ATOM      4  C   UNL     1       3.720   6.151 -22.562  0.00  0.00    +0.159 A 
ATOM      5  C   UNL     1       4.906   5.714 -22.257  0.00  0.00    +0.162 A 
ATOM      6  C   UNL     1       5.268   4.518 -22.617  0.00  0.00    +0.053 A 
ATOM      7  C   UNL     1       4.446   3.761 -23.279  0.00  0.00    -0.030 A 
ATOM      8  C   UNL     1       4.809   2.565 -23.638  0.00  0.00    +0.086 C 
ATOM      9  C   UNL     1       3.986   1.807 -24.301  0.00  0.00    +0.138 C 
ATOM     10  N   UNL     1       2.801   2.245 -24.605  0.00  0.00    +0.245 N 
ATOM     11  C   UNL     1       1.596   2.272 -25.092  0.00  0.00    +0.193 C 
ATOM     12  C   UNL     1       2.745   1.059 -25.133  0.00  0.00    +0.193 C 
ENDROOT
BRANCH   5  13
ATOM     13  O   UNL     1       5.729   6.471 -21.594  0.00  0.00    -0.491 OA
ATOM     14  C   UNL     1       6.965   6.584 -21.982  0.00  0.00    +0.277 C 
ENDBRANCH   5  13
BRANCH   4  15
ATOM     15  O   UNL     1       3.357   7.348 -22.203  0.00  0.00    -0.503 OA
ATOM     16  H   UNL     1       3.499   7.635 -21.322  0.00  0.00    +0.292 HD
ENDBRANCH   4  15
BRANCH   1  17
ATOM     17  C   UNL     1       1.252   3.879 -24.550  0.00  0.00    +0.094 C 
BRANCH  17  21
ATOM     18  C   UNL     1      -1.605   3.785 -21.898  0.00  0.00    +0.161 A 
ATOM     19  C   UNL     1      -1.457   4.829 -22.659  0.00  0.00    +0.049 A 
ATOM     20  C   UNL     1      -0.505   4.860 -23.543  0.00  0.00    +0.007 A 
ATOM     21  C   UNL     1       0.300   3.847 -23.666  0.00  0.00    -0.038 A 
ATOM     22  C   UNL     1       0.153   2.803 -22.906  0.00  0.00    +0.053 A 
ATOM     23  C   UNL     1      -0.799   2.771 -22.021  0.00  0.00    +0.159 A 
BRANCH  18  25
ATOM     24  C   UNL     1      -3.782   3.524 -21.383  0.00  0.00    +0.277 C 
ATOM     25  O   UNL     1      -2.557   3.753 -21.013  0.00  0.00    -0.491 OA
ENDBRANCH  18  25
BRANCH  23  26
ATOM     26  O   UNL     1      -0.945   1.727 -21.260  0.00  0.00    -0.503 OA
ATOM     27  H   UNL     1      -1.090   0.885 -21.645  0.00  0.00    +0.292 HD
ENDBRANCH  23  26
ENDBRANCH  17  21
ENDBRANCH   1  17
TORSDOF 6
ENDMDL
MODEL 6
REMARK VINA RESULT:    -7.017      3.135      4.025
REMARK INTER + INTRA:          -7.253
REMARK INTER:                  -9.713
REMARK INTRA:                   2.460
REMARK UNBOUND:                 1.815
REMARK  Name = ZINC000000345846
REMARK  10 active torsions:
REMARK  status: ('A' for Active; 'I' for Inactive)
REMARK    1  A    between atoms: C_1  and  O_2
REMARK    2  A    between atoms: O_2  and  C_3
REMARK    3  A    between atoms: C_6  and  C_7
REMARK    4  A    between atoms: C_7  and  C_8
REMARK    5  A    between atoms: C_11  and  O_12
REMARK    6  A    between atoms: C_13  and  O_14
REMARK    7  A    between atoms: O_14  and  C_15
REMARK    8  A    between atoms: N_20  and  C_21
REMARK    9  A    between atoms: N_20  and  C_22
REMARK   10  A    between atoms: C_24  and  O_25
REMARK                            x       y       z     vdW  Elec       q    Type
REMARK                         _______ _______ _______ _____ _____    ______ ____
ROOT
ATOM      1  C   UNL     1      -0.278   3.156 -22.399  0.00  0.00    +0.102 C 
ATOM      2  C   UNL     1       0.916   3.612 -22.635  0.00  0.00    +0.008 A 
ATOM      3  C   UNL     1       1.077   4.845 -23.012  0.00  0.00    +0.058 A 
ATOM      4  C   UNL     1       2.271   5.301 -23.248  0.00  0.00    +0.159 A 
ATOM      5  C   UNL     1       3.304   4.525 -23.106  0.00  0.00    +0.162 A 
ATOM      6  C   UNL     1       3.142   3.291 -22.728  0.00  0.00    +0.053 A 
ATOM      7  C   UNL     1       1.948   2.835 -22.493  0.00  0.00    -0.030 A 
ATOM      8  C   UNL     1       1.787   1.602 -22.115  0.00  0.00    +0.086 C 
ATOM      9  C   UNL     1       0.592   1.145 -21.879  0.00  0.00    +0.138 C 
ATOM     10  N   UNL     1      -0.440   1.922 -22.021  0.00  0.00    +0.245 N 
ATOM     11  C   UNL     1      -1.677   2.319 -22.033  0.00  0.00    +0.193 C 
ATOM     12  C   UNL     1      -1.031   0.826 -21.648  0.00  0.00    +0.193 C 
ENDROOT
BRANCH   5  13
ATOM     13  O   UNL     1       4.499   4.981 -23.342  0.00  0.00    -0.491 OA
ATOM     14  C   UNL     1       5.529   4.197 -23.225  0.00  0.00    +0.277 C 
ENDBRANCH   5  13
BRANCH   4  15
ATOM     15  O   UNL     1       2.433   6.535 -23.626  0.00  0.00    -0.503 OA
ATOM     16  H   UNL     1       2.270   6.778 -24.516  0.00  0.00    +0.292 HD
ENDBRANCH   4  15
BRANCH   1  17
ATOM     17  C   UNL     1      -1.311   3.932 -22.540  0.00  0.00    +0.094 C 
BRANCH  17  21
ATOM     18  C   UNL     1      -3.225   4.035 -25.936  0.00  0.00    +0.161 A 
ATOM     19  C   UNL     1      -2.083   3.420 -25.852  0.00  0.00    +0.049 A 
ATOM     20  C   UNL     1      -1.445   3.386 -24.720  0.00  0.00    +0.007 A 
ATOM     21  C   UNL     1      -1.949   3.966 -23.672  0.00  0.00    -0.038 A 
ATOM     22  C   UNL     1      -3.092   4.581 -23.756  0.00  0.00    +0.053 A 
ATOM     23  C   UNL     1      -3.731   4.616 -24.888  0.00  0.00    +0.159 A 
BRANCH  18  25
ATOM     24  C   UNL     1      -3.408   3.413 -28.094  0.00  0.00    +0.277 C 
ATOM     25  O   UNL     1      -3.864   4.069 -27.068  0.00  0.00    -0.491 OA
ENDBRANCH  18  25
BRANCH  23  26
ATOM     26  O   UNL     1      -4.873   5.230 -24.971  0.00  0.00    -0.503 OA
ATOM     27  H   UNL     1      -5.576   4.847 -25.457  0.00  0.00    +0.292 HD
ENDBRANCH  23  26
ENDBRANCH  17  21
ENDBRANCH   1  17
TORSDOF 6
ENDMDL
MODEL 7
REMARK VINA RESULT:    -7.005      3.500      6.495
REMARK INTER + INTRA:          -7.238
REMARK INTER:                 -10.114
REMARK INTRA:                   2.877
REMARK UNBOUND:                 1.815
REMARK  Name = ZINC000000345846
REMARK  10 active torsions:
REMARK  status: ('A' for Active; 'I' for Inactive)
REMARK    1  A    between atoms: C_1  and  O_2
REMARK    2  A    between atoms: O_2  and  C_3
REMARK    3  A    between atoms: C_6  and  C_7
REMARK    4  A    between atoms: C_7  and  C_8
REMARK    5  A    between atoms: C_11  and  O_12
REMARK    6  A    between atoms: C_13  and  O_14
REMARK    7  A    between atoms: O_14  and  C_15
REMARK    8  A    between atoms: N_20  and  C_21
REMARK    9  A    between atoms: N_20  and  C_22
REMARK   10  A    between atoms: C_24  and  O_25
REMARK                            x       y       z     vdW  Elec       q    Type
REMARK                         _______ _______ _______ _____ _____    ______ ____
ROOT
ATOM      1  C   UNL     1       2.406   2.839 -23.174  0.00  0.00    +0.102 C 
ATOM      2  C   UNL     1       1.174   3.133 -22.883  0.00  0.00    +0.008 A 
ATOM      3  C   UNL     1       0.662   4.258 -23.283  0.00  0.00    +0.058 A 
ATOM      4  C   UNL     1      -0.571   4.551 -22.992  0.00  0.00    +0.159 A 
ATOM      5  C   UNL     1      -1.292   3.719 -22.301  0.00  0.00    +0.162 A 
ATOM      6  C   UNL     1      -0.779   2.593 -21.901  0.00  0.00    +0.053 A 
ATOM      7  C   UNL     1       0.453   2.300 -22.192  0.00  0.00    -0.030 A 
ATOM      8  C   UNL     1       0.965   1.174 -21.791  0.00  0.00    +0.086 C 
ATOM      9  C   UNL     1       2.198   0.881 -22.082  0.00  0.00    +0.138 C 
ATOM     10  N   UNL     1       2.919   1.713 -22.773  0.00  0.00    +0.245 N 
ATOM     11  C   UNL     1       3.940   2.216 -23.401  0.00  0.00    +0.193 C 
ATOM     12  C   UNL     1       3.786   0.762 -22.591  0.00  0.00    +0.193 C 
ENDROOT
BRANCH   5  13
ATOM     13  O   UNL     1      -2.525   4.012 -22.010  0.00  0.00    -0.491 OA
ATOM     14  C   UNL     1      -2.931   3.961 -20.776  0.00  0.00    +0.277 C 
ENDBRANCH   5  13
BRANCH   4  15
ATOM     15  O   UNL     1      -1.083   5.677 -23.393  0.00  0.00    -0.503 OA
ATOM     16  H   UNL     1      -1.300   6.341 -22.768  0.00  0.00    +0.292 HD
ENDBRANCH   4  15
BRANCH   1  17
ATOM     17  C   UNL     1       3.127   3.671 -23.865  0.00  0.00    +0.094 C 
BRANCH  17  21
ATOM     18  C   UNL     1       4.872   6.678 -22.098  0.00  0.00    +0.161 A 
ATOM     19  C   UNL     1       3.603   6.733 -22.374  0.00  0.00    +0.049 A 
ATOM     20  C   UNL     1       3.021   5.731 -22.962  0.00  0.00    +0.007 A 
ATOM     21  C   UNL     1       3.709   4.673 -23.276  0.00  0.00    -0.038 A 
ATOM     22  C   UNL     1       4.978   4.618 -23.001  0.00  0.00    +0.053 A 
ATOM     23  C   UNL     1       5.561   5.620 -22.412  0.00  0.00    +0.159 A 
BRANCH  18  25
ATOM     24  C   UNL     1       4.802   8.393 -20.640  0.00  0.00    +0.277 C 
ATOM     25  O   UNL     1       5.455   7.680 -21.509  0.00  0.00    -0.491 OA
ENDBRANCH  18  25
BRANCH  23  26
ATOM     26  O   UNL     1       6.830   5.564 -22.138  0.00  0.00    -0.503 OA
ATOM     27  H   UNL     1       7.364   6.328 -22.237  0.00  0.00    +0.292 HD
ENDBRANCH  23  26
ENDBRANCH  17  21
ENDBRANCH   1  17
TORSDOF 6
ENDMDL
MODEL 8
REMARK VINA RESULT:    -6.404      1.481      1.571
REMARK INTER + INTRA:          -6.461
REMARK INTER:                 -10.440
REMARK INTRA:                   3.980
REMARK UNBOUND:                 1.815
REMARK  Name = ZINC000000345846
REMARK  10 active torsions:
REMARK  status: ('A' for Active; 'I' for Inactive)
REMARK    1  A    between atoms: C_1  and  O_2
REMARK    2  A    between atoms: O_2  and  C_3
REMARK    3  A    between atoms: C_6  and  C_7
REMARK    4  A    between atoms: C_7  and  C_8
REMARK    5  A    between atoms: C_11  and  O_12
REMARK    6  A    between atoms: C_13  and  O_14
REMARK    7  A    between atoms: O_14  and  C_15
REMARK    8  A    between atoms: N_20  and  C_21
REMARK    9  A    between atoms: N_20  and  C_22
REMARK   10  A    between atoms: C_24  and  O_25
REMARK                            x       y       z     vdW  Elec       q    Type
REMARK                         _______ _______ _______ _____ _____    ______ ____
ROOT
ATOM      1  C   UNL     1       0.740   2.578 -23.513  0.00  0.00    +0.102 C 
ATOM      2  C   UNL     1       1.789   2.484 -22.750  0.00  0.00    +0.008 A 
ATOM      3  C   UNL     1       1.813   1.618 -21.782  0.00  0.00    +0.058 A 
ATOM      4  C   UNL     1       2.861   1.524 -21.019  0.00  0.00    +0.159 A 
ATOM      5  C   UNL     1       3.886   2.297 -21.224  0.00  0.00    +0.162 A 
ATOM      6  C   UNL     1       3.861   3.165 -22.193  0.00  0.00    +0.053 A 
ATOM      7  C   UNL     1       2.813   3.258 -22.956  0.00  0.00    -0.030 A 
ATOM      8  C   UNL     1       2.789   4.125 -23.924  0.00  0.00    +0.086 C 
ATOM      9  C   UNL     1       1.740   4.219 -24.687  0.00  0.00    +0.138 C 
ATOM     10  N   UNL     1       0.716   3.445 -24.482  0.00  0.00    +0.245 N 
ATOM     11  C   UNL     1      -0.458   2.908 -24.630  0.00  0.00    +0.193 C 
ATOM     12  C   UNL     1       0.284   4.126 -25.502  0.00  0.00    +0.193 C 
ENDROOT
BRANCH   5  13
ATOM     13  O   UNL     1       4.935   2.205 -20.462  0.00  0.00    -0.491 OA
ATOM     14  C   UNL     1       5.989   2.922 -20.715  0.00  0.00    +0.277 C 
ENDBRANCH   5  13
BRANCH   4  15
ATOM     15  O   UNL     1       2.885   0.657 -20.050  0.00  0.00    -0.503 OA
ATOM     16  H   UNL     1       3.289   0.878 -19.234  0.00  0.00    +0.292 HD
ENDBRANCH   4  15
BRANCH   1  17
ATOM     17  C   UNL     1      -0.285   1.805 -23.308  0.00  0.00    +0.094 C 
BRANCH  17  21
ATOM     18  C   UNL     1      -3.615   3.300 -21.936  0.00  0.00    +0.161 A 
ATOM     19  C   UNL     1      -3.553   2.863 -23.159  0.00  0.00    +0.049 A 
ATOM     20  C   UNL     1      -2.443   2.364 -23.616  0.00  0.00    +0.007 A 
ATOM     21  C   UNL     1      -1.394   2.303 -22.850  0.00  0.00    -0.038 A 
ATOM     22  C   UNL     1      -1.456   2.740 -21.627  0.00  0.00    +0.053 A 
ATOM     23  C   UNL     1      -2.565   3.239 -21.169  0.00  0.00    +0.159 A 
BRANCH  18  25
ATOM     24  C   UNL     1      -5.866   3.359 -21.917  0.00  0.00    +0.277 C 
ATOM     25  O   UNL     1      -4.725   3.799 -21.478  0.00  0.00    -0.491 OA
ENDBRANCH  18  25
BRANCH  23  26
ATOM     26  O   UNL     1      -2.627   3.676 -19.946  0.00  0.00    -0.503 OA
ATOM     27  H   UNL     1      -2.269   4.514 -19.731  0.00  0.00    +0.292 HD
ENDBRANCH  23  26
ENDBRANCH  17  21
ENDBRANCH   1  17
TORSDOF 6
ENDMDL
