MODEL 1
REMARK VINA RESULT:    -9.202      0.000      0.000
REMARK INTER + INTRA:         -10.093
REMARK INTER:                  -9.726
REMARK INTRA:                  -0.368
REMARK UNBOUND:                -0.354
REMARK  Name = ZINC000015207465
REMARK  4 active torsions:
REMARK  status: ('A' for Active; 'I' for Inactive)
REMARK    1  A    between atoms: C_2  and  C_3
REMARK    2  A    between atoms: C_2  and  C_4
REMARK    3  A    between atoms: C_7  and  C_8
REMARK    4  A    between atoms: C_13  and  C_14
REMARK                            x       y       z     vdW  Elec       q    Type
REMARK                         _______ _______ _______ _____ _____    ______ ____
ROOT
ATOM      1  C   UNL     1      -0.813   2.675 -23.007  0.00  0.00    +0.018 C 
ATOM      2  C   UNL     1      -0.856   3.132 -24.223  0.00  0.00    +0.009 C 
ATOM      3  C   UNL     1      -1.982   3.552 -24.720  0.00  0.00    +0.015 C 
ATOM      4  C   UNL     1      -3.064   3.514 -24.000  0.00  0.00    +0.008 C 
ATOM      5  C   UNL     1      -4.189   3.934 -24.498  0.00  0.00    -0.012 C 
ATOM      6  C   UNL     1      -5.272   3.896 -23.778  0.00  0.00    +0.048 C 
ATOM      7  C   UNL     1      -5.227   3.439 -22.562  0.00  0.00    +0.182 C 
ATOM      8  C   UNL     1      -4.102   3.019 -22.066  0.00  0.00    -0.004 C 
ATOM      9  C   UNL     1      -4.059   2.562 -20.850  0.00  0.00    +0.048 C 
ATOM     10  O   UNL     1      -6.310   3.401 -21.843  0.00  0.00    -0.288 OA
ATOM     11  C   UNL     1      -3.107   3.972 -25.216  0.00  0.00    +0.020 C 
ATOM     12  C   UNL     1      -3.020   3.057 -22.784  0.00  0.00    -0.053 C 
ATOM     13  C   UNL     1      -1.895   2.637 -22.288  0.00  0.00    +0.039 C 
ENDROOT
BRANCH   1  15
ATOM     14  C   UNL     1       0.314   1.463 -21.480  0.00  0.00    +0.007 C 
ATOM     15  C   UNL     1       0.313   2.255 -22.511  0.00  0.00    -0.076 C 
ATOM     16  C   UNL     1       1.438   2.628 -23.045  0.00  0.00    +0.039 C 
ENDBRANCH   1  15
TORSDOF 1
ENDMDL
MODEL 2
REMARK VINA RESULT:    -9.065      1.206      2.689
REMARK INTER + INTRA:          -9.948
REMARK INTER:                  -9.579
REMARK INTRA:                  -0.369
REMARK UNBOUND:                -0.354
REMARK  Name = ZINC000015207465
REMARK  4 active torsions:
REMARK  status: ('A' for Active; 'I' for Inactive)
REMARK    1  A    between atoms: C_2  and  C_3
REMARK    2  A    between atoms: C_2  and  C_4
REMARK    3  A    between atoms: C_7  and  C_8
REMARK    4  A    between atoms: C_13  and  C_14
REMARK                            x       y       z     vdW  Elec       q    Type
REMARK                         _______ _______ _______ _____ _____    ______ ____
ROOT
ATOM      1  C   UNL     1      -0.843   2.468 -22.359  0.00  0.00    +0.018 C 
ATOM      2  C   UNL     1      -1.514   2.349 -21.252  0.00  0.00    +0.009 C 
ATOM      3  C   UNL     1      -2.780   2.644 -21.225  0.00  0.00    +0.015 C 
ATOM      4  C   UNL     1      -3.374   3.058 -22.305  0.00  0.00    +0.008 C 
ATOM      5  C   UNL     1      -4.640   3.352 -22.276  0.00  0.00    -0.012 C 
ATOM      6  C   UNL     1      -5.235   3.767 -23.356  0.00  0.00    +0.048 C 
ATOM      7  C   UNL     1      -4.563   3.885 -24.463  0.00  0.00    +0.182 C 
ATOM      8  C   UNL     1      -3.298   3.591 -24.490  0.00  0.00    -0.004 C 
ATOM      9  C   UNL     1      -2.626   3.710 -25.597  0.00  0.00    +0.048 C 
ATOM     10  O   UNL     1      -5.158   4.300 -25.543  0.00  0.00    -0.288 OA
ATOM     11  C   UNL     1      -4.046   2.939 -21.198  0.00  0.00    +0.020 C 
ATOM     12  C   UNL     1      -2.703   3.177 -23.411  0.00  0.00    -0.053 C 
ATOM     13  C   UNL     1      -1.437   2.882 -23.439  0.00  0.00    +0.039 C 
ENDROOT
BRANCH   1  15
ATOM     14  C   UNL     1       1.162   2.573 -23.378  0.00  0.00    +0.007 C 
ATOM     15  C   UNL     1       0.423   2.173 -22.386  0.00  0.00    -0.076 C 
ATOM     16  C   UNL     1       0.949   1.479 -21.422  0.00  0.00    +0.039 C 
ENDBRANCH   1  15
TORSDOF 1
ENDMDL
MODEL 3
REMARK VINA RESULT:    -8.960      2.281      5.092
REMARK INTER + INTRA:          -9.837
REMARK INTER:                  -9.466
REMARK INTRA:                  -0.371
REMARK UNBOUND:                -0.354
REMARK  Name = ZINC000015207465
REMARK  4 active torsions:
REMARK  status: ('A' for Active; 'I' for Inactive)
REMARK    1  A    between atoms: C_2  and  C_3
REMARK    2  A    between atoms: C_2  and  C_4
REMARK    3  A    between atoms: C_7  and  C_8
REMARK    4  A    between atoms: C_13  and  C_14
REMARK                            x       y       z     vdW  Elec       q    Type
REMARK                         _______ _______ _______ _____ _____    ______ ____
ROOT
ATOM      1  C   UNL     1      -3.585   3.036 -22.584  0.00  0.00    +0.018 C 
ATOM      2  C   UNL     1      -3.144   2.535 -21.469  0.00  0.00    +0.009 C 
ATOM      3  C   UNL     1      -1.885   2.230 -21.348  0.00  0.00    +0.015 C 
ATOM      4  C   UNL     1      -1.070   2.427 -22.341  0.00  0.00    +0.008 C 
ATOM      5  C   UNL     1       0.188   2.121 -22.219  0.00  0.00    -0.012 C 
ATOM      6  C   UNL     1       1.004   2.318 -23.212  0.00  0.00    +0.048 C 
ATOM      7  C   UNL     1       0.560   2.819 -24.327  0.00  0.00    +0.182 C 
ATOM      8  C   UNL     1      -0.697   3.124 -24.448  0.00  0.00    -0.004 C 
ATOM      9  C   UNL     1      -1.140   3.625 -25.563  0.00  0.00    +0.048 C 
ATOM     10  O   UNL     1       1.376   3.015 -25.321  0.00  0.00    -0.288 OA
ATOM     11  C   UNL     1      -0.628   1.925 -21.226  0.00  0.00    +0.020 C 
ATOM     12  C   UNL     1      -1.513   2.928 -23.456  0.00  0.00    -0.053 C 
ATOM     13  C   UNL     1      -2.770   3.233 -23.577  0.00  0.00    +0.039 C 
ENDROOT
BRANCH   1  15
ATOM     14  C   UNL     1      -5.680   3.039 -21.757  0.00  0.00    +0.007 C 
ATOM     15  C   UNL     1      -4.844   3.341 -22.705  0.00  0.00    -0.076 C 
ATOM     16  C   UNL     1      -5.266   3.948 -23.774  0.00  0.00    +0.039 C 
ENDBRANCH   1  15
TORSDOF 1
ENDMDL
MODEL 4
REMARK VINA RESULT:    -8.774      2.284      4.550
REMARK INTER + INTRA:          -9.641
REMARK INTER:                  -9.269
REMARK INTRA:                  -0.372
REMARK UNBOUND:                -0.354
REMARK  Name = ZINC000015207465
REMARK  4 active torsions:
REMARK  status: ('A' for Active; 'I' for Inactive)
REMARK    1  A    between atoms: C_2  and  C_3
REMARK    2  A    between atoms: C_2  and  C_4
REMARK    3  A    between atoms: C_7  and  C_8
REMARK    4  A    between atoms: C_13  and  C_14
REMARK                            x       y       z     vdW  Elec       q    Type
REMARK                         _______ _______ _______ _____ _____    ______ ____
ROOT
ATOM      1  C   UNL     1      -3.375   2.947 -22.505  0.00  0.00    +0.018 C 
ATOM      2  C   UNL     1      -3.425   3.495 -23.682  0.00  0.00    +0.009 C 
ATOM      3  C   UNL     1      -2.346   3.589 -24.402  0.00  0.00    +0.015 C 
ATOM      4  C   UNL     1      -1.218   3.134 -23.943  0.00  0.00    +0.008 C 
ATOM      5  C   UNL     1      -0.140   3.228 -24.663  0.00  0.00    -0.012 C 
ATOM      6  C   UNL     1       0.989   2.773 -24.205  0.00  0.00    +0.048 C 
ATOM      7  C   UNL     1       1.038   2.225 -23.027  0.00  0.00    +0.182 C 
ATOM      8  C   UNL     1      -0.040   2.132 -22.308  0.00  0.00    -0.004 C 
ATOM      9  C   UNL     1       0.009   1.583 -21.130  0.00  0.00    +0.048 C 
ATOM     10  O   UNL     1       2.167   1.770 -22.569  0.00  0.00    -0.288 OA
ATOM     11  C   UNL     1      -1.268   3.682 -25.121  0.00  0.00    +0.020 C 
ATOM     12  C   UNL     1      -1.168   2.586 -22.765  0.00  0.00    -0.053 C 
ATOM     13  C   UNL     1      -2.247   2.492 -22.046  0.00  0.00    +0.039 C 
ENDROOT
BRANCH   1  15
ATOM     14  C   UNL     1      -4.412   2.274 -20.622  0.00  0.00    +0.007 C 
ATOM     15  C   UNL     1      -4.454   2.854 -21.785  0.00  0.00    -0.076 C 
ATOM     16  C   UNL     1      -5.575   3.340 -22.229  0.00  0.00    +0.039 C 
ENDBRANCH   1  15
TORSDOF 1
ENDMDL
MODEL 5
REMARK VINA RESULT:    -8.580      2.443      5.332
REMARK INTER + INTRA:          -9.435
REMARK INTER:                  -9.063
REMARK INTRA:                  -0.372
REMARK UNBOUND:                -0.354
REMARK  Name = ZINC000015207465
REMARK  4 active torsions:
REMARK  status: ('A' for Active; 'I' for Inactive)
REMARK    1  A    between atoms: C_2  and  C_3
REMARK    2  A    between atoms: C_2  and  C_4
REMARK    3  A    between atoms: C_7  and  C_8
REMARK    4  A    between atoms: C_13  and  C_14
REMARK                            x       y       z     vdW  Elec       q    Type
REMARK                         _______ _______ _______ _____ _____    ______ ____
ROOT
ATOM      1  C   UNL     1      -3.044   3.350 -23.465  0.00  0.00    +0.018 C 
ATOM      2  C   UNL     1      -3.078   2.778 -22.298  0.00  0.00    +0.009 C 
ATOM      3  C   UNL     1      -1.985   2.305 -21.775  0.00  0.00    +0.015 C 
ATOM      4  C   UNL     1      -0.861   2.403 -22.420  0.00  0.00    +0.008 C 
ATOM      5  C   UNL     1       0.231   1.928 -21.897  0.00  0.00    -0.012 C 
ATOM      6  C   UNL     1       1.356   2.026 -22.542  0.00  0.00    +0.048 C 
ATOM      7  C   UNL     1       1.388   2.598 -23.709  0.00  0.00    +0.182 C 
ATOM      8  C   UNL     1       0.296   3.072 -24.231  0.00  0.00    -0.004 C 
ATOM      9  C   UNL     1       0.329   3.644 -25.398  0.00  0.00    +0.048 C 
ATOM     10  O   UNL     1       2.513   2.696 -24.354  0.00  0.00    -0.288 OA
ATOM     11  C   UNL     1      -0.893   1.831 -21.253  0.00  0.00    +0.020 C 
ATOM     12  C   UNL     1      -0.828   2.974 -23.587  0.00  0.00    -0.053 C 
ATOM     13  C   UNL     1      -1.920   3.448 -24.110  0.00  0.00    +0.039 C 
ENDROOT
BRANCH   1  15
ATOM     14  C   UNL     1      -4.106   4.389 -25.157  0.00  0.00    +0.007 C 
ATOM     15  C   UNL     1      -4.137   3.824 -23.987  0.00  0.00    -0.076 C 
ATOM     16  C   UNL     1      -5.260   3.733 -23.339  0.00  0.00    +0.039 C 
ENDBRANCH   1  15
TORSDOF 1
ENDMDL
MODEL 6
REMARK VINA RESULT:    -8.345      2.600      5.473
REMARK INTER + INTRA:          -9.186
REMARK INTER:                  -8.815
REMARK INTRA:                  -0.371
REMARK UNBOUND:                -0.354
REMARK  Name = ZINC000015207465
REMARK  4 active torsions:
REMARK  status: ('A' for Active; 'I' for Inactive)
REMARK    1  A    between atoms: C_2  and  C_3
REMARK    2  A    between atoms: C_2  and  C_4
REMARK    3  A    between atoms: C_7  and  C_8
REMARK    4  A    between atoms: C_13  and  C_14
REMARK                            x       y       z     vdW  Elec       q    Type
REMARK                         _______ _______ _______ _____ _____    ______ ____
ROOT
ATOM      1  C   UNL     1      -2.433   2.982 -22.854  0.00  0.00    +0.018 C 
ATOM      2  C   UNL     1      -2.290   2.401 -21.700  0.00  0.00    +0.009 C 
ATOM      3  C   UNL     1      -1.128   1.936 -21.347  0.00  0.00    +0.015 C 
ATOM      4  C   UNL     1      -0.110   2.054 -22.147  0.00  0.00    +0.008 C 
ATOM      5  C   UNL     1       1.051   1.589 -21.793  0.00  0.00    -0.012 C 
ATOM      6  C   UNL     1       2.069   1.706 -22.593  0.00  0.00    +0.048 C 
ATOM      7  C   UNL     1       1.924   2.288 -23.747  0.00  0.00    +0.182 C 
ATOM      8  C   UNL     1       0.763   2.752 -24.100  0.00  0.00    -0.004 C 
ATOM      9  C   UNL     1       0.619   3.334 -25.254  0.00  0.00    +0.048 C 
ATOM     10  O   UNL     1       2.943   2.405 -24.547  0.00  0.00    -0.288 OA
ATOM     11  C   UNL     1       0.033   1.472 -20.993  0.00  0.00    +0.020 C 
ATOM     12  C   UNL     1      -0.254   2.635 -23.301  0.00  0.00    -0.053 C 
ATOM     13  C   UNL     1      -1.416   3.100 -23.654  0.00  0.00    +0.039 C 
ENDROOT
BRANCH   1  15
ATOM     14  C   UNL     1      -4.616   3.317 -22.412  0.00  0.00    +0.007 C 
ATOM     15  C   UNL     1      -3.595   3.447 -23.207  0.00  0.00    -0.076 C 
ATOM     16  C   UNL     1      -3.737   4.041 -24.354  0.00  0.00    +0.039 C 
ENDBRANCH   1  15
TORSDOF 1
ENDMDL
MODEL 7
REMARK VINA RESULT:    -8.164      2.442      4.923
REMARK INTER + INTRA:          -8.994
REMARK INTER:                  -8.624
REMARK INTRA:                  -0.371
REMARK UNBOUND:                -0.354
REMARK  Name = ZINC000015207465
REMARK  4 active torsions:
REMARK  status: ('A' for Active; 'I' for Inactive)
REMARK    1  A    between atoms: C_2  and  C_3
REMARK    2  A    between atoms: C_2  and  C_4
REMARK    3  A    between atoms: C_7  and  C_8
REMARK    4  A    between atoms: C_13  and  C_14
REMARK                            x       y       z     vdW  Elec       q    Type
REMARK                         _______ _______ _______ _____ _____    ______ ____
ROOT
ATOM      1  C   UNL     1      -2.107   3.415 -24.100  0.00  0.00    +0.018 C 
ATOM      2  C   UNL     1      -1.396   3.817 -25.111  0.00  0.00    +0.009 C 
ATOM      3  C   UNL     1      -0.116   3.588 -25.136  0.00  0.00    +0.015 C 
ATOM      4  C   UNL     1       0.451   2.958 -24.151  0.00  0.00    +0.008 C 
ATOM      5  C   UNL     1       1.730   2.730 -24.177  0.00  0.00    -0.012 C 
ATOM      6  C   UNL     1       2.298   2.099 -23.192  0.00  0.00    +0.048 C 
ATOM      7  C   UNL     1       1.586   1.697 -22.181  0.00  0.00    +0.182 C 
ATOM      8  C   UNL     1       0.306   1.926 -22.156  0.00  0.00    -0.004 C 
ATOM      9  C   UNL     1      -0.406   1.524 -21.145  0.00  0.00    +0.048 C 
ATOM     10  O   UNL     1       2.153   1.067 -21.196  0.00  0.00    -0.288 OA
ATOM     11  C   UNL     1       1.163   3.360 -25.162  0.00  0.00    +0.020 C 
ATOM     12  C   UNL     1      -0.261   2.556 -23.140  0.00  0.00    -0.053 C 
ATOM     13  C   UNL     1      -1.540   2.785 -23.114  0.00  0.00    +0.039 C 
ENDROOT
BRANCH   1  15
ATOM     14  C   UNL     1      -4.066   3.422 -22.988  0.00  0.00    +0.007 C 
ATOM     15  C   UNL     1      -3.387   3.644 -24.074  0.00  0.00    -0.076 C 
ATOM     16  C   UNL     1      -3.988   4.095 -25.135  0.00  0.00    +0.039 C 
ENDBRANCH   1  15
TORSDOF 1
ENDMDL
MODEL 8
REMARK VINA RESULT:    -7.866      2.052      3.249
REMARK INTER + INTRA:          -8.680
REMARK INTER:                  -8.316
REMARK INTRA:                  -0.364
REMARK UNBOUND:                -0.354
REMARK  Name = ZINC000015207465
REMARK  4 active torsions:
REMARK  status: ('A' for Active; 'I' for Inactive)
REMARK    1  A    between atoms: C_2  and  C_3
REMARK    2  A    between atoms: C_2  and  C_4
REMARK    3  A    between atoms: C_7  and  C_8
REMARK    4  A    between atoms: C_13  and  C_14
REMARK                            x       y       z     vdW  Elec       q    Type
REMARK                         _______ _______ _______ _____ _____    ______ ____
ROOT
ATOM      1  C   UNL     1       2.153   3.346 -23.153  0.00  0.00    +0.018 C 
ATOM      2  C   UNL     1       1.834   4.488 -23.687  0.00  0.00    +0.009 C 
ATOM      3  C   UNL     1       0.602   4.901 -23.648  0.00  0.00    +0.015 C 
ATOM      4  C   UNL     1      -0.310   4.173 -23.075  0.00  0.00    +0.008 C 
ATOM      5  C   UNL     1      -1.542   4.588 -23.036  0.00  0.00    -0.012 C 
ATOM      6  C   UNL     1      -2.455   3.860 -22.463  0.00  0.00    +0.048 C 
ATOM      7  C   UNL     1      -2.134   2.718 -21.930  0.00  0.00    +0.182 C 
ATOM      8  C   UNL     1      -0.903   2.305 -21.969  0.00  0.00    -0.004 C 
ATOM      9  C   UNL     1      -0.583   1.163 -21.435  0.00  0.00    +0.048 C 
ATOM     10  O   UNL     1      -3.047   1.990 -21.357  0.00  0.00    -0.288 OA
ATOM     11  C   UNL     1      -0.630   5.315 -23.609  0.00  0.00    +0.020 C 
ATOM     12  C   UNL     1       0.009   3.032 -22.541  0.00  0.00    -0.053 C 
ATOM     13  C   UNL     1       1.241   2.618 -22.580  0.00  0.00    +0.039 C 
ENDROOT
BRANCH   1  15
ATOM     14  C   UNL     1       3.643   1.658 -23.193  0.00  0.00    +0.007 C 
ATOM     15  C   UNL     1       3.385   2.933 -23.192  0.00  0.00    -0.076 C 
ATOM     16  C   UNL     1       4.359   3.793 -23.231  0.00  0.00    +0.039 C 
ENDBRANCH   1  15
TORSDOF 1
ENDMDL
MODEL 9
REMARK VINA RESULT:    -7.823      1.268      2.229
REMARK INTER + INTRA:          -8.634
REMARK INTER:                  -8.281
REMARK INTRA:                  -0.354
REMARK UNBOUND:                -0.354
REMARK  Name = ZINC000015207465
REMARK  4 active torsions:
REMARK  status: ('A' for Active; 'I' for Inactive)
REMARK    1  A    between atoms: C_2  and  C_3
REMARK    2  A    between atoms: C_2  and  C_4
REMARK    3  A    between atoms: C_7  and  C_8
REMARK    4  A    between atoms: C_13  and  C_14
REMARK                            x       y       z     vdW  Elec       q    Type
REMARK                         _______ _______ _______ _____ _____    ______ ____
ROOT
ATOM      1  C   UNL     1       1.046   1.931 -22.639  0.00  0.00    +0.018 C 
ATOM      2  C   UNL     1       1.387   2.435 -23.788  0.00  0.00    +0.009 C 
ATOM      3  C   UNL     1       0.500   3.041 -24.520  0.00  0.00    +0.015 C 
ATOM      4  C   UNL     1      -0.727   3.143 -24.104  0.00  0.00    +0.008 C 
ATOM      5  C   UNL     1      -1.613   3.750 -24.837  0.00  0.00    -0.012 C 
ATOM      6  C   UNL     1      -2.841   3.852 -24.421  0.00  0.00    +0.048 C 
ATOM      7  C   UNL     1      -3.181   3.347 -23.272  0.00  0.00    +0.182 C 
ATOM      8  C   UNL     1      -2.294   2.741 -22.540  0.00  0.00    -0.004 C 
ATOM      9  C   UNL     1      -2.635   2.237 -21.391  0.00  0.00    +0.048 C 
ATOM     10  O   UNL     1      -4.409   3.449 -22.856  0.00  0.00    -0.288 OA
ATOM     11  C   UNL     1      -0.386   3.647 -25.253  0.00  0.00    +0.020 C 
ATOM     12  C   UNL     1      -1.068   2.639 -22.955  0.00  0.00    -0.053 C 
ATOM     13  C   UNL     1      -0.181   2.033 -22.223  0.00  0.00    +0.039 C 
ENDROOT
BRANCH   1  15
ATOM     14  C   UNL     1       2.020   1.592 -20.638  0.00  0.00    +0.007 C 
ATOM     15  C   UNL     1       1.933   1.325 -21.907  0.00  0.00    -0.076 C 
ATOM     16  C   UNL     1       2.732   0.451 -22.444  0.00  0.00    +0.039 C 
ENDBRANCH   1  15
TORSDOF 1
ENDMDL
