MODEL 1
REMARK VINA RESULT:   -10.959      0.000      0.000
REMARK INTER + INTRA:         -12.067
REMARK INTER:                 -11.951
REMARK INTRA:                  -0.117
REMARK UNBOUND:                -0.148
REMARK  Name = COc1ccc2c3c1O[C@@H]1[C@@H](O)C=C[C@@H]4[C@@H](C2)N(C=O)CC[C@]314     ZINC000253503930
REMARK  3 active torsions:
REMARK  status: ('A' for Active; 'I' for Inactive)
REMARK    1  A    between atoms: C_1  and  O_2
REMARK    2  A    between atoms: O_2  and  C_3
REMARK    3  A    between atoms: C_11  and  O_12
REMARK                            x       y       z     vdW  Elec       q    Type
REMARK                         _______ _______ _______ _____ _____    ______ ____
ROOT
ATOM      1  C   UNL     1       0.931   2.644 -23.926  0.00  0.00    +0.162 A 
ATOM      2  C   UNL     1       1.069   2.168 -22.762  0.00  0.00    +0.050 A 
ATOM      3  C   UNL     1       0.082   2.057 -22.002  0.00  0.00    +0.008 A 
ATOM      4  C   UNL     1      -1.050   2.419 -22.396  0.00  0.00    -0.038 A 
ATOM      5  C   UNL     1      -1.210   2.896 -23.550  0.00  0.00    +0.012 A 
ATOM      6  C   UNL     1      -2.342   3.256 -23.937  0.00  0.00    +0.049 C 
ATOM      7  C   UNL     1      -3.579   3.699 -24.489  0.00  0.00    +0.035 C 
ATOM      8  C   UNL     1      -4.711   3.587 -23.655  0.00  0.00    +0.109 C 
ATOM      9  N   UNL     1      -4.519   3.051 -22.364  0.00  0.00    -0.300 N 
ATOM     10  C   UNL     1      -5.473   2.912 -21.548  0.00  0.00    +0.328 C 
ATOM     11  O   UNL     1      -6.638   3.251 -21.864  0.00  0.00    -0.279 OA
ATOM     12  C   UNL     1      -3.192   2.670 -22.017  0.00  0.00    +0.088 C 
ATOM     13  C   UNL     1      -3.331   3.146 -23.180  0.00  0.00    +0.046 C 
ATOM     14  C   UNL     1      -4.477   3.511 -23.573  0.00  0.00    -0.022 C 
ATOM     15  C   UNL     1      -4.619   3.983 -24.723  0.00  0.00    +0.004 C 
ATOM     16  C   UNL     1      -3.626   4.099 -25.498  0.00  0.00    +0.178 C 
ATOM     17  C   UNL     1      -2.495   3.736 -25.104  0.00  0.00    +0.217 C 
ATOM     18  O   UNL     1      -1.028   3.593 -25.438  0.00  0.00    -0.481 OA
ATOM     19  C   UNL     1      -2.060   2.308 -21.624  0.00  0.00    +0.058 C 
ATOM     20  C   UNL     1      -0.216   3.009 -24.320  0.00  0.00    +0.167 A 
ENDROOT
BRANCH   1  22
ATOM     21  C   UNL     1       2.773   1.839 -24.736  0.00  0.00    +0.277 C 
ATOM     22  O   UNL     1       1.921   2.753 -24.682  0.00  0.00    -0.491 OA
ENDBRANCH   1  22
BRANCH  16  23
ATOM     23  O   UNL     1      -3.774   4.570 -26.645  0.00  0.00    -0.384 OA
ATOM     24  H   UNL     1      -4.440   5.276 -26.621  0.00  0.00    +0.210 HD
ENDBRANCH  16  23
TORSDOF 2
ENDMDL
MODEL 2
REMARK VINA RESULT:   -10.577      1.915      5.273
REMARK INTER + INTRA:         -11.653
REMARK INTER:                 -11.545
REMARK INTRA:                  -0.107
REMARK UNBOUND:                -0.148
REMARK  Name = COc1ccc2c3c1O[C@@H]1[C@@H](O)C=C[C@@H]4[C@@H](C2)N(C=O)CC[C@]314     ZINC000253503930
REMARK  3 active torsions:
REMARK  status: ('A' for Active; 'I' for Inactive)
REMARK    1  A    between atoms: C_1  and  O_2
REMARK    2  A    between atoms: O_2  and  C_3
REMARK    3  A    between atoms: C_11  and  O_12
REMARK                            x       y       z     vdW  Elec       q    Type
REMARK                         _______ _______ _______ _____ _____    ______ ____
ROOT
ATOM      1  C   UNL     1      -3.544   3.496 -22.994  0.00  0.00    +0.162 A 
ATOM      2  C   UNL     1      -3.689   2.851 -21.914  0.00  0.00    +0.050 A 
ATOM      3  C   UNL     1      -2.728   2.225 -21.416  0.00  0.00    +0.008 A 
ATOM      4  C   UNL     1      -1.615   2.237 -21.989  0.00  0.00    -0.038 A 
ATOM      5  C   UNL     1      -1.447   2.871 -23.063  0.00  0.00    +0.012 A 
ATOM      6  C   UNL     1      -0.335   2.878 -23.630  0.00  0.00    +0.049 C 
ATOM      7  C   UNL     1       0.884   2.960 -24.367  0.00  0.00    +0.035 C 
ATOM      8  C   UNL     1       1.986   2.264 -23.829  0.00  0.00    +0.109 C 
ATOM      9  N   UNL     1       1.787   1.557 -22.625  0.00  0.00    -0.300 N 
ATOM     10  C   UNL     1       2.714   0.905 -22.070  0.00  0.00    +0.328 C 
ATOM     11  O   UNL     1       3.860   0.864 -22.578  0.00  0.00    -0.279 OA
ATOM     12  C   UNL     1       0.482   1.610 -22.057  0.00  0.00    +0.088 C 
ATOM     13  C   UNL     1       0.629   2.253 -23.135  0.00  0.00    +0.046 C 
ATOM     14  C   UNL     1       1.756   2.261 -23.710  0.00  0.00    -0.022 C 
ATOM     15  C   UNL     1       1.905   2.897 -24.777  0.00  0.00    +0.004 C 
ATOM     16  C   UNL     1       0.939   3.532 -25.288  0.00  0.00    +0.178 C 
ATOM     17  C   UNL     1      -0.174   3.521 -24.715  0.00  0.00    +0.217 C 
ATOM     18  O   UNL     1      -1.610   3.994 -24.736  0.00  0.00    -0.481 OA
ATOM     19  C   UNL     1      -0.631   1.599 -21.485  0.00  0.00    +0.058 C 
ATOM     20  C   UNL     1      -2.416   3.504 -23.570  0.00  0.00    +0.167 A 
ENDROOT
BRANCH   1  22
ATOM     21  C   UNL     1      -4.997   3.757 -24.581  0.00  0.00    +0.277 C 
ATOM     22  O   UNL     1      -4.507   4.120 -23.488  0.00  0.00    -0.491 OA
ENDBRANCH   1  22
BRANCH  16  23
ATOM     23  O   UNL     1       1.094   4.165 -26.354  0.00  0.00    -0.384 OA
ATOM     24  H   UNL     1       1.575   3.613 -26.990  0.00  0.00    +0.210 HD
ENDBRANCH  16  23
TORSDOF 2
ENDMDL
MODEL 3
REMARK VINA RESULT:   -10.463      1.786      3.191
REMARK INTER + INTRA:         -11.528
REMARK INTER:                 -11.419
REMARK INTRA:                  -0.109
REMARK UNBOUND:                -0.148
REMARK  Name = COc1ccc2c3c1O[C@@H]1[C@@H](O)C=C[C@@H]4[C@@H](C2)N(C=O)CC[C@]314     ZINC000253503930
REMARK  3 active torsions:
REMARK  status: ('A' for Active; 'I' for Inactive)
REMARK    1  A    between atoms: C_1  and  O_2
REMARK    2  A    between atoms: O_2  and  C_3
REMARK    3  A    between atoms: C_11  and  O_12
REMARK                            x       y       z     vdW  Elec       q    Type
REMARK                         _______ _______ _______ _____ _____    ______ ____
ROOT
ATOM      1  C   UNL     1       1.358   1.684 -22.156  0.00  0.00    +0.162 A 
ATOM      2  C   UNL     1       1.911   2.080 -23.223  0.00  0.00    +0.050 A 
ATOM      3  C   UNL     1       1.247   2.682 -24.095  0.00  0.00    +0.008 A 
ATOM      4  C   UNL     1       0.027   2.894 -23.911  0.00  0.00    -0.038 A 
ATOM      5  C   UNL     1      -0.544   2.509 -22.857  0.00  0.00    +0.012 A 
ATOM      6  C   UNL     1      -1.761   2.724 -22.679  0.00  0.00    +0.049 C 
ATOM      7  C   UNL     1      -3.139   2.910 -22.364  0.00  0.00    +0.035 C 
ATOM      8  C   UNL     1      -3.914   3.586 -23.329  0.00  0.00    +0.109 C 
ATOM      9  N   UNL     1      -3.264   4.013 -24.506  0.00  0.00    -0.300 N 
ATOM     10  C   UNL     1      -3.876   4.625 -25.425  0.00  0.00    +0.328 C 
ATOM     11  O   UNL     1      -5.100   4.877 -25.320  0.00  0.00    -0.279 OA
ATOM     12  C   UNL     1      -1.874   3.720 -24.615  0.00  0.00    +0.088 C 
ATOM     13  C   UNL     1      -2.429   3.326 -23.549  0.00  0.00    +0.046 C 
ATOM     14  C   UNL     1      -3.662   3.542 -23.368  0.00  0.00    -0.022 C 
ATOM     15  C   UNL     1      -4.214   3.153 -22.315  0.00  0.00    +0.004 C 
ATOM     16  C   UNL     1      -3.550   2.544 -21.428  0.00  0.00    +0.178 C 
ATOM     17  C   UNL     1      -2.330   2.332 -21.613  0.00  0.00    +0.217 C 
ATOM     18  O   UNL     1      -1.054   1.737 -21.060  0.00  0.00    -0.481 OA
ATOM     19  C   UNL     1      -0.654   3.508 -24.798  0.00  0.00    +0.058 C 
ATOM     20  C   UNL     1       0.124   1.901 -21.974  0.00  0.00    +0.167 A 
ENDROOT
BRANCH   1  22
ATOM     21  C   UNL     1       3.195   0.714 -21.538  0.00  0.00    +0.277 C 
ATOM     22  O   UNL     1       2.026   1.083 -21.287  0.00  0.00    -0.491 OA
ENDBRANCH   1  22
BRANCH  16  23
ATOM     23  O   UNL     1      -4.106   2.157 -20.379  0.00  0.00    -0.384 OA
ATOM     24  H   UNL     1      -3.975   1.201 -20.276  0.00  0.00    +0.210 HD
ENDBRANCH  16  23
TORSDOF 2
ENDMDL
MODEL 4
REMARK VINA RESULT:   -10.416      1.964      5.805
REMARK INTER + INTRA:         -11.477
REMARK INTER:                 -11.332
REMARK INTRA:                  -0.145
REMARK UNBOUND:                -0.148
REMARK  Name = COc1ccc2c3c1O[C@@H]1[C@@H](O)C=C[C@@H]4[C@@H](C2)N(C=O)CC[C@]314     ZINC000253503930
REMARK  3 active torsions:
REMARK  status: ('A' for Active; 'I' for Inactive)
REMARK    1  A    between atoms: C_1  and  O_2
REMARK    2  A    between atoms: O_2  and  C_3
REMARK    3  A    between atoms: C_11  and  O_12
REMARK                            x       y       z     vdW  Elec       q    Type
REMARK                         _______ _______ _______ _____ _____    ______ ____
ROOT
ATOM      1  C   UNL     1      -4.639   3.530 -22.625  0.00  0.00    +0.162 A 
ATOM      2  C   UNL     1      -4.844   4.003 -23.781  0.00  0.00    +0.050 A 
ATOM      3  C   UNL     1      -3.918   4.048 -24.620  0.00  0.00    +0.008 A 
ATOM      4  C   UNL     1      -2.781   3.623 -24.314  0.00  0.00    -0.038 A 
ATOM      5  C   UNL     1      -2.554   3.148 -23.171  0.00  0.00    +0.012 A 
ATOM      6  C   UNL     1      -1.418   2.725 -22.872  0.00  0.00    +0.049 C 
ATOM      7  C   UNL     1      -0.167   2.214 -22.416  0.00  0.00    +0.035 C 
ATOM      8  C   UNL     1       0.897   2.252 -23.341  0.00  0.00    +0.109 C 
ATOM      9  N   UNL     1       0.631   2.786 -24.620  0.00  0.00    -0.300 N 
ATOM     10  C   UNL     1       1.521   2.861 -25.512  0.00  0.00    +0.328 C 
ATOM     11  O   UNL     1       2.686   2.457 -25.288  0.00  0.00    -0.279 OA
ATOM     12  C   UNL     1      -0.696   3.242 -24.863  0.00  0.00    +0.088 C 
ATOM     13  C   UNL     1      -0.489   2.769 -23.709  0.00  0.00    +0.046 C 
ATOM     14  C   UNL     1       0.662   2.340 -23.405  0.00  0.00    -0.022 C 
ATOM     15  C   UNL     1       0.870   1.871 -22.264  0.00  0.00    +0.004 C 
ATOM     16  C   UNL     1      -0.061   1.822 -21.410  0.00  0.00    +0.178 C 
ATOM     17  C   UNL     1      -1.198   2.247 -21.715  0.00  0.00    +0.217 C 
ATOM     18  O   UNL     1      -2.622   2.480 -21.264  0.00  0.00    -0.481 OA
ATOM     19  C   UNL     1      -1.833   3.667 -25.167  0.00  0.00    +0.058 C 
ATOM     20  C   UNL     1      -3.487   3.100 -22.320  0.00  0.00    +0.167 A 
ENDROOT
BRANCH   1  22
ATOM     21  C   UNL     1      -6.364   2.521 -21.785  0.00  0.00    +0.277 C 
ATOM     22  O   UNL     1      -5.568   3.486 -21.789  0.00  0.00    -0.491 OA
ENDBRANCH   1  22
BRANCH  16  23
ATOM     23  O   UNL     1       0.153   1.352 -20.272  0.00  0.00    -0.384 OA
ATOM     24  H   UNL     1       0.922   0.760 -20.305  0.00  0.00    +0.210 HD
ENDBRANCH  16  23
TORSDOF 2
ENDMDL
MODEL 5
REMARK VINA RESULT:   -10.010      2.924      6.693
REMARK INTER + INTRA:         -11.036
REMARK INTER:                 -10.916
REMARK INTRA:                  -0.120
REMARK UNBOUND:                -0.148
REMARK  Name = COc1ccc2c3c1O[C@@H]1[C@@H](O)C=C[C@@H]4[C@@H](C2)N(C=O)CC[C@]314     ZINC000253503930
REMARK  3 active torsions:
REMARK  status: ('A' for Active; 'I' for Inactive)
REMARK    1  A    between atoms: C_1  and  O_2
REMARK    2  A    between atoms: O_2  and  C_3
REMARK    3  A    between atoms: C_11  and  O_12
REMARK                            x       y       z     vdW  Elec       q    Type
REMARK                         _______ _______ _______ _____ _____    ______ ____
ROOT
ATOM      1  C   UNL     1      -1.737   3.308 -23.149  0.00  0.00    +0.162 A 
ATOM      2  C   UNL     1      -1.749   4.570 -23.239  0.00  0.00    +0.050 A 
ATOM      3  C   UNL     1      -0.678   5.212 -23.284  0.00  0.00    +0.008 A 
ATOM      4  C   UNL     1       0.414   4.603 -23.240  0.00  0.00    -0.038 A 
ATOM      5  C   UNL     1       0.451   3.348 -23.151  0.00  0.00    +0.012 A 
ATOM      6  C   UNL     1       1.544   2.745 -23.107  0.00  0.00    +0.049 C 
ATOM      7  C   UNL     1       2.726   1.949 -23.050  0.00  0.00    +0.035 C 
ATOM      8  C   UNL     1       3.951   2.646 -23.099  0.00  0.00    +0.109 C 
ATOM      9  N   UNL     1       3.898   4.052 -23.199  0.00  0.00    -0.300 N 
ATOM     10  C   UNL     1       4.942   4.760 -23.248  0.00  0.00    +0.328 C 
ATOM     11  O   UNL     1       6.077   4.228 -23.210  0.00  0.00    -0.279 OA
ATOM     12  C   UNL     1       2.604   4.645 -23.242  0.00  0.00    +0.088 C 
ATOM     13  C   UNL     1       2.618   3.385 -23.152  0.00  0.00    +0.046 C 
ATOM     14  C   UNL     1       3.725   2.772 -23.108  0.00  0.00    -0.022 C 
ATOM     15  C   UNL     1       3.743   1.525 -23.019  0.00  0.00    +0.004 C 
ATOM     16  C   UNL     1       2.664   0.868 -22.973  0.00  0.00    +0.178 C 
ATOM     17  C   UNL     1       1.572   1.478 -23.017  0.00  0.00    +0.217 C 
ATOM     18  O   UNL     1       0.064   1.368 -23.010  0.00  0.00    -0.481 OA
ATOM     19  C   UNL     1       1.511   5.254 -23.286  0.00  0.00    +0.058 C 
ATOM     20  C   UNL     1      -0.629   2.695 -23.105  0.00  0.00    +0.167 A 
ENDROOT
BRANCH   1  22
ATOM     21  C   UNL     1      -3.726   3.033 -22.331  0.00  0.00    +0.277 C 
ATOM     22  O   UNL     1      -2.811   2.669 -23.104  0.00  0.00    -0.491 OA
ENDBRANCH   1  22
BRANCH  16  23
ATOM     23  O   UNL     1       2.689  -0.378 -22.884  0.00  0.00    -0.384 OA
ATOM     24  H   UNL     1       3.442  -0.649 -22.336  0.00  0.00    +0.210 HD
ENDBRANCH  16  23
TORSDOF 2
ENDMDL
MODEL 6
REMARK VINA RESULT:    -9.048      3.007      6.373
REMARK INTER + INTRA:          -9.989
REMARK INTER:                  -9.862
REMARK INTRA:                  -0.128
REMARK UNBOUND:                -0.148
REMARK  Name = COc1ccc2c3c1O[C@@H]1[C@@H](O)C=C[C@@H]4[C@@H](C2)N(C=O)CC[C@]314     ZINC000253503930
REMARK  3 active torsions:
REMARK  status: ('A' for Active; 'I' for Inactive)
REMARK    1  A    between atoms: C_1  and  O_2
REMARK    2  A    between atoms: O_2  and  C_3
REMARK    3  A    between atoms: C_11  and  O_12
REMARK                            x       y       z     vdW  Elec       q    Type
REMARK                         _______ _______ _______ _____ _____    ______ ____
ROOT
ATOM      1  C   UNL     1      -1.767   3.083 -22.331  0.00  0.00    +0.162 A 
ATOM      2  C   UNL     1      -1.757   1.860 -22.006  0.00  0.00    +0.050 A 
ATOM      3  C   UNL     1      -0.677   1.237 -21.916  0.00  0.00    +0.008 A 
ATOM      4  C   UNL     1       0.403   1.827 -22.149  0.00  0.00    -0.038 A 
ATOM      5  C   UNL     1       0.417   3.043 -22.474  0.00  0.00    +0.012 A 
ATOM      6  C   UNL     1       1.497   3.627 -22.706  0.00  0.00    +0.049 C 
ATOM      7  C   UNL     1       2.662   4.397 -22.993  0.00  0.00    +0.035 C 
ATOM      8  C   UNL     1       3.896   3.722 -22.899  0.00  0.00    +0.109 C 
ATOM      9  N   UNL     1       3.868   2.359 -22.534  0.00  0.00    -0.300 N 
ATOM     10  C   UNL     1       4.922   1.673 -22.426  0.00  0.00    +0.328 C 
ATOM     11  O   UNL     1       6.044   2.188 -22.642  0.00  0.00    -0.279 OA
ATOM     12  C   UNL     1       2.587   1.785 -22.291  0.00  0.00    +0.088 C 
ATOM     13  C   UNL     1       2.580   3.007 -22.616  0.00  0.00    +0.046 C 
ATOM     14  C   UNL     1       3.673   3.599 -22.851  0.00  0.00    -0.022 C 
ATOM     15  C   UNL     1       3.669   4.808 -23.173  0.00  0.00    +0.004 C 
ATOM     16  C   UNL     1       2.581   5.445 -23.266  0.00  0.00    +0.178 C 
ATOM     17  C   UNL     1       1.502   4.854 -23.033  0.00  0.00    +0.217 C 
ATOM     18  O   UNL     1      -0.004   4.961 -22.956  0.00  0.00    -0.481 OA
ATOM     19  C   UNL     1       1.508   1.196 -22.059  0.00  0.00    +0.058 C 
ATOM     20  C   UNL     1      -0.672   3.676 -22.566  0.00  0.00    +0.167 A 
ENDROOT
BRANCH   1  22
ATOM     21  C   UNL     1      -3.714   3.338 -23.249  0.00  0.00    +0.277 C 
ATOM     22  O   UNL     1      -2.849   3.701 -22.420  0.00  0.00    -0.491 OA
ENDBRANCH   1  22
BRANCH  16  23
ATOM     23  O   UNL     1       2.583   6.652 -23.588  0.00  0.00    -0.384 OA
ATOM     24  H   UNL     1       1.907   7.124 -23.077  0.00  0.00    +0.210 HD
ENDBRANCH  16  23
TORSDOF 2
ENDMDL
MODEL 7
REMARK VINA RESULT:    -8.488      4.935      7.362
REMARK INTER + INTRA:          -9.380
REMARK INTER:                  -9.272
REMARK INTRA:                  -0.108
REMARK UNBOUND:                -0.148
REMARK  Name = COc1ccc2c3c1O[C@@H]1[C@@H](O)C=C[C@@H]4[C@@H](C2)N(C=O)CC[C@]314     ZINC000253503930
REMARK  3 active torsions:
REMARK  status: ('A' for Active; 'I' for Inactive)
REMARK    1  A    between atoms: C_1  and  O_2
REMARK    2  A    between atoms: O_2  and  C_3
REMARK    3  A    between atoms: C_11  and  O_12
REMARK                            x       y       z     vdW  Elec       q    Type
REMARK                         _______ _______ _______ _____ _____    ______ ____
ROOT
ATOM      1  C   UNL     1       6.013   6.997 -21.814  0.00  0.00    +0.162 A 
ATOM      2  C   UNL     1       7.061   6.290 -21.863  0.00  0.00    +0.050 A 
ATOM      3  C   UNL     1       7.018   5.123 -22.309  0.00  0.00    +0.008 A 
ATOM      4  C   UNL     1       5.930   4.651 -22.711  0.00  0.00    -0.038 A 
ATOM      5  C   UNL     1       4.875   5.336 -22.672  0.00  0.00    +0.012 A 
ATOM      6  C   UNL     1       3.793   4.859 -23.074  0.00  0.00    +0.049 C 
ATOM      7  C   UNL     1       2.503   4.426 -23.503  0.00  0.00    +0.035 C 
ATOM      8  C   UNL     1       2.423   3.114 -24.012  0.00  0.00    +0.109 C 
ATOM      9  N   UNL     1       3.612   2.355 -24.051  0.00  0.00    -0.300 N 
ATOM     10  C   UNL     1       3.638   1.172 -24.490  0.00  0.00    +0.328 C 
ATOM     11  O   UNL     1       2.592   0.624 -24.911  0.00  0.00    -0.279 OA
ATOM     12  C   UNL     1       4.794   2.988 -23.570  0.00  0.00    +0.088 C 
ATOM     13  C   UNL     1       3.746   3.692 -23.522  0.00  0.00    +0.046 C 
ATOM     14  C   UNL     1       2.649   3.211 -23.929  0.00  0.00    -0.022 C 
ATOM     15  C   UNL     1       1.610   3.905 -23.883  0.00  0.00    +0.004 C 
ATOM     16  C   UNL     1       1.644   5.086 -23.433  0.00  0.00    +0.178 C 
ATOM     17  C   UNL     1       2.732   5.558 -23.031  0.00  0.00    +0.217 C 
ATOM     18  O   UNL     1       3.448   6.749 -22.437  0.00  0.00    -0.481 OA
ATOM     19  C   UNL     1       5.881   3.461 -23.168  0.00  0.00    +0.058 C 
ATOM     20  C   UNL     1       4.914   6.515 -22.222  0.00  0.00    +0.167 A 
ENDROOT
BRANCH   1  22
ATOM     21  C   UNL     1       7.152   8.649 -20.994  0.00  0.00    +0.277 C 
ATOM     22  O   UNL     1       6.060   8.163 -21.367  0.00  0.00    -0.491 OA
ENDBRANCH   1  22
BRANCH  16  23
ATOM     23  O   UNL     1       0.603   5.775 -23.390  0.00  0.00    -0.384 OA
ATOM     24  H   UNL     1      -0.039   5.354 -22.795  0.00  0.00    +0.210 HD
ENDBRANCH  16  23
TORSDOF 2
ENDMDL
MODEL 8
REMARK VINA RESULT:    -8.374      2.468      4.239
REMARK INTER + INTRA:          -9.256
REMARK INTER:                  -9.146
REMARK INTRA:                  -0.110
REMARK UNBOUND:                -0.148
REMARK  Name = COc1ccc2c3c1O[C@@H]1[C@@H](O)C=C[C@@H]4[C@@H](C2)N(C=O)CC[C@]314     ZINC000253503930
REMARK  3 active torsions:
REMARK  status: ('A' for Active; 'I' for Inactive)
REMARK    1  A    between atoms: C_1  and  O_2
REMARK    2  A    between atoms: O_2  and  C_3
REMARK    3  A    between atoms: C_11  and  O_12
REMARK                            x       y       z     vdW  Elec       q    Type
REMARK                         _______ _______ _______ _____ _____    ______ ____
ROOT
ATOM      1  C   UNL     1       3.933   2.923 -22.439  0.00  0.00    +0.162 A 
ATOM      2  C   UNL     1       4.151   3.903 -23.211  0.00  0.00    +0.050 A 
ATOM      3  C   UNL     1       3.201   4.491 -23.771  0.00  0.00    +0.008 A 
ATOM      4  C   UNL     1       2.026   4.109 -23.567  0.00  0.00    -0.038 A 
ATOM      5  C   UNL     1       1.786   3.138 -22.804  0.00  0.00    +0.012 A 
ATOM      6  C   UNL     1       0.612   2.762 -22.605  0.00  0.00    +0.049 C 
ATOM      7  C   UNL     1      -0.681   2.243 -22.301  0.00  0.00    +0.035 C 
ATOM      8  C   UNL     1      -1.773   2.887 -22.919  0.00  0.00    +0.109 C 
ATOM      9  N   UNL     1      -1.492   3.974 -23.772  0.00  0.00    -0.300 N 
ATOM     10  C   UNL     1      -2.404   4.611 -24.368  0.00  0.00    +0.328 C 
ATOM     11  O   UNL     1      -3.608   4.293 -24.219  0.00  0.00    -0.279 OA
ATOM     12  C   UNL     1      -0.121   4.326 -23.934  0.00  0.00    +0.088 C 
ATOM     13  C   UNL     1      -0.341   3.348 -23.164  0.00  0.00    +0.046 C 
ATOM     14  C   UNL     1      -1.530   2.966 -22.961  0.00  0.00    -0.022 C 
ATOM     15  C   UNL     1      -1.751   1.999 -22.200  0.00  0.00    +0.004 C 
ATOM     16  C   UNL     1      -0.797   1.398 -21.629  0.00  0.00    +0.178 C 
ATOM     17  C   UNL     1       0.378   1.780 -21.833  0.00  0.00    +0.217 C 
ATOM     18  O   UNL     1       1.844   1.569 -21.531  0.00  0.00    -0.481 OA
ATOM     19  C   UNL     1       1.054   4.707 -24.137  0.00  0.00    +0.058 C 
ATOM     20  C   UNL     1       2.743   2.541 -22.236  0.00  0.00    +0.167 A 
ENDROOT
BRANCH   1  22
ATOM     21  C   UNL     1       6.006   2.891 -21.808  0.00  0.00    +0.277 C 
ATOM     22  O   UNL     1       4.886   2.338 -21.881  0.00  0.00    -0.491 OA
ENDBRANCH   1  22
BRANCH  16  23
ATOM     23  O   UNL     1      -1.024   0.432 -20.869  0.00  0.00    -0.384 OA
ATOM     24  H   UNL     1      -1.351   0.762 -20.017  0.00  0.00    +0.210 HD
ENDBRANCH  16  23
TORSDOF 2
ENDMDL
