MODEL 1
REMARK VINA RESULT:   -10.058      0.000      0.000
REMARK INTER + INTRA:         -12.289
REMARK INTER:                 -11.467
REMARK INTRA:                  -0.822
REMARK UNBOUND:                -0.466
REMARK  Name = ZINC000006068779
REMARK  5 active torsions:
REMARK  status: ('A' for Active; 'I' for Inactive)
REMARK    1  A    between atoms: C_1  and  C_2
REMARK    2  A    between atoms: C_3  and  O_4
REMARK    3  A    between atoms: C_5  and  C_6
REMARK    4  A    between atoms: C_10  and  O_11
REMARK    5  A    between atoms: C_15  and  C_16
REMARK                            x       y       z     vdW  Elec       q    Type
REMARK                         _______ _______ _______ _____ _____    ______ ____
ROOT
ATOM      1  C   UNL     1       4.266   1.132 -22.833  0.00  0.00    +0.051 C 
ATOM      2  C   UNL     1       3.038   1.518 -23.015  0.00  0.00    +0.034 A 
ATOM      3  C   UNL     1       2.676   2.016 -24.161  0.00  0.00    +0.137 A 
ATOM      4  C   UNL     1       1.449   2.401 -24.343  0.00  0.00    +0.098 A 
ATOM      5  C   UNL     1       0.582   2.290 -23.382  0.00  0.00    +0.149 A 
ATOM      6  C   UNL     1       0.944   1.792 -22.235  0.00  0.00    +0.102 A 
ATOM      7  C   UNL     1       0.077   1.680 -21.274  0.00  0.00    +0.174 C 
ATOM      8  C   UNL     1      -1.151   2.066 -21.456  0.00  0.00    +0.129 C 
ATOM      9  C   UNL     1      -1.513   2.563 -22.602  0.00  0.00    +0.211 C 
ATOM     10  O   UNL     1       0.439   1.182 -20.128  0.00  0.00    -0.292 OA
ATOM     11  O   UNL     1      -0.646   2.675 -23.564  0.00  0.00    -0.482 OA
ATOM     12  C   UNL     1       2.171   1.406 -22.053  0.00  0.00    +0.137 A 
ENDROOT
BRANCH   9  13
ATOM     13  C   UNL     1      -2.740   2.949 -22.785  0.00  0.00    -0.007 A 
ATOM     14  C   UNL     1      -3.575   2.952 -21.789  0.00  0.00    +0.007 A 
ATOM     15  C   UNL     1      -4.804   3.338 -21.971  0.00  0.00    +0.000 A 
ATOM     16  C   UNL     1      -5.196   3.720 -23.150  0.00  0.00    +0.000 A 
ATOM     17  C   UNL     1      -4.361   3.717 -24.146  0.00  0.00    +0.000 A 
ATOM     18  C   UNL     1      -3.133   3.331 -23.963  0.00  0.00    +0.007 A 
ENDBRANCH   9  13
BRANCH   4  19
ATOM     19  C   UNL     1       1.087   2.899 -25.489  0.00  0.00    +0.266 C 
ATOM     20  O   UNL     1       1.416   4.117 -25.802  0.00  0.00    -0.295 OA
ENDBRANCH   4  19
BRANCH   3  21
ATOM     21  O   UNL     1       3.543   2.127 -25.123  0.00  0.00    -0.506 OA
ATOM     22  H   UNL     1       3.334   2.628 -25.887  0.00  0.00    +0.292 HD
ENDBRANCH   3  21
BRANCH  12  23
ATOM     23  O   UNL     1       2.533   0.909 -20.907  0.00  0.00    -0.506 OA
ATOM     24  H   UNL     1       1.904   0.473 -20.366  0.00  0.00    +0.292 HD
ENDBRANCH  12  23
TORSDOF 4
ENDMDL
MODEL 2
REMARK VINA RESULT:    -9.671      1.010      3.194
REMARK INTER + INTRA:         -11.833
REMARK INTER:                 -11.064
REMARK INTRA:                  -0.769
REMARK UNBOUND:                -0.466
REMARK  Name = ZINC000006068779
REMARK  5 active torsions:
REMARK  status: ('A' for Active; 'I' for Inactive)
REMARK    1  A    between atoms: C_1  and  C_2
REMARK    2  A    between atoms: C_3  and  O_4
REMARK    3  A    between atoms: C_5  and  C_6
REMARK    4  A    between atoms: C_10  and  O_11
REMARK    5  A    between atoms: C_15  and  C_16
REMARK                            x       y       z     vdW  Elec       q    Type
REMARK                         _______ _______ _______ _____ _____    ______ ____
ROOT
ATOM      1  C   UNL     1       3.745   2.051 -24.014  0.00  0.00    +0.051 C 
ATOM      2  C   UNL     1       2.504   2.137 -23.633  0.00  0.00    +0.034 A 
ATOM      3  C   UNL     1       2.138   1.629 -22.494  0.00  0.00    +0.137 A 
ATOM      4  C   UNL     1       0.898   1.715 -22.113  0.00  0.00    +0.098 A 
ATOM      5  C   UNL     1       0.025   2.308 -22.870  0.00  0.00    +0.149 A 
ATOM      6  C   UNL     1       0.392   2.816 -24.011  0.00  0.00    +0.102 A 
ATOM      7  C   UNL     1      -0.482   3.409 -24.768  0.00  0.00    +0.174 C 
ATOM      8  C   UNL     1      -1.722   3.495 -24.387  0.00  0.00    +0.129 C 
ATOM      9  C   UNL     1      -2.089   2.987 -23.248  0.00  0.00    +0.211 C 
ATOM     10  O   UNL     1      -0.115   3.917 -25.908  0.00  0.00    -0.292 OA
ATOM     11  O   UNL     1      -1.216   2.394 -22.489  0.00  0.00    -0.482 OA
ATOM     12  C   UNL     1       1.631   2.730 -24.392  0.00  0.00    +0.137 A 
ENDROOT
BRANCH   9  13
ATOM     13  C   UNL     1      -3.328   3.073 -22.867  0.00  0.00    -0.007 A 
ATOM     14  C   UNL     1      -4.214   3.607 -23.653  0.00  0.00    +0.007 A 
ATOM     15  C   UNL     1      -5.455   3.693 -23.272  0.00  0.00    +0.000 A 
ATOM     16  C   UNL     1      -5.808   3.245 -22.105  0.00  0.00    +0.000 A 
ATOM     17  C   UNL     1      -4.922   2.710 -21.318  0.00  0.00    +0.000 A 
ATOM     18  C   UNL     1      -3.682   2.624 -21.699  0.00  0.00    +0.007 A 
ENDBRANCH   9  13
BRANCH   4  19
ATOM     19  C   UNL     1       0.532   1.207 -20.974  0.00  0.00    +0.266 C 
ATOM     20  O   UNL     1       1.137   1.562 -19.879  0.00  0.00    -0.295 OA
ENDBRANCH   4  19
BRANCH   3  21
ATOM     21  O   UNL     1       3.012   1.036 -21.736  0.00  0.00    -0.506 OA
ATOM     22  H   UNL     1       3.546   0.349 -22.084  0.00  0.00    +0.292 HD
ENDBRANCH   3  21
BRANCH  12  23
ATOM     23  O   UNL     1       1.998   3.238 -25.531  0.00  0.00    -0.506 OA
ATOM     24  H   UNL     1       1.363   3.383 -26.205  0.00  0.00    +0.292 HD
ENDBRANCH  12  23
TORSDOF 4
ENDMDL
MODEL 3
REMARK VINA RESULT:    -9.536      2.057      6.554
REMARK INTER + INTRA:         -11.674
REMARK INTER:                 -10.857
REMARK INTRA:                  -0.817
REMARK UNBOUND:                -0.466
REMARK  Name = ZINC000006068779
REMARK  5 active torsions:
REMARK  status: ('A' for Active; 'I' for Inactive)
REMARK    1  A    between atoms: C_1  and  C_2
REMARK    2  A    between atoms: C_3  and  O_4
REMARK    3  A    between atoms: C_5  and  C_6
REMARK    4  A    between atoms: C_10  and  O_11
REMARK    5  A    between atoms: C_15  and  C_16
REMARK                            x       y       z     vdW  Elec       q    Type
REMARK                         _______ _______ _______ _____ _____    ______ ____
ROOT
ATOM      1  C   UNL     1      -5.563   4.034 -24.291  0.00  0.00    +0.051 C 
ATOM      2  C   UNL     1      -4.403   3.737 -23.784  0.00  0.00    +0.034 A 
ATOM      3  C   UNL     1      -4.293   3.497 -22.511  0.00  0.00    +0.137 A 
ATOM      4  C   UNL     1      -3.133   3.201 -22.003  0.00  0.00    +0.098 A 
ATOM      5  C   UNL     1      -2.084   3.145 -22.768  0.00  0.00    +0.149 A 
ATOM      6  C   UNL     1      -2.195   3.385 -24.042  0.00  0.00    +0.102 A 
ATOM      7  C   UNL     1      -1.146   3.330 -24.806  0.00  0.00    +0.174 C 
ATOM      8  C   UNL     1       0.015   3.033 -24.299  0.00  0.00    +0.129 C 
ATOM      9  C   UNL     1       0.125   2.793 -23.026  0.00  0.00    +0.211 C 
ATOM     10  O   UNL     1      -1.256   3.570 -26.080  0.00  0.00    -0.292 OA
ATOM     11  O   UNL     1      -0.924   2.849 -22.261  0.00  0.00    -0.482 OA
ATOM     12  C   UNL     1      -3.354   3.682 -24.549  0.00  0.00    +0.137 A 
ENDROOT
BRANCH   9  13
ATOM     13  C   UNL     1       1.284   2.497 -22.519  0.00  0.00    -0.007 A 
ATOM     14  C   UNL     1       2.352   3.105 -22.940  0.00  0.00    +0.007 A 
ATOM     15  C   UNL     1       3.513   2.809 -22.433  0.00  0.00    +0.000 A 
ATOM     16  C   UNL     1       3.604   1.905 -21.504  0.00  0.00    +0.000 A 
ATOM     17  C   UNL     1       2.536   1.296 -21.082  0.00  0.00    +0.000 A 
ATOM     18  C   UNL     1       1.375   1.592 -21.590  0.00  0.00    +0.007 A 
ENDBRANCH   9  13
BRANCH   4  19
ATOM     19  C   UNL     1      -3.023   2.960 -20.731  0.00  0.00    +0.266 C 
ATOM     20  O   UNL     1      -3.111   3.935 -19.874  0.00  0.00    -0.295 OA
ENDBRANCH   4  19
BRANCH   3  21
ATOM     21  O   UNL     1      -5.343   3.553 -21.745  0.00  0.00    -0.506 OA
ATOM     22  H   UNL     1      -5.245   3.711 -20.827  0.00  0.00    +0.292 HD
ENDBRANCH   3  21
BRANCH  12  23
ATOM     23  O   UNL     1      -3.464   3.922 -25.822  0.00  0.00    -0.506 OA
ATOM     24  H   UNL     1      -4.236   3.659 -26.283  0.00  0.00    +0.292 HD
ENDBRANCH  12  23
TORSDOF 4
ENDMDL
MODEL 4
REMARK VINA RESULT:    -9.279      2.123      3.481
REMARK INTER + INTRA:         -11.372
REMARK INTER:                 -10.566
REMARK INTRA:                  -0.806
REMARK UNBOUND:                -0.466
REMARK  Name = ZINC000006068779
REMARK  5 active torsions:
REMARK  status: ('A' for Active; 'I' for Inactive)
REMARK    1  A    between atoms: C_1  and  C_2
REMARK    2  A    between atoms: C_3  and  O_4
REMARK    3  A    between atoms: C_5  and  C_6
REMARK    4  A    between atoms: C_10  and  O_11
REMARK    5  A    between atoms: C_15  and  C_16
REMARK                            x       y       z     vdW  Elec       q    Type
REMARK                         _______ _______ _______ _____ _____    ______ ____
ROOT
ATOM      1  C   UNL     1       6.334   3.330 -23.011  0.00  0.00    +0.051 C 
ATOM      2  C   UNL     1       5.044   3.164 -23.030  0.00  0.00    +0.034 A 
ATOM      3  C   UNL     1       4.543   1.966 -22.977  0.00  0.00    +0.137 A 
ATOM      4  C   UNL     1       3.254   1.799 -22.995  0.00  0.00    +0.098 A 
ATOM      5  C   UNL     1       2.466   2.830 -23.067  0.00  0.00    +0.149 A 
ATOM      6  C   UNL     1       2.968   4.029 -23.120  0.00  0.00    +0.102 A 
ATOM      7  C   UNL     1       2.180   5.059 -23.192  0.00  0.00    +0.174 C 
ATOM      8  C   UNL     1       0.890   4.893 -23.210  0.00  0.00    +0.129 C 
ATOM      9  C   UNL     1       0.389   3.695 -23.157  0.00  0.00    +0.211 C 
ATOM     10  O   UNL     1       2.682   6.259 -23.245  0.00  0.00    -0.292 OA
ATOM     11  O   UNL     1       1.177   2.663 -23.085  0.00  0.00    -0.482 OA
ATOM     12  C   UNL     1       4.257   4.196 -23.102  0.00  0.00    +0.137 A 
ENDROOT
BRANCH   9  13
ATOM     13  C   UNL     1      -0.900   3.528 -23.175  0.00  0.00    -0.007 A 
ATOM     14  C   UNL     1      -1.603   4.009 -24.157  0.00  0.00    +0.007 A 
ATOM     15  C   UNL     1      -2.893   3.843 -24.176  0.00  0.00    +0.000 A 
ATOM     16  C   UNL     1      -3.478   3.195 -23.213  0.00  0.00    +0.000 A 
ATOM     17  C   UNL     1      -2.775   2.713 -22.231  0.00  0.00    +0.000 A 
ATOM     18  C   UNL     1      -1.485   2.880 -22.212  0.00  0.00    +0.007 A 
ENDBRANCH   9  13
BRANCH   4  19
ATOM     19  C   UNL     1       2.753   0.601 -22.942  0.00  0.00    +0.266 C 
ATOM     20  O   UNL     1       2.848  -0.097 -21.849  0.00  0.00    -0.295 OA
ENDBRANCH   4  19
BRANCH   3  21
ATOM     21  O   UNL     1       5.331   0.934 -22.905  0.00  0.00    -0.506 OA
ATOM     22  H   UNL     1       6.251   1.035 -23.053  0.00  0.00    +0.292 HD
ENDBRANCH   3  21
BRANCH  12  23
ATOM     23  O   UNL     1       4.758   5.394 -23.155  0.00  0.00    -0.506 OA
ATOM     24  H   UNL     1       4.789   5.853 -23.971  0.00  0.00    +0.292 HD
ENDBRANCH  12  23
TORSDOF 4
ENDMDL
MODEL 5
REMARK VINA RESULT:    -8.785      2.118      5.952
REMARK INTER + INTRA:         -10.792
REMARK INTER:                 -10.413
REMARK INTRA:                  -0.380
REMARK UNBOUND:                -0.466
REMARK  Name = ZINC000006068779
REMARK  5 active torsions:
REMARK  status: ('A' for Active; 'I' for Inactive)
REMARK    1  A    between atoms: C_1  and  C_2
REMARK    2  A    between atoms: C_3  and  O_4
REMARK    3  A    between atoms: C_5  and  C_6
REMARK    4  A    between atoms: C_10  and  O_11
REMARK    5  A    between atoms: C_15  and  C_16
REMARK                            x       y       z     vdW  Elec       q    Type
REMARK                         _______ _______ _______ _____ _____    ______ ____
ROOT
ATOM      1  C   UNL     1      -5.746   3.753 -23.466  0.00  0.00    +0.051 C 
ATOM      2  C   UNL     1      -4.472   3.625 -23.694  0.00  0.00    +0.034 A 
ATOM      3  C   UNL     1      -4.013   3.751 -24.904  0.00  0.00    +0.137 A 
ATOM      4  C   UNL     1      -2.740   3.624 -25.132  0.00  0.00    +0.098 A 
ATOM      5  C   UNL     1      -1.926   3.371 -24.152  0.00  0.00    +0.149 A 
ATOM      6  C   UNL     1      -2.385   3.245 -22.942  0.00  0.00    +0.102 A 
ATOM      7  C   UNL     1      -1.571   2.992 -21.961  0.00  0.00    +0.174 C 
ATOM      8  C   UNL     1      -0.297   2.865 -22.190  0.00  0.00    +0.129 C 
ATOM      9  C   UNL     1       0.162   2.991 -23.399  0.00  0.00    +0.211 C 
ATOM     10  O   UNL     1      -2.030   2.867 -20.751  0.00  0.00    -0.292 OA
ATOM     11  O   UNL     1      -0.652   3.243 -24.381  0.00  0.00    -0.482 OA
ATOM     12  C   UNL     1      -3.658   3.373 -22.713  0.00  0.00    +0.137 A 
ENDROOT
BRANCH   9  13
ATOM     13  C   UNL     1       1.435   2.863 -23.628  0.00  0.00    -0.007 A 
ATOM     14  C   UNL     1       2.250   3.828 -23.321  0.00  0.00    +0.007 A 
ATOM     15  C   UNL     1       3.524   3.701 -23.549  0.00  0.00    +0.000 A 
ATOM     16  C   UNL     1       3.982   2.609 -24.085  0.00  0.00    +0.000 A 
ATOM     17  C   UNL     1       3.168   1.644 -24.392  0.00  0.00    +0.000 A 
ATOM     18  C   UNL     1       1.894   1.771 -24.164  0.00  0.00    +0.007 A 
ENDBRANCH   9  13
BRANCH   4  19
ATOM     19  C   UNL     1      -2.281   3.749 -26.342  0.00  0.00    +0.266 C 
ATOM     20  O   UNL     1      -3.000   3.363 -27.354  0.00  0.00    -0.295 OA
ENDBRANCH   4  19
BRANCH   3  21
ATOM     21  O   UNL     1      -4.828   4.004 -25.885  0.00  0.00    -0.506 OA
ATOM     22  H   UNL     1      -4.670   3.636 -26.733  0.00  0.00    +0.292 HD
ENDBRANCH   3  21
BRANCH  12  23
ATOM     23  O   UNL     1      -4.117   3.247 -21.503  0.00  0.00    -0.506 OA
ATOM     24  H   UNL     1      -3.599   2.824 -20.847  0.00  0.00    +0.292 HD
ENDBRANCH  12  23
TORSDOF 4
ENDMDL
MODEL 6
REMARK VINA RESULT:    -8.174      1.725      5.546
REMARK INTER + INTRA:         -10.074
REMARK INTER:                  -9.283
REMARK INTRA:                  -0.791
REMARK UNBOUND:                -0.466
REMARK  Name = ZINC000006068779
REMARK  5 active torsions:
REMARK  status: ('A' for Active; 'I' for Inactive)
REMARK    1  A    between atoms: C_1  and  C_2
REMARK    2  A    between atoms: C_3  and  O_4
REMARK    3  A    between atoms: C_5  and  C_6
REMARK    4  A    between atoms: C_10  and  O_11
REMARK    5  A    between atoms: C_15  and  C_16
REMARK                            x       y       z     vdW  Elec       q    Type
REMARK                         _______ _______ _______ _____ _____    ______ ____
ROOT
ATOM      1  C   UNL     1      -3.672   3.403 -24.984  0.00  0.00    +0.051 C 
ATOM      2  C   UNL     1      -2.461   3.150 -24.583  0.00  0.00    +0.034 A 
ATOM      3  C   UNL     1      -1.460   3.313 -25.396  0.00  0.00    +0.137 A 
ATOM      4  C   UNL     1      -0.250   3.061 -24.996  0.00  0.00    +0.098 A 
ATOM      5  C   UNL     1      -0.039   2.646 -23.783  0.00  0.00    +0.149 A 
ATOM      6  C   UNL     1      -1.041   2.483 -22.969  0.00  0.00    +0.102 A 
ATOM      7  C   UNL     1      -0.830   2.068 -21.756  0.00  0.00    +0.174 C 
ATOM      8  C   UNL     1       0.381   1.816 -21.355  0.00  0.00    +0.129 C 
ATOM      9  C   UNL     1       1.381   1.979 -22.168  0.00  0.00    +0.211 C 
ATOM     10  O   UNL     1      -1.832   1.905 -20.942  0.00  0.00    -0.292 OA
ATOM     11  O   UNL     1       1.172   2.394 -23.382  0.00  0.00    -0.482 OA
ATOM     12  C   UNL     1      -2.251   2.735 -23.369  0.00  0.00    +0.137 A 
ENDROOT
BRANCH   9  13
ATOM     13  C   UNL     1       2.592   1.726 -21.768  0.00  0.00    -0.007 A 
ATOM     14  C   UNL     1       2.833   0.665 -21.057  0.00  0.00    +0.007 A 
ATOM     15  C   UNL     1       4.044   0.412 -20.657  0.00  0.00    +0.000 A 
ATOM     16  C   UNL     1       5.014   1.221 -20.967  0.00  0.00    +0.000 A 
ATOM     17  C   UNL     1       4.772   2.282 -21.678  0.00  0.00    +0.000 A 
ATOM     18  C   UNL     1       3.561   2.535 -22.079  0.00  0.00    +0.007 A 
ENDBRANCH   9  13
BRANCH   4  19
ATOM     19  C   UNL     1       0.751   3.224 -25.810  0.00  0.00    +0.266 C 
ATOM     20  O   UNL     1       1.247   4.410 -26.002  0.00  0.00    -0.295 OA
ENDBRANCH   4  19
BRANCH   3  21
ATOM     21  O   UNL     1      -1.671   3.729 -26.611  0.00  0.00    -0.506 OA
ATOM     22  H   UNL     1      -2.371   3.365 -27.116  0.00  0.00    +0.292 HD
ENDBRANCH   3  21
BRANCH  12  23
ATOM     23  O   UNL     1      -3.252   2.573 -22.555  0.00  0.00    -0.506 OA
ATOM     24  H   UNL     1      -4.003   3.130 -22.619  0.00  0.00    +0.292 HD
ENDBRANCH  12  23
TORSDOF 4
ENDMDL
MODEL 7
REMARK VINA RESULT:    -8.019      2.279      6.333
REMARK INTER + INTRA:          -9.892
REMARK INTER:                  -9.089
REMARK INTRA:                  -0.803
REMARK UNBOUND:                -0.466
REMARK  Name = ZINC000006068779
REMARK  5 active torsions:
REMARK  status: ('A' for Active; 'I' for Inactive)
REMARK    1  A    between atoms: C_1  and  C_2
REMARK    2  A    between atoms: C_3  and  O_4
REMARK    3  A    between atoms: C_5  and  C_6
REMARK    4  A    between atoms: C_10  and  O_11
REMARK    5  A    between atoms: C_15  and  C_16
REMARK                            x       y       z     vdW  Elec       q    Type
REMARK                         _______ _______ _______ _____ _____    ______ ____
ROOT
ATOM      1  C   UNL     1      -1.738   1.973 -22.283  0.00  0.00    +0.051 C 
ATOM      2  C   UNL     1      -0.524   2.368 -22.532  0.00  0.00    +0.034 A 
ATOM      3  C   UNL     1      -0.303   3.235 -23.474  0.00  0.00    +0.137 A 
ATOM      4  C   UNL     1       0.910   3.630 -23.723  0.00  0.00    +0.098 A 
ATOM      5  C   UNL     1       1.902   3.157 -23.031  0.00  0.00    +0.149 A 
ATOM      6  C   UNL     1       1.681   2.289 -22.088  0.00  0.00    +0.102 A 
ATOM      7  C   UNL     1       2.674   1.816 -21.395  0.00  0.00    +0.174 C 
ATOM      8  C   UNL     1       3.888   2.210 -21.644  0.00  0.00    +0.129 C 
ATOM      9  C   UNL     1       4.109   3.078 -22.587  0.00  0.00    +0.211 C 
ATOM     10  O   UNL     1       2.453   0.947 -20.452  0.00  0.00    -0.292 OA
ATOM     11  O   UNL     1       3.116   3.552 -23.280  0.00  0.00    -0.482 OA
ATOM     12  C   UNL     1       0.468   1.894 -21.839  0.00  0.00    +0.137 A 
ENDROOT
BRANCH   9  13
ATOM     13  C   UNL     1       5.322   3.472 -22.836  0.00  0.00    -0.007 A 
ATOM     14  C   UNL     1       5.569   4.735 -23.020  0.00  0.00    +0.007 A 
ATOM     15  C   UNL     1       6.783   5.130 -23.269  0.00  0.00    +0.000 A 
ATOM     16  C   UNL     1       7.748   4.262 -23.335  0.00  0.00    +0.000 A 
ATOM     17  C   UNL     1       7.501   2.999 -23.151  0.00  0.00    +0.000 A 
ATOM     18  C   UNL     1       6.287   2.604 -22.901  0.00  0.00    +0.007 A 
ENDBRANCH   9  13
BRANCH   4  19
ATOM     19  C   UNL     1       1.130   4.498 -24.666  0.00  0.00    +0.266 C 
ATOM     20  O   UNL     1       1.143   4.119 -25.909  0.00  0.00    -0.295 OA
ENDBRANCH   4  19
BRANCH   3  21
ATOM     21  O   UNL     1      -1.297   3.709 -24.167  0.00  0.00    -0.506 OA
ATOM     22  H   UNL     1      -1.455   3.393 -25.036  0.00  0.00    +0.292 HD
ENDBRANCH   3  21
BRANCH  12  23
ATOM     23  O   UNL     1       0.248   1.026 -20.896  0.00  0.00    -0.506 OA
ATOM     24  H   UNL     1      -0.610   0.666 -20.783  0.00  0.00    +0.292 HD
ENDBRANCH  12  23
TORSDOF 4
ENDMDL
