MODEL 1
REMARK VINA RESULT:    -8.091      0.000      0.000
REMARK INTER + INTRA:          -8.091
REMARK INTER:                  -8.091
REMARK INTRA:                   0.000
REMARK UNBOUND:                 0.000
REMARK  Name = ZINC000000120283
REMARK  0 active torsions:
REMARK  status: ('A' for Active; 'I' for Inactive)
REMARK                            x       y       z     vdW  Elec       q    Type
REMARK                         _______ _______ _______ _____ _____    ______ ____
ROOT
ATOM      1  O   UNL     1       2.042   1.341 -23.258  0.00  0.00    -0.245 OA
ATOM      2  C   UNL     1       0.857   1.641 -22.817  0.00  0.00    +0.337 A 
ATOM      3  C   UNL     1       0.574   1.495 -21.557  0.00  0.00    +0.092 A 
ATOM      4  C   UNL     1      -0.611   1.795 -21.117  0.00  0.00    +0.018 A 
ATOM      5  C   UNL     1      -1.515   2.243 -21.939  0.00  0.00    +0.018 A 
ATOM      6  C   UNL     1      -2.701   2.543 -21.499  0.00  0.00    +0.023 A 
ATOM      7  C   UNL     1      -3.604   2.990 -22.320  0.00  0.00    +0.021 A 
ATOM      8  C   UNL     1      -4.839   3.355 -22.140  0.00  0.00    +0.049 A 
ATOM      9  C   UNL     1      -5.319   3.727 -23.290  0.00  0.00    +0.196 A 
ATOM     10  O   UNL     1      -4.382   3.592 -24.180  0.00  0.00    -0.463 OA
ATOM     11  C   UNL     1      -3.322   3.136 -23.581  0.00  0.00    +0.138 A 
ATOM     12  C   UNL     1      -2.136   2.836 -24.020  0.00  0.00    +0.093 A 
ATOM     13  C   UNL     1      -1.233   2.389 -23.199  0.00  0.00    +0.143 A 
ATOM     14  O   UNL     1      -0.047   2.088 -23.638  0.00  0.00    -0.422 OA
ENDROOT
TORSDOF 0
ENDMDL
MODEL 2
REMARK VINA RESULT:    -7.970      0.816      4.638
REMARK INTER + INTRA:          -7.970
REMARK INTER:                  -7.970
REMARK INTRA:                   0.000
REMARK UNBOUND:                 0.000
REMARK  Name = ZINC000000120283
REMARK  0 active torsions:
REMARK  status: ('A' for Active; 'I' for Inactive)
REMARK                            x       y       z     vdW  Elec       q    Type
REMARK                         _______ _______ _______ _____ _____    ______ ____
ROOT
ATOM      1  O   UNL     1      -5.564   4.125 -23.999  0.00  0.00    -0.245 OA
ATOM      2  C   UNL     1      -4.565   3.639 -23.324  0.00  0.00    +0.337 A 
ATOM      3  C   UNL     1      -4.702   3.376 -22.058  0.00  0.00    +0.092 A 
ATOM      4  C   UNL     1      -3.702   2.891 -21.384  0.00  0.00    +0.018 A 
ATOM      5  C   UNL     1      -2.565   2.668 -21.975  0.00  0.00    +0.018 A 
ATOM      6  C   UNL     1      -1.566   2.182 -21.300  0.00  0.00    +0.023 A 
ATOM      7  C   UNL     1      -0.430   1.960 -21.891  0.00  0.00    +0.021 A 
ATOM      8  C   UNL     1       0.700   1.489 -21.454  0.00  0.00    +0.049 A 
ATOM      9  C   UNL     1       1.536   1.462 -22.450  0.00  0.00    +0.196 A 
ATOM     10  O   UNL     1       0.921   1.915 -23.503  0.00  0.00    -0.463 OA
ATOM     11  C   UNL     1      -0.294   2.223 -23.157  0.00  0.00    +0.138 A 
ATOM     12  C   UNL     1      -1.293   2.708 -23.832  0.00  0.00    +0.093 A 
ATOM     13  C   UNL     1      -2.429   2.931 -23.240  0.00  0.00    +0.143 A 
ATOM     14  O   UNL     1      -3.429   3.417 -23.915  0.00  0.00    -0.422 OA
ENDROOT
TORSDOF 0
ENDMDL
MODEL 3
REMARK VINA RESULT:    -7.807      1.542      5.094
REMARK INTER + INTRA:          -7.807
REMARK INTER:                  -7.807
REMARK INTRA:                   0.000
REMARK UNBOUND:                 0.000
REMARK  Name = ZINC000000120283
REMARK  0 active torsions:
REMARK  status: ('A' for Active; 'I' for Inactive)
REMARK                            x       y       z     vdW  Elec       q    Type
REMARK                         _______ _______ _______ _____ _____    ______ ____
ROOT
ATOM      1  O   UNL     1      -6.136   3.359 -22.095  0.00  0.00    -0.245 OA
ATOM      2  C   UNL     1      -5.074   3.470 -22.836  0.00  0.00    +0.337 A 
ATOM      3  C   UNL     1      -5.131   4.113 -23.964  0.00  0.00    +0.092 A 
ATOM      4  C   UNL     1      -4.069   4.223 -24.704  0.00  0.00    +0.018 A 
ATOM      5  C   UNL     1      -2.947   3.691 -24.316  0.00  0.00    +0.018 A 
ATOM      6  C   UNL     1      -1.885   3.801 -25.057  0.00  0.00    +0.023 A 
ATOM      7  C   UNL     1      -0.765   3.269 -24.668  0.00  0.00    +0.021 A 
ATOM      8  C   UNL     1       0.417   3.236 -25.211  0.00  0.00    +0.049 A 
ATOM      9  C   UNL     1       1.204   2.572 -24.417  0.00  0.00    +0.196 A 
ATOM     10  O   UNL     1       0.510   2.195 -23.384  0.00  0.00    -0.463 OA
ATOM     11  C   UNL     1      -0.707   2.626 -23.540  0.00  0.00    +0.138 A 
ATOM     12  C   UNL     1      -1.769   2.515 -22.800  0.00  0.00    +0.093 A 
ATOM     13  C   UNL     1      -2.890   3.048 -23.188  0.00  0.00    +0.143 A 
ATOM     14  O   UNL     1      -3.953   2.937 -22.448  0.00  0.00    -0.422 OA
ENDROOT
TORSDOF 0
ENDMDL
MODEL 4
REMARK VINA RESULT:    -7.609      1.412      2.324
REMARK INTER + INTRA:          -7.609
REMARK INTER:                  -7.609
REMARK INTRA:                   0.000
REMARK UNBOUND:                 0.000
REMARK  Name = ZINC000000120283
REMARK  0 active torsions:
REMARK  status: ('A' for Active; 'I' for Inactive)
REMARK                            x       y       z     vdW  Elec       q    Type
REMARK                         _______ _______ _______ _____ _____    ______ ____
ROOT
ATOM      1  O   UNL     1       1.972   2.518 -23.806  0.00  0.00    -0.245 OA
ATOM      2  C   UNL     1       0.719   2.834 -23.948  0.00  0.00    +0.337 A 
ATOM      3  C   UNL     1       0.316   3.422 -25.036  0.00  0.00    +0.092 A 
ATOM      4  C   UNL     1      -0.937   3.737 -25.178  0.00  0.00    +0.018 A 
ATOM      5  C   UNL     1      -1.787   3.466 -24.232  0.00  0.00    +0.018 A 
ATOM      6  C   UNL     1      -3.040   3.781 -24.373  0.00  0.00    +0.023 A 
ATOM      7  C   UNL     1      -3.889   3.509 -23.428  0.00  0.00    +0.021 A 
ATOM      8  C   UNL     1      -5.169   3.715 -23.323  0.00  0.00    +0.049 A 
ATOM      9  C   UNL     1      -5.556   3.255 -22.170  0.00  0.00    +0.196 A 
ATOM     10  O   UNL     1      -4.516   2.765 -21.563  0.00  0.00    -0.463 OA
ATOM     11  C   UNL     1      -3.486   2.922 -22.341  0.00  0.00    +0.138 A 
ATOM     12  C   UNL     1      -2.233   2.606 -22.199  0.00  0.00    +0.093 A 
ATOM     13  C   UNL     1      -1.384   2.878 -23.144  0.00  0.00    +0.143 A 
ATOM     14  O   UNL     1      -0.130   2.562 -23.003  0.00  0.00    -0.422 OA
ENDROOT
TORSDOF 0
ENDMDL
MODEL 5
REMARK VINA RESULT:    -7.512      2.199      4.460
REMARK INTER + INTRA:          -7.512
REMARK INTER:                  -7.512
REMARK INTRA:                   0.000
REMARK UNBOUND:                 0.000
REMARK  Name = ZINC000000120283
REMARK  0 active torsions:
REMARK  status: ('A' for Active; 'I' for Inactive)
REMARK                            x       y       z     vdW  Elec       q    Type
REMARK                         _______ _______ _______ _____ _____    ______ ____
ROOT
ATOM      1  O   UNL     1      -5.591   2.549 -21.390  0.00  0.00    -0.245 OA
ATOM      2  C   UNL     1      -4.412   3.029 -21.651  0.00  0.00    +0.337 A 
ATOM      3  C   UNL     1      -3.773   3.713 -20.749  0.00  0.00    +0.092 A 
ATOM      4  C   UNL     1      -2.594   4.193 -21.011  0.00  0.00    +0.018 A 
ATOM      5  C   UNL     1      -2.053   3.990 -22.176  0.00  0.00    +0.018 A 
ATOM      6  C   UNL     1      -0.874   4.470 -22.438  0.00  0.00    +0.023 A 
ATOM      7  C   UNL     1      -0.334   4.267 -23.603  0.00  0.00    +0.021 A 
ATOM      8  C   UNL     1       0.808   4.630 -24.107  0.00  0.00    +0.049 A 
ATOM      9  C   UNL     1       0.874   4.171 -25.322  0.00  0.00    +0.196 A 
ATOM     10  O   UNL     1      -0.226   3.524 -25.568  0.00  0.00    -0.463 OA
ATOM     11  C   UNL     1      -0.973   3.583 -24.505  0.00  0.00    +0.138 A 
ATOM     12  C   UNL     1      -2.152   3.103 -24.243  0.00  0.00    +0.093 A 
ATOM     13  C   UNL     1      -2.692   3.306 -23.079  0.00  0.00    +0.143 A 
ATOM     14  O   UNL     1      -3.872   2.826 -22.816  0.00  0.00    -0.422 OA
ENDROOT
TORSDOF 0
ENDMDL
MODEL 6
REMARK VINA RESULT:    -7.496      1.387      4.990
REMARK INTER + INTRA:          -7.496
REMARK INTER:                  -7.496
REMARK INTRA:                   0.000
REMARK UNBOUND:                 0.000
REMARK  Name = ZINC000000120283
REMARK  0 active torsions:
REMARK  status: ('A' for Active; 'I' for Inactive)
REMARK                            x       y       z     vdW  Elec       q    Type
REMARK                         _______ _______ _______ _____ _____    ______ ____
ROOT
ATOM      1  O   UNL     1      -5.815   3.734 -23.109  0.00  0.00    -0.245 OA
ATOM      2  C   UNL     1      -4.541   3.549 -23.289  0.00  0.00    +0.337 A 
ATOM      3  C   UNL     1      -3.964   3.996 -24.366  0.00  0.00    +0.092 A 
ATOM      4  C   UNL     1      -2.690   3.811 -24.545  0.00  0.00    +0.018 A 
ATOM      5  C   UNL     1      -1.992   3.179 -23.648  0.00  0.00    +0.018 A 
ATOM      6  C   UNL     1      -0.718   2.994 -23.827  0.00  0.00    +0.023 A 
ATOM      7  C   UNL     1      -0.021   2.362 -22.931  0.00  0.00    +0.021 A 
ATOM      8  C   UNL     1       1.240   2.051 -22.869  0.00  0.00    +0.049 A 
ATOM      9  C   UNL     1       1.442   1.413 -21.755  0.00  0.00    +0.196 A 
ATOM     10  O   UNL     1       0.307   1.329 -21.128  0.00  0.00    -0.463 OA
ATOM     11  C   UNL     1      -0.598   1.915 -21.854  0.00  0.00    +0.138 A 
ATOM     12  C   UNL     1      -1.872   2.100 -21.675  0.00  0.00    +0.093 A 
ATOM     13  C   UNL     1      -2.569   2.732 -22.572  0.00  0.00    +0.143 A 
ATOM     14  O   UNL     1      -3.844   2.918 -22.393  0.00  0.00    -0.422 OA
ENDROOT
TORSDOF 0
ENDMDL
MODEL 7
REMARK VINA RESULT:    -7.039      1.205      1.920
REMARK INTER + INTRA:          -7.039
REMARK INTER:                  -7.039
REMARK INTRA:                   0.000
REMARK UNBOUND:                 0.000
REMARK  Name = ZINC000000120283
REMARK  0 active torsions:
REMARK  status: ('A' for Active; 'I' for Inactive)
REMARK                            x       y       z     vdW  Elec       q    Type
REMARK                         _______ _______ _______ _____ _____    ______ ____
ROOT
ATOM      1  O   UNL     1       3.687   2.065 -24.248  0.00  0.00    -0.245 OA
ATOM      2  C   UNL     1       2.599   2.020 -23.537  0.00  0.00    +0.337 A 
ATOM      3  C   UNL     1       2.631   1.545 -22.327  0.00  0.00    +0.092 A 
ATOM      4  C   UNL     1       1.544   1.501 -21.617  0.00  0.00    +0.018 A 
ATOM      5  C   UNL     1       0.423   1.932 -22.116  0.00  0.00    +0.018 A 
ATOM      6  C   UNL     1      -0.664   1.888 -21.406  0.00  0.00    +0.023 A 
ATOM      7  C   UNL     1      -1.784   2.320 -21.905  0.00  0.00    +0.021 A 
ATOM      8  C   UNL     1      -2.987   2.386 -21.415  0.00  0.00    +0.049 A 
ATOM      9  C   UNL     1      -3.762   2.902 -22.323  0.00  0.00    +0.196 A 
ATOM     10  O   UNL     1      -3.039   3.155 -23.373  0.00  0.00    -0.463 OA
ATOM     11  C   UNL     1      -1.816   2.795 -23.115  0.00  0.00    +0.138 A 
ATOM     12  C   UNL     1      -0.729   2.840 -23.825  0.00  0.00    +0.093 A 
ATOM     13  C   UNL     1       0.391   2.408 -23.326  0.00  0.00    +0.143 A 
ATOM     14  O   UNL     1       1.479   2.452 -24.036  0.00  0.00    -0.422 OA
ENDROOT
TORSDOF 0
ENDMDL
MODEL 8
REMARK VINA RESULT:    -6.989      1.709      5.298
REMARK INTER + INTRA:          -6.989
REMARK INTER:                  -6.989
REMARK INTRA:                   0.000
REMARK UNBOUND:                 0.000
REMARK  Name = ZINC000000120283
REMARK  0 active torsions:
REMARK  status: ('A' for Active; 'I' for Inactive)
REMARK                            x       y       z     vdW  Elec       q    Type
REMARK                         _______ _______ _______ _____ _____    ______ ____
ROOT
ATOM      1  O   UNL     1      -4.154   3.085 -22.472  0.00  0.00    -0.245 OA
ATOM      2  C   UNL     1      -2.864   3.124 -22.625  0.00  0.00    +0.337 A 
ATOM      3  C   UNL     1      -2.332   3.972 -23.455  0.00  0.00    +0.092 A 
ATOM      4  C   UNL     1      -1.042   4.010 -23.608  0.00  0.00    +0.018 A 
ATOM      5  C   UNL     1      -0.282   3.200 -22.930  0.00  0.00    +0.018 A 
ATOM      6  C   UNL     1       1.008   3.239 -23.082  0.00  0.00    +0.023 A 
ATOM      7  C   UNL     1       1.766   2.429 -22.405  0.00  0.00    +0.021 A 
ATOM      8  C   UNL     1       3.056   2.268 -22.373  0.00  0.00    +0.049 A 
ATOM      9  C   UNL     1       3.321   1.320 -21.524  0.00  0.00    +0.196 A 
ATOM     10  O   UNL     1       2.196   0.896 -21.031  0.00  0.00    -0.463 OA
ATOM     11  C   UNL     1       1.235   1.581 -21.575  0.00  0.00    +0.138 A 
ATOM     12  C   UNL     1      -0.055   1.543 -21.423  0.00  0.00    +0.093 A 
ATOM     13  C   UNL     1      -0.814   2.352 -22.100  0.00  0.00    +0.143 A 
ATOM     14  O   UNL     1      -2.105   2.314 -21.948  0.00  0.00    -0.422 OA
ENDROOT
TORSDOF 0
ENDMDL
MODEL 9
REMARK VINA RESULT:    -6.958      1.473      2.485
REMARK INTER + INTRA:          -6.958
REMARK INTER:                  -6.958
REMARK INTRA:                   0.000
REMARK UNBOUND:                 0.000
REMARK  Name = ZINC000000120283
REMARK  0 active torsions:
REMARK  status: ('A' for Active; 'I' for Inactive)
REMARK                            x       y       z     vdW  Elec       q    Type
REMARK                         _______ _______ _______ _____ _____    ______ ____
ROOT
ATOM      1  O   UNL     1       3.059   0.234 -21.400  0.00  0.00    -0.245 OA
ATOM      2  C   UNL     1       2.212   0.995 -22.028  0.00  0.00    +0.337 A 
ATOM      3  C   UNL     1       2.616   1.750 -23.006  0.00  0.00    +0.092 A 
ATOM      4  C   UNL     1       1.769   2.510 -23.634  0.00  0.00    +0.018 A 
ATOM      5  C   UNL     1       0.516   2.515 -23.283  0.00  0.00    +0.018 A 
ATOM      6  C   UNL     1      -0.331   3.274 -23.911  0.00  0.00    +0.023 A 
ATOM      7  C   UNL     1      -1.583   3.279 -23.561  0.00  0.00    +0.021 A 
ATOM      8  C   UNL     1      -2.611   3.932 -24.015  0.00  0.00    +0.049 A 
ATOM      9  C   UNL     1      -3.650   3.580 -23.318  0.00  0.00    +0.196 A 
ATOM     10  O   UNL     1      -3.265   2.709 -22.433  0.00  0.00    -0.463 OA
ATOM     11  C   UNL     1      -1.987   2.523 -22.583  0.00  0.00    +0.138 A 
ATOM     12  C   UNL     1      -1.140   1.763 -21.956  0.00  0.00    +0.093 A 
ATOM     13  C   UNL     1       0.112   1.759 -22.306  0.00  0.00    +0.143 A 
ATOM     14  O   UNL     1       0.960   0.999 -21.678  0.00  0.00    -0.422 OA
ENDROOT
TORSDOF 0
ENDMDL
