MODEL 1
REMARK VINA RESULT:    -7.175      0.000      0.000
REMARK INTER + INTRA:          -8.286
REMARK INTER:                  -7.989
REMARK INTRA:                  -0.297
REMARK UNBOUND:                -0.272
REMARK  Name = ZINC000000338366
REMARK  3 active torsions:
REMARK  status: ('A' for Active; 'I' for Inactive)
REMARK    1  A    between atoms: C_1  and  N_2
REMARK    2  A    between atoms: C_3  and  C_5
REMARK    3  A    between atoms: C_5  and  C_6
REMARK                            x       y       z     vdW  Elec       q    Type
REMARK                         _______ _______ _______ _____ _____    ______ ____
ROOT
ATOM      1  C   UNL     1      -1.833   3.700 -23.206  0.00  0.00    -0.014 A 
ATOM      2  C   UNL     1      -1.857   4.119 -24.435  0.00  0.00    +0.087 A 
ATOM      3  N   UNL     1      -3.101   4.219 -24.803  0.00  0.00    -0.360 N 
ATOM      4  H   UNL     1      -3.422   4.513 -25.685  0.00  0.00    +0.165 HD
ATOM      5  C   UNL     1      -3.845   3.860 -23.798  0.00  0.00    +0.047 A 
ATOM      6  C   UNL     1      -5.135   3.784 -23.655  0.00  0.00    +0.026 A 
ATOM      7  C   UNL     1      -5.641   3.388 -22.526  0.00  0.00    +0.002 A 
ATOM      8  C   UNL     1      -4.858   3.068 -21.539  0.00  0.00    +0.001 A 
ATOM      9  C   UNL     1      -3.568   3.144 -21.682  0.00  0.00    +0.010 A 
ATOM     10  C   UNL     1      -3.062   3.540 -22.812  0.00  0.00    +0.003 A 
ENDROOT
BRANCH   1  11
ATOM     11  C   UNL     1      -0.767   3.479 -22.495  0.00  0.00    +0.133 C 
BRANCH  11  15
ATOM     12  C   UNL     1       2.099   1.887 -23.534  0.00  0.00    +0.128 C 
ATOM     13  N   UNL     1       1.273   2.831 -23.191  0.00  0.00    -0.318 N 
ATOM     14  H   UNL     1       1.569   3.770 -23.200  0.00  0.00    +0.148 HD
ATOM     15  C   UNL     1       0.058   2.534 -22.837  0.00  0.00    +0.217 C 
ATOM     16  O   UNL     1      -0.332   1.295 -22.825  0.00  0.00    -0.275 OA
ENDBRANCH  11  15
ENDBRANCH   1  11
TORSDOF 2
ENDMDL
MODEL 2
REMARK VINA RESULT:    -7.139      1.765      2.305
REMARK INTER + INTRA:          -8.245
REMARK INTER:                  -8.207
REMARK INTRA:                  -0.038
REMARK UNBOUND:                -0.272
REMARK  Name = ZINC000000338366
REMARK  3 active torsions:
REMARK  status: ('A' for Active; 'I' for Inactive)
REMARK    1  A    between atoms: C_1  and  N_2
REMARK    2  A    between atoms: C_3  and  C_5
REMARK    3  A    between atoms: C_5  and  C_6
REMARK                            x       y       z     vdW  Elec       q    Type
REMARK                         _______ _______ _______ _____ _____    ______ ____
ROOT
ATOM      1  C   UNL     1      -1.956   3.314 -23.549  0.00  0.00    -0.014 A 
ATOM      2  C   UNL     1      -1.348   2.798 -22.522  0.00  0.00    +0.087 A 
ATOM      3  N   UNL     1      -2.238   2.553 -21.607  0.00  0.00    -0.360 N 
ATOM      4  H   UNL     1      -2.066   2.161 -20.722  0.00  0.00    +0.165 HD
ATOM      5  C   UNL     1      -3.399   2.919 -22.069  0.00  0.00    +0.047 A 
ATOM      6  C   UNL     1      -4.590   2.884 -21.552  0.00  0.00    +0.026 A 
ATOM      7  C   UNL     1      -5.608   3.319 -22.234  0.00  0.00    +0.002 A 
ATOM      8  C   UNL     1      -5.433   3.789 -23.434  0.00  0.00    +0.001 A 
ATOM      9  C   UNL     1      -4.241   3.824 -23.951  0.00  0.00    +0.010 A 
ATOM     10  C   UNL     1      -3.224   3.388 -23.268  0.00  0.00    +0.003 A 
ENDROOT
BRANCH   1  11
ATOM     11  C   UNL     1      -1.395   3.689 -24.660  0.00  0.00    +0.133 C 
BRANCH  11  15
ATOM     12  C   UNL     1       1.842   2.731 -25.320  0.00  0.00    +0.128 C 
ATOM     13  N   UNL     1       0.546   2.697 -25.225  0.00  0.00    -0.318 N 
ATOM     14  H   UNL     1       0.052   1.895 -25.511  0.00  0.00    +0.148 HD
ATOM     15  C   UNL     1      -0.098   3.723 -24.754  0.00  0.00    +0.217 C 
ATOM     16  O   UNL     1       0.552   4.783 -24.376  0.00  0.00    -0.275 OA
ENDBRANCH  11  15
ENDBRANCH   1  11
TORSDOF 2
ENDMDL
MODEL 3
REMARK VINA RESULT:    -6.955      1.294      1.967
REMARK INTER + INTRA:          -8.040
REMARK INTER:                  -7.825
REMARK INTRA:                  -0.216
REMARK UNBOUND:                -0.272
REMARK  Name = ZINC000000338366
REMARK  3 active torsions:
REMARK  status: ('A' for Active; 'I' for Inactive)
REMARK    1  A    between atoms: C_1  and  N_2
REMARK    2  A    between atoms: C_3  and  C_5
REMARK    3  A    between atoms: C_5  and  C_6
REMARK                            x       y       z     vdW  Elec       q    Type
REMARK                         _______ _______ _______ _____ _____    ______ ____
ROOT
ATOM      1  C   UNL     1      -1.934   3.626 -22.304  0.00  0.00    -0.014 A 
ATOM      2  C   UNL     1      -2.180   3.218 -21.095  0.00  0.00    +0.087 A 
ATOM      3  N   UNL     1      -3.467   3.079 -20.970  0.00  0.00    -0.360 N 
ATOM      4  H   UNL     1      -3.942   2.783 -20.161  0.00  0.00    +0.165 HD
ATOM      5  C   UNL     1      -4.017   3.402 -22.104  0.00  0.00    +0.047 A 
ATOM      6  C   UNL     1      -5.257   3.431 -22.492  0.00  0.00    +0.026 A 
ATOM      7  C   UNL     1      -5.549   3.798 -23.704  0.00  0.00    +0.002 A 
ATOM      8  C   UNL     1      -4.602   4.136 -24.528  0.00  0.00    +0.001 A 
ATOM      9  C   UNL     1      -3.362   4.106 -24.140  0.00  0.00    +0.010 A 
ATOM     10  C   UNL     1      -3.069   3.739 -22.928  0.00  0.00    +0.003 A 
ENDROOT
BRANCH   1  11
ATOM     11  C   UNL     1      -0.760   3.876 -22.802  0.00  0.00    +0.133 C 
BRANCH  11  15
ATOM     12  C   UNL     1       2.128   2.028 -23.086  0.00  0.00    +0.128 C 
ATOM     13  N   UNL     1       1.318   3.007 -22.809  0.00  0.00    -0.318 N 
ATOM     14  H   UNL     1       1.664   3.830 -22.395  0.00  0.00    +0.148 HD
ATOM     15  C   UNL     1       0.051   2.897 -23.079  0.00  0.00    +0.217 C 
ATOM     16  O   UNL     1      -0.407   1.811 -23.626  0.00  0.00    -0.275 OA
ENDBRANCH  11  15
ENDBRANCH   1  11
TORSDOF 2
ENDMDL
MODEL 4
REMARK VINA RESULT:    -6.837      2.034      4.871
REMARK INTER + INTRA:          -7.909
REMARK INTER:                  -7.646
REMARK INTRA:                  -0.263
REMARK UNBOUND:                -0.272
REMARK  Name = ZINC000000338366
REMARK  3 active torsions:
REMARK  status: ('A' for Active; 'I' for Inactive)
REMARK    1  A    between atoms: C_1  and  N_2
REMARK    2  A    between atoms: C_3  and  C_5
REMARK    3  A    between atoms: C_5  and  C_6
REMARK                            x       y       z     vdW  Elec       q    Type
REMARK                         _______ _______ _______ _____ _____    ______ ____
ROOT
ATOM      1  C   UNL     1      -1.623   2.788 -21.505  0.00  0.00    -0.014 A 
ATOM      2  C   UNL     1      -1.157   1.575 -21.468  0.00  0.00    +0.087 A 
ATOM      3  N   UNL     1      -0.141   1.509 -22.277  0.00  0.00    -0.360 N 
ATOM      4  H   UNL     1       0.409   0.712 -22.452  0.00  0.00    +0.165 HD
ATOM      5  C   UNL     1       0.021   2.682 -22.815  0.00  0.00    +0.047 A 
ATOM      6  C   UNL     1       0.883   3.132 -23.677  0.00  0.00    +0.026 A 
ATOM      7  C   UNL     1       0.830   4.373 -24.062  0.00  0.00    +0.002 A 
ATOM      8  C   UNL     1      -0.086   5.163 -23.585  0.00  0.00    +0.001 A 
ATOM      9  C   UNL     1      -0.948   4.712 -22.723  0.00  0.00    +0.010 A 
ATOM     10  C   UNL     1      -0.895   3.472 -22.338  0.00  0.00    +0.003 A 
ENDROOT
BRANCH   1  11
ATOM     11  C   UNL     1      -2.638   3.237 -20.829  0.00  0.00    +0.133 C 
BRANCH  11  15
ATOM     12  C   UNL     1      -5.646   3.362 -22.493  0.00  0.00    +0.128 C 
ATOM     13  N   UNL     1      -4.436   3.655 -22.119  0.00  0.00    -0.318 N 
ATOM     14  H   UNL     1      -3.964   4.415 -22.530  0.00  0.00    +0.148 HD
ATOM     15  C   UNL     1      -3.849   2.944 -21.203  0.00  0.00    +0.217 C 
ATOM     16  O   UNL     1      -4.471   1.940 -20.660  0.00  0.00    -0.275 OA
ENDBRANCH  11  15
ENDBRANCH   1  11
TORSDOF 2
ENDMDL
MODEL 5
REMARK VINA RESULT:    -6.800      1.788      2.257
REMARK INTER + INTRA:          -7.867
REMARK INTER:                  -7.599
REMARK INTRA:                  -0.268
REMARK UNBOUND:                -0.272
REMARK  Name = ZINC000000338366
REMARK  3 active torsions:
REMARK  status: ('A' for Active; 'I' for Inactive)
REMARK    1  A    between atoms: C_1  and  N_2
REMARK    2  A    between atoms: C_3  and  C_5
REMARK    3  A    between atoms: C_5  and  C_6
REMARK                            x       y       z     vdW  Elec       q    Type
REMARK                         _______ _______ _______ _____ _____    ______ ____
ROOT
ATOM      1  C   UNL     1      -1.149   3.836 -24.305  0.00  0.00    -0.014 A 
ATOM      2  C   UNL     1      -0.563   3.594 -25.439  0.00  0.00    +0.087 A 
ATOM      3  N   UNL     1      -1.485   3.379 -26.331  0.00  0.00    -0.360 N 
ATOM      4  H   UNL     1      -1.334   3.170 -27.280  0.00  0.00    +0.165 HD
ATOM      5  C   UNL     1      -2.641   3.490 -25.746  0.00  0.00    +0.047 A 
ATOM      6  C   UNL     1      -3.856   3.370 -26.192  0.00  0.00    +0.026 A 
ATOM      7  C   UNL     1      -4.863   3.532 -25.386  0.00  0.00    +0.002 A 
ATOM      8  C   UNL     1      -4.655   3.814 -24.134  0.00  0.00    +0.001 A 
ATOM      9  C   UNL     1      -3.440   3.934 -23.688  0.00  0.00    +0.010 A 
ATOM     10  C   UNL     1      -2.434   3.772 -24.494  0.00  0.00    +0.003 A 
ENDROOT
BRANCH   1  11
ATOM     11  C   UNL     1      -0.554   4.097 -23.178  0.00  0.00    +0.133 C 
BRANCH  11  15
ATOM     12  C   UNL     1       0.030   1.424 -21.094  0.00  0.00    +0.128 C 
ATOM     13  N   UNL     1      -0.591   2.369 -21.735  0.00  0.00    -0.318 N 
ATOM     14  H   UNL     1      -1.559   2.493 -21.611  0.00  0.00    +0.148 HD
ATOM     15  C   UNL     1       0.068   3.151 -22.538  0.00  0.00    +0.217 C 
ATOM     16  O   UNL     1       1.347   2.989 -22.701  0.00  0.00    -0.275 OA
ENDBRANCH  11  15
ENDBRANCH   1  11
TORSDOF 2
ENDMDL
MODEL 6
REMARK VINA RESULT:    -6.609      1.743      2.443
REMARK INTER + INTRA:          -7.654
REMARK INTER:                  -7.365
REMARK INTRA:                  -0.289
REMARK UNBOUND:                -0.272
REMARK  Name = ZINC000000338366
REMARK  3 active torsions:
REMARK  status: ('A' for Active; 'I' for Inactive)
REMARK    1  A    between atoms: C_1  and  N_2
REMARK    2  A    between atoms: C_3  and  C_5
REMARK    3  A    between atoms: C_5  and  C_6
REMARK                            x       y       z     vdW  Elec       q    Type
REMARK                         _______ _______ _______ _____ _____    ______ ____
ROOT
ATOM      1  C   UNL     1       0.237   3.187 -23.897  0.00  0.00    -0.014 A 
ATOM      2  C   UNL     1       0.715   3.168 -25.105  0.00  0.00    +0.087 A 
ATOM      3  N   UNL     1      -0.270   3.365 -25.931  0.00  0.00    -0.360 N 
ATOM      4  H   UNL     1      -0.204   3.401 -26.912  0.00  0.00    +0.165 HD
ATOM      5  C   UNL     1      -1.357   3.506 -25.232  0.00  0.00    +0.047 A 
ATOM      6  C   UNL     1      -2.592   3.720 -25.577  0.00  0.00    +0.026 A 
ATOM      7  C   UNL     1      -3.513   3.825 -24.666  0.00  0.00    +0.002 A 
ATOM      8  C   UNL     1      -3.199   3.715 -23.409  0.00  0.00    +0.001 A 
ATOM      9  C   UNL     1      -1.965   3.501 -23.063  0.00  0.00    +0.010 A 
ATOM     10  C   UNL     1      -1.044   3.396 -23.975  0.00  0.00    +0.003 A 
ENDROOT
BRANCH   1  11
ATOM     11  C   UNL     1       0.920   3.026 -22.803  0.00  0.00    +0.133 C 
BRANCH  11  15
ATOM     12  C   UNL     1       3.138   0.513 -22.031  0.00  0.00    +0.128 C 
ATOM     13  N   UNL     1       2.669   1.686 -22.337  0.00  0.00    -0.318 N 
ATOM     14  H   UNL     1       3.282   2.447 -22.448  0.00  0.00    +0.148 HD
ATOM     15  C   UNL     1       1.389   1.852 -22.496  0.00  0.00    +0.217 C 
ATOM     16  O   UNL     1       0.579   0.847 -22.350  0.00  0.00    -0.275 OA
ENDBRANCH  11  15
ENDBRANCH   1  11
TORSDOF 2
ENDMDL
MODEL 7
REMARK VINA RESULT:    -6.549      2.072      5.145
REMARK INTER + INTRA:          -7.587
REMARK INTER:                  -7.495
REMARK INTRA:                  -0.092
REMARK UNBOUND:                -0.272
REMARK  Name = ZINC000000338366
REMARK  3 active torsions:
REMARK  status: ('A' for Active; 'I' for Inactive)
REMARK    1  A    between atoms: C_1  and  N_2
REMARK    2  A    between atoms: C_3  and  C_5
REMARK    3  A    between atoms: C_5  and  C_6
REMARK                            x       y       z     vdW  Elec       q    Type
REMARK                         _______ _______ _______ _____ _____    ______ ____
ROOT
ATOM      1  C   UNL     1      -0.907   3.754 -22.830  0.00  0.00    -0.014 A 
ATOM      2  C   UNL     1      -1.239   4.996 -23.022  0.00  0.00    +0.087 A 
ATOM      3  N   UNL     1      -0.161   5.660 -23.317  0.00  0.00    -0.360 N 
ATOM      4  H   UNL     1      -0.109   6.623 -23.514  0.00  0.00    +0.165 HD
ATOM      5  C   UNL     1       0.838   4.827 -23.307  0.00  0.00    +0.047 A 
ATOM      6  C   UNL     1       2.108   4.989 -23.533  0.00  0.00    +0.026 A 
ATOM      7  C   UNL     1       2.916   3.974 -23.458  0.00  0.00    +0.002 A 
ATOM      8  C   UNL     1       2.455   2.797 -23.157  0.00  0.00    +0.001 A 
ATOM      9  C   UNL     1       1.185   2.634 -22.931  0.00  0.00    +0.010 A 
ATOM     10  C   UNL     1       0.377   3.650 -23.006  0.00  0.00    +0.003 A 
ENDROOT
BRANCH   1  11
ATOM     11  C   UNL     1      -1.717   2.787 -22.516  0.00  0.00    +0.133 C 
BRANCH  11  15
ATOM     12  C   UNL     1      -5.074   3.332 -22.000  0.00  0.00    +0.128 C 
ATOM     13  N   UNL     1      -3.950   3.070 -22.597  0.00  0.00    -0.318 N 
ATOM     14  H   UNL     1      -3.937   2.887 -23.565  0.00  0.00    +0.148 HD
ATOM     15  C   UNL     1      -2.842   3.049 -21.918  0.00  0.00    +0.217 C 
ATOM     16  O   UNL     1      -2.857   3.291 -20.641  0.00  0.00    -0.275 OA
ENDBRANCH  11  15
ENDBRANCH   1  11
TORSDOF 2
ENDMDL
MODEL 8
REMARK VINA RESULT:    -6.470      2.832      4.009
REMARK INTER + INTRA:          -7.498
REMARK INTER:                  -7.369
REMARK INTRA:                  -0.129
REMARK UNBOUND:                -0.272
REMARK  Name = ZINC000000338366
REMARK  3 active torsions:
REMARK  status: ('A' for Active; 'I' for Inactive)
REMARK    1  A    between atoms: C_1  and  N_2
REMARK    2  A    between atoms: C_3  and  C_5
REMARK    3  A    between atoms: C_5  and  C_6
REMARK                            x       y       z     vdW  Elec       q    Type
REMARK                         _______ _______ _______ _____ _____    ______ ____
ROOT
ATOM      1  C   UNL     1       2.051   3.735 -23.442  0.00  0.00    -0.014 A 
ATOM      2  C   UNL     1       2.373   4.993 -23.470  0.00  0.00    +0.087 A 
ATOM      3  N   UNL     1       1.282   5.691 -23.367  0.00  0.00    -0.360 N 
ATOM      4  H   UNL     1       1.220   6.673 -23.360  0.00  0.00    +0.165 HD
ATOM      5  C   UNL     1       0.283   4.863 -23.275  0.00  0.00    +0.047 A 
ATOM      6  C   UNL     1      -0.997   5.053 -23.156  0.00  0.00    +0.026 A 
ATOM      7  C   UNL     1      -1.801   4.035 -23.082  0.00  0.00    +0.002 A 
ATOM      8  C   UNL     1      -1.326   2.826 -23.129  0.00  0.00    +0.001 A 
ATOM      9  C   UNL     1      -0.046   2.635 -23.248  0.00  0.00    +0.010 A 
ATOM     10  C   UNL     1       0.759   3.654 -23.322  0.00  0.00    +0.003 A 
ENDROOT
BRANCH   1  11
ATOM     11  C   UNL     1       2.876   2.733 -23.520  0.00  0.00    +0.133 C 
BRANCH  11  15
ATOM     12  C   UNL     1       3.665   0.479 -21.044  0.00  0.00    +0.128 C 
ATOM     13  N   UNL     1       3.154   0.985 -22.127  0.00  0.00    -0.318 N 
ATOM     14  H   UNL     1       2.590   0.430 -22.712  0.00  0.00    +0.148 HD
ATOM     15  C   UNL     1       3.388   2.226 -22.437  0.00  0.00    +0.217 C 
ATOM     16  O   UNL     1       4.132   2.960 -21.666  0.00  0.00    -0.275 OA
ENDBRANCH  11  15
ENDBRANCH   1  11
TORSDOF 2
ENDMDL
MODEL 9
REMARK VINA RESULT:    -6.422      2.434      3.205
REMARK INTER + INTRA:          -7.444
REMARK INTER:                  -7.172
REMARK INTRA:                  -0.272
REMARK UNBOUND:                -0.272
REMARK  Name = ZINC000000338366
REMARK  3 active torsions:
REMARK  status: ('A' for Active; 'I' for Inactive)
REMARK    1  A    between atoms: C_1  and  N_2
REMARK    2  A    between atoms: C_3  and  C_5
REMARK    3  A    between atoms: C_5  and  C_6
REMARK                            x       y       z     vdW  Elec       q    Type
REMARK                         _______ _______ _______ _____ _____    ______ ____
ROOT
ATOM      1  C   UNL     1       0.822   3.706 -23.256  0.00  0.00    -0.014 A 
ATOM      2  C   UNL     1       0.664   4.961 -23.556  0.00  0.00    +0.087 A 
ATOM      3  N   UNL     1      -0.482   5.348 -23.079  0.00  0.00    -0.360 N 
ATOM      4  H   UNL     1      -0.866   6.251 -23.154  0.00  0.00    +0.165 HD
ATOM      5  C   UNL     1      -1.033   4.331 -22.483  0.00  0.00    +0.047 A 
ATOM      6  C   UNL     1      -2.163   4.197 -21.856  0.00  0.00    +0.026 A 
ATOM      7  C   UNL     1      -2.488   3.050 -21.338  0.00  0.00    +0.002 A 
ATOM      8  C   UNL     1      -1.682   2.036 -21.448  0.00  0.00    +0.001 A 
ATOM      9  C   UNL     1      -0.551   2.169 -22.075  0.00  0.00    +0.010 A 
ATOM     10  C   UNL     1      -0.227   3.316 -22.593  0.00  0.00    +0.003 A 
ENDROOT
BRANCH   1  11
ATOM     11  C   UNL     1       1.848   2.970 -23.565  0.00  0.00    +0.133 C 
BRANCH  11  15
ATOM     12  C   UNL     1       5.095   3.976 -23.035  0.00  0.00    +0.128 C 
ATOM     13  N   UNL     1       3.951   3.774 -23.619  0.00  0.00    -0.318 N 
ATOM     14  H   UNL     1       3.811   4.077 -24.545  0.00  0.00    +0.148 HD
ATOM     15  C   UNL     1       2.992   3.172 -22.980  0.00  0.00    +0.217 C 
ATOM     16  O   UNL     1       3.176   2.772 -21.757  0.00  0.00    -0.275 OA
ENDBRANCH  11  15
ENDBRANCH   1  11
TORSDOF 2
ENDMDL
