MODEL 1
REMARK VINA RESULT:    -9.822      0.000      0.000
REMARK INTER + INTRA:          -7.415
REMARK INTER:                 -11.504
REMARK INTRA:                   4.089
REMARK UNBOUND:                 4.129
REMARK  Name = COc1ccc2c3c1O[C@@H]1C(OC)(OC)CC[C@@H]4[C@@H](C2)N(C)CC[C@@]341       ZINC000253505299
REMARK  7 active torsions:
REMARK  status: ('A' for Active; 'I' for Inactive)
REMARK    1  A    between atoms: C_1  and  O_2
REMARK    2  A    between atoms: O_2  and  C_3
REMARK    3  A    between atoms: C_11  and  O_12
REMARK    4  A    between atoms: C_11  and  O_14
REMARK    5  A    between atoms: O_12  and  C_13
REMARK    6  A    between atoms: O_14  and  C_15
REMARK    7  A    between atoms: N_21  and  C_22
REMARK                            x       y       z     vdW  Elec       q    Type
REMARK                         _______ _______ _______ _____ _____    ______ ____
ROOT
ATOM      1  C   UNL     1       1.436   1.846 -22.076  0.00  0.00    +0.162 A 
ATOM      2  C   UNL     1       2.087   1.935 -23.161  0.00  0.00    +0.050 A 
ATOM      3  C   UNL     1       1.529   2.345 -24.206  0.00  0.00    +0.008 A 
ATOM      4  C   UNL     1       0.317   2.671 -24.178  0.00  0.00    -0.035 A 
ATOM      5  C   UNL     1      -0.352   2.591 -23.110  0.00  0.00    +0.012 A 
ATOM      6  C   UNL     1      -1.561   2.917 -23.088  0.00  0.00    +0.054 C 
ATOM      7  C   UNL     1      -2.942   3.258 -22.939  0.00  0.00    +0.067 C 
ATOM      8  C   UNL     1      -3.599   3.725 -24.101  0.00  0.00    +0.132 C 
ATOM      9  N   UNL     1      -2.842   3.811 -25.293  0.00  0.00    +0.236 N 
ATOM     10  H   UNL     1      -3.266   4.141 -26.160  0.00  0.00    +0.203 HD
ATOM     11  C   UNL     1      -3.348   4.215 -26.367  0.00  0.00    +0.190 C 
ATOM     12  C   UNL     1      -1.470   3.416 -25.215  0.00  0.00    +0.072 C 
ATOM     13  C   UNL     1      -2.123   3.328 -24.131  0.00  0.00    +0.053 C 
ATOM     14  C   UNL     1      -3.348   3.658 -24.108  0.00  0.00    +0.015 C 
ATOM     15  C   UNL     1      -3.998   3.572 -23.038  0.00  0.00    +0.069 C 
ATOM     16  C   UNL     1      -3.440   3.158 -21.978  0.00  0.00    +0.208 C 
ATOM     17  C   UNL     1      -2.228   2.832 -22.004  0.00  0.00    +0.244 C 
ATOM     18  O   UNL     1      -1.039   2.314 -21.222  0.00  0.00    -0.479 OA
ATOM     19  C   UNL     1      -0.259   3.090 -25.241  0.00  0.00    +0.090 C 
ATOM     20  C   UNL     1       0.209   2.176 -22.052  0.00  0.00    +0.167 A 
ENDROOT
BRANCH   1  22
ATOM     21  C   UNL     1       3.215   1.126 -21.055  0.00  0.00    +0.277 C 
ATOM     22  O   UNL     1       1.998   1.435 -21.033  0.00  0.00    -0.491 OA
ENDBRANCH   1  22
BRANCH  16  23
ATOM     23  O   UNL     1      -4.598   3.368 -21.542  0.00  0.00    -0.349 OA
ATOM     24  C   UNL     1      -5.361   2.403 -21.298  0.00  0.00    +0.197 C 
ENDBRANCH  16  23
BRANCH  16  25
ATOM     25  O   UNL     1      -3.283   2.820 -20.781  0.00  0.00    -0.349 OA
ATOM     26  C   UNL     1      -3.272   3.691 -19.878  0.00  0.00    +0.197 C 
ENDBRANCH  16  25
TORSDOF 3
ENDMDL
MODEL 2
REMARK VINA RESULT:    -9.496      2.020      3.433
REMARK INTER + INTRA:          -7.032
REMARK INTER:                 -11.169
REMARK INTRA:                   4.137
REMARK UNBOUND:                 4.129
REMARK  Name = COc1ccc2c3c1O[C@@H]1C(OC)(OC)CC[C@@H]4[C@@H](C2)N(C)CC[C@@]341       ZINC000253505299
REMARK  7 active torsions:
REMARK  status: ('A' for Active; 'I' for Inactive)
REMARK    1  A    between atoms: C_1  and  O_2
REMARK    2  A    between atoms: O_2  and  C_3
REMARK    3  A    between atoms: C_11  and  O_12
REMARK    4  A    between atoms: C_11  and  O_14
REMARK    5  A    between atoms: O_12  and  C_13
REMARK    6  A    between atoms: O_14  and  C_15
REMARK    7  A    between atoms: N_21  and  C_22
REMARK                            x       y       z     vdW  Elec       q    Type
REMARK                         _______ _______ _______ _____ _____    ______ ____
ROOT
ATOM      1  C   UNL     1       1.658   2.300 -23.782  0.00  0.00    +0.162 A 
ATOM      2  C   UNL     1       1.972   1.840 -22.642  0.00  0.00    +0.050 A 
ATOM      3  C   UNL     1       1.102   1.696 -21.751  0.00  0.00    +0.008 A 
ATOM      4  C   UNL     1      -0.090   2.010 -21.989  0.00  0.00    -0.035 A 
ATOM      5  C   UNL     1      -0.428   2.469 -23.116  0.00  0.00    +0.012 A 
ATOM      6  C   UNL     1      -1.619   2.780 -23.347  0.00  0.00    +0.054 C 
ATOM      7  C   UNL     1      -2.941   3.169 -23.729  0.00  0.00    +0.067 C 
ATOM      8  C   UNL     1      -3.946   3.018 -22.745  0.00  0.00    +0.132 C 
ATOM      9  N   UNL     1      -3.558   2.503 -21.485  0.00  0.00    +0.236 N 
ATOM     10  H   UNL     1      -4.241   2.374 -20.740  0.00  0.00    +0.203 HD
ATOM     11  C   UNL     1      -4.386   2.338 -20.558  0.00  0.00    +0.190 C 
ATOM     12  C   UNL     1      -2.175   2.178 -21.320  0.00  0.00    +0.072 C 
ATOM     13  C   UNL     1      -2.493   2.638 -22.459  0.00  0.00    +0.053 C 
ATOM     14  C   UNL     1      -3.699   2.953 -22.694  0.00  0.00    +0.015 C 
ATOM     15  C   UNL     1      -4.017   3.409 -23.820  0.00  0.00    +0.069 C 
ATOM     16  C   UNL     1      -3.143   3.557 -24.725  0.00  0.00    +0.208 C 
ATOM     17  C   UNL     1      -1.950   3.244 -24.488  0.00  0.00    +0.244 C 
ATOM     18  O   UNL     1      -0.534   3.157 -25.021  0.00  0.00    -0.479 OA
ATOM     19  C   UNL     1      -0.983   1.865 -21.084  0.00  0.00    +0.090 C 
ATOM     20  C   UNL     1       0.449   2.616 -24.018  0.00  0.00    +0.167 A 
ENDROOT
BRANCH   1  22
ATOM     21  C   UNL     1       3.743   2.261 -24.394  0.00  0.00    +0.277 C 
ATOM     22  O   UNL     1       2.531   2.442 -24.670  0.00  0.00    -0.491 OA
ENDBRANCH   1  22
BRANCH  16  23
ATOM     23  O   UNL     1      -4.156   3.967 -25.339  0.00  0.00    -0.349 OA
ATOM     24  C   UNL     1      -4.401   5.196 -25.395  0.00  0.00    +0.197 C 
ENDBRANCH  16  23
BRANCH  16  25
ATOM     25  O   UNL     1      -2.623   3.843 -25.829  0.00  0.00    -0.349 OA
ATOM     26  C   UNL     1      -3.108   3.382 -26.890  0.00  0.00    +0.197 C 
ENDBRANCH  16  25
TORSDOF 3
ENDMDL
MODEL 3
REMARK VINA RESULT:    -8.949      2.219      5.801
REMARK INTER + INTRA:          -6.390
REMARK INTER:                 -10.420
REMARK INTRA:                   4.030
REMARK UNBOUND:                 4.129
REMARK  Name = COc1ccc2c3c1O[C@@H]1C(OC)(OC)CC[C@@H]4[C@@H](C2)N(C)CC[C@@]341       ZINC000253505299
REMARK  7 active torsions:
REMARK  status: ('A' for Active; 'I' for Inactive)
REMARK    1  A    between atoms: C_1  and  O_2
REMARK    2  A    between atoms: O_2  and  C_3
REMARK    3  A    between atoms: C_11  and  O_12
REMARK    4  A    between atoms: C_11  and  O_14
REMARK    5  A    between atoms: O_12  and  C_13
REMARK    6  A    between atoms: O_14  and  C_15
REMARK    7  A    between atoms: N_21  and  C_22
REMARK                            x       y       z     vdW  Elec       q    Type
REMARK                         _______ _______ _______ _____ _____    ______ ____
ROOT
ATOM      1  C   UNL     1      -4.122   3.712 -23.988  0.00  0.00    +0.162 A 
ATOM      2  C   UNL     1      -4.725   3.461 -22.901  0.00  0.00    +0.050 A 
ATOM      3  C   UNL     1      -4.100   2.992 -21.921  0.00  0.00    +0.008 A 
ATOM      4  C   UNL     1      -2.869   2.768 -22.016  0.00  0.00    -0.035 A 
ATOM      5  C   UNL     1      -2.246   3.010 -23.088  0.00  0.00    +0.012 A 
ATOM      6  C   UNL     1      -1.018   2.785 -23.178  0.00  0.00    +0.054 C 
ATOM      7  C   UNL     1       0.379   2.571 -23.400  0.00  0.00    +0.067 C 
ATOM      8  C   UNL     1       1.111   2.042 -22.313  0.00  0.00    +0.132 C 
ATOM      9  N   UNL     1       0.406   1.774 -21.116  0.00  0.00    +0.236 N 
ATOM     10  H   UNL     1       0.885   1.392 -20.300  0.00  0.00    +0.203 HD
ATOM     11  C   UNL     1       0.980   1.305 -20.105  0.00  0.00    +0.190 C 
ATOM     12  C   UNL     1      -0.994   2.065 -21.113  0.00  0.00    +0.072 C 
ATOM     13  C   UNL     1      -0.389   2.315 -22.200  0.00  0.00    +0.053 C 
ATOM     14  C   UNL     1       0.856   2.088 -22.292  0.00  0.00    +0.015 C 
ATOM     15  C   UNL     1       1.458   2.334 -23.365  0.00  0.00    +0.069 C 
ATOM     16  C   UNL     1       0.833   2.808 -24.360  0.00  0.00    +0.208 C 
ATOM     17  C   UNL     1      -0.399   3.032 -24.265  0.00  0.00    +0.244 C 
ATOM     18  O   UNL     1      -1.651   3.532 -24.955  0.00  0.00    -0.479 OA
ATOM     19  C   UNL     1      -2.225   2.289 -21.019  0.00  0.00    +0.090 C 
ATOM     20  C   UNL     1      -2.875   3.484 -24.081  0.00  0.00    +0.167 A 
ENDROOT
BRANCH   1  22
ATOM     21  C   UNL     1      -5.091   3.432 -25.914  0.00  0.00    +0.277 C 
ATOM     22  O   UNL     1      -4.751   4.182 -24.966  0.00  0.00    -0.491 OA
ENDBRANCH   1  22
BRANCH  16  23
ATOM     23  O   UNL     1       1.987   2.737 -24.848  0.00  0.00    -0.349 OA
ATOM     24  C   UNL     1       2.298   1.770 -25.583  0.00  0.00    +0.197 C 
ENDBRANCH  16  23
BRANCH  16  25
ATOM     25  O   UNL     1       0.607   3.253 -25.510  0.00  0.00    -0.349 OA
ATOM     26  C   UNL     1       1.139   4.326 -25.884  0.00  0.00    +0.197 C 
ENDBRANCH  16  25
TORSDOF 3
ENDMDL
MODEL 4
REMARK VINA RESULT:    -8.700      2.102      5.394
REMARK INTER + INTRA:          -6.097
REMARK INTER:                 -10.125
REMARK INTRA:                   4.028
REMARK UNBOUND:                 4.129
REMARK  Name = COc1ccc2c3c1O[C@@H]1C(OC)(OC)CC[C@@H]4[C@@H](C2)N(C)CC[C@@]341       ZINC000253505299
REMARK  7 active torsions:
REMARK  status: ('A' for Active; 'I' for Inactive)
REMARK    1  A    between atoms: C_1  and  O_2
REMARK    2  A    between atoms: O_2  and  C_3
REMARK    3  A    between atoms: C_11  and  O_12
REMARK    4  A    between atoms: C_11  and  O_14
REMARK    5  A    between atoms: O_12  and  C_13
REMARK    6  A    between atoms: O_14  and  C_15
REMARK    7  A    between atoms: N_21  and  C_22
REMARK                            x       y       z     vdW  Elec       q    Type
REMARK                         _______ _______ _______ _____ _____    ______ ____
ROOT
ATOM      1  C   UNL     1      -4.191   3.051 -26.167  0.00  0.00    +0.162 A 
ATOM      2  C   UNL     1      -5.344   3.424 -25.790  0.00  0.00    +0.050 A 
ATOM      3  C   UNL     1      -5.578   3.641 -24.579  0.00  0.00    +0.008 A 
ATOM      4  C   UNL     1      -4.664   3.489 -23.731  0.00  0.00    -0.035 A 
ATOM      5  C   UNL     1      -3.509   3.119 -24.081  0.00  0.00    +0.012 A 
ATOM      6  C   UNL     1      -2.601   2.969 -23.231  0.00  0.00    +0.054 C 
ATOM      7  C   UNL     1      -1.488   2.763 -22.357  0.00  0.00    +0.067 C 
ATOM      8  C   UNL     1      -1.721   3.001 -20.983  0.00  0.00    +0.132 C 
ATOM      9  N   UNL     1      -3.018   3.416 -20.599  0.00  0.00    +0.236 N 
ATOM     10  H   UNL     1      -3.240   3.601 -19.621  0.00  0.00    +0.203 HD
ATOM     11  C   UNL     1      -3.308   3.647 -19.401  0.00  0.00    +0.190 C 
ATOM     12  C   UNL     1      -3.984   3.558 -21.644  0.00  0.00    +0.072 C 
ATOM     13  C   UNL     1      -2.831   3.185 -22.018  0.00  0.00    +0.053 C 
ATOM     14  C   UNL     1      -1.910   3.033 -21.157  0.00  0.00    +0.015 C 
ATOM     15  C   UNL     1      -0.768   2.664 -21.524  0.00  0.00    +0.069 C 
ATOM     16  C   UNL     1      -0.525   2.442 -22.747  0.00  0.00    +0.208 C 
ATOM     17  C   UNL     1      -1.437   2.594 -23.596  0.00  0.00    +0.244 C 
ATOM     18  O   UNL     1      -1.833   2.523 -25.057  0.00  0.00    -0.479 OA
ATOM     19  C   UNL     1      -4.896   3.710 -22.492  0.00  0.00    +0.090 C 
ATOM     20  C   UNL     1      -3.269   2.898 -25.306  0.00  0.00    +0.167 A 
ENDROOT
BRANCH   1  22
ATOM     21  C   UNL     1      -3.268   3.645 -28.044  0.00  0.00    +0.277 C 
ATOM     22  O   UNL     1      -3.962   2.834 -27.381  0.00  0.00    -0.491 OA
ENDBRANCH   1  22
BRANCH  16  23
ATOM     23  O   UNL     1       0.601   2.186 -22.256  0.00  0.00    -0.349 OA
ATOM     24  C   UNL     1       0.963   0.994 -22.105  0.00  0.00    +0.197 C 
ENDBRANCH  16  23
BRANCH  16  25
ATOM     25  O   UNL     1       0.099   2.136 -23.791  0.00  0.00    -0.349 OA
ATOM     26  C   UNL     1       1.082   2.822 -24.160  0.00  0.00    +0.197 C 
ENDBRANCH  16  25
TORSDOF 3
ENDMDL
MODEL 5
REMARK VINA RESULT:    -8.507      1.432      4.608
REMARK INTER + INTRA:          -5.870
REMARK INTER:                 -10.012
REMARK INTRA:                   4.143
REMARK UNBOUND:                 4.129
REMARK  Name = COc1ccc2c3c1O[C@@H]1C(OC)(OC)CC[C@@H]4[C@@H](C2)N(C)CC[C@@]341       ZINC000253505299
REMARK  7 active torsions:
REMARK  status: ('A' for Active; 'I' for Inactive)
REMARK    1  A    between atoms: C_1  and  O_2
REMARK    2  A    between atoms: O_2  and  C_3
REMARK    3  A    between atoms: C_11  and  O_12
REMARK    4  A    between atoms: C_11  and  O_14
REMARK    5  A    between atoms: O_12  and  C_13
REMARK    6  A    between atoms: O_14  and  C_15
REMARK    7  A    between atoms: N_21  and  C_22
REMARK                            x       y       z     vdW  Elec       q    Type
REMARK                         _______ _______ _______ _____ _____    ______ ____
ROOT
ATOM      1  C   UNL     1      -4.127   3.137 -20.957  0.00  0.00    +0.162 A 
ATOM      2  C   UNL     1      -5.332   3.235 -21.342  0.00  0.00    +0.050 A 
ATOM      3  C   UNL     1      -5.602   3.366 -22.559  0.00  0.00    +0.008 A 
ATOM      4  C   UNL     1      -4.673   3.400 -23.403  0.00  0.00    -0.035 A 
ATOM      5  C   UNL     1      -3.466   3.304 -23.044  0.00  0.00    +0.012 A 
ATOM      6  C   UNL     1      -2.544   3.339 -23.891  0.00  0.00    +0.054 C 
ATOM      7  C   UNL     1      -1.409   3.365 -24.761  0.00  0.00    +0.067 C 
ATOM      8  C   UNL     1      -1.682   3.512 -26.140  0.00  0.00    +0.132 C 
ATOM      9  N   UNL     1      -3.037   3.618 -26.533  0.00  0.00    +0.236 N 
ATOM     10  H   UNL     1      -3.290   3.725 -27.515  0.00  0.00    +0.203 HD
ATOM     11  C   UNL     1      -3.365   3.750 -27.736  0.00  0.00    +0.190 C 
ATOM     12  C   UNL     1      -4.016   3.567 -25.492  0.00  0.00    +0.072 C 
ATOM     13  C   UNL     1      -2.810   3.470 -25.110  0.00  0.00    +0.053 C 
ATOM     14  C   UNL     1      -1.875   3.505 -25.966  0.00  0.00    +0.015 C 
ATOM     15  C   UNL     1      -0.681   3.408 -25.592  0.00  0.00    +0.069 C 
ATOM     16  C   UNL     1      -0.400   3.276 -24.363  0.00  0.00    +0.208 C 
ATOM     17  C   UNL     1      -1.328   3.242 -23.518  0.00  0.00    +0.244 C 
ATOM     18  O   UNL     1      -1.705   3.120 -22.056  0.00  0.00    -0.479 OA
ATOM     19  C   UNL     1      -4.943   3.533 -24.647  0.00  0.00    +0.090 C 
ATOM     20  C   UNL     1      -3.190   3.172 -21.815  0.00  0.00    +0.167 A 
ENDROOT
BRANCH   1  22
ATOM     21  C   UNL     1      -3.040   3.780 -19.187  0.00  0.00    +0.277 C 
ATOM     22  O   UNL     1      -3.861   3.007 -19.738  0.00  0.00    -0.491 OA
ENDBRANCH   1  22
BRANCH  16  23
ATOM     23  O   UNL     1       0.756   3.264 -24.849  0.00  0.00    -0.349 OA
ATOM     24  C   UNL     1       1.496   4.271 -24.733  0.00  0.00    +0.197 C 
ENDBRANCH  16  23
BRANCH  16  25
ATOM     25  O   UNL     1       0.271   3.141 -23.313  0.00  0.00    -0.349 OA
ATOM     26  C   UNL     1       1.017   2.143 -23.168  0.00  0.00    +0.197 C 
ENDBRANCH  16  25
TORSDOF 3
ENDMDL
MODEL 6
REMARK VINA RESULT:    -8.434      1.233      4.857
REMARK INTER + INTRA:          -5.784
REMARK INTER:                 -10.012
REMARK INTRA:                   4.228
REMARK UNBOUND:                 4.129
REMARK  Name = COc1ccc2c3c1O[C@@H]1C(OC)(OC)CC[C@@H]4[C@@H](C2)N(C)CC[C@@]341       ZINC000253505299
REMARK  7 active torsions:
REMARK  status: ('A' for Active; 'I' for Inactive)
REMARK    1  A    between atoms: C_1  and  O_2
REMARK    2  A    between atoms: O_2  and  C_3
REMARK    3  A    between atoms: C_11  and  O_12
REMARK    4  A    between atoms: C_11  and  O_14
REMARK    5  A    between atoms: O_12  and  C_13
REMARK    6  A    between atoms: O_14  and  C_15
REMARK    7  A    between atoms: N_21  and  C_22
REMARK                            x       y       z     vdW  Elec       q    Type
REMARK                         _______ _______ _______ _____ _____    ______ ____
ROOT
ATOM      1  C   UNL     1      -3.849   2.696 -21.901  0.00  0.00    +0.162 A 
ATOM      2  C   UNL     1      -4.400   3.381 -22.815  0.00  0.00    +0.050 A 
ATOM      3  C   UNL     1      -3.717   3.862 -23.749  0.00  0.00    +0.008 A 
ATOM      4  C   UNL     1      -2.478   3.663 -23.781  0.00  0.00    -0.035 A 
ATOM      5  C   UNL     1      -1.906   2.984 -22.883  0.00  0.00    +0.012 A 
ATOM      6  C   UNL     1      -0.669   2.790 -22.921  0.00  0.00    +0.054 C 
ATOM      7  C   UNL     1       0.730   2.500 -22.855  0.00  0.00    +0.067 C 
ATOM      8  C   UNL     1       1.527   3.029 -23.896  0.00  0.00    +0.132 C 
ATOM      9  N   UNL     1       0.878   3.789 -24.897  0.00  0.00    +0.236 N 
ATOM     10  H   UNL     1       1.405   4.193 -25.671  0.00  0.00    +0.203 HD
ATOM     11  C   UNL     1       1.511   4.293 -25.855  0.00  0.00    +0.190 C 
ATOM     12  C   UNL     1      -0.536   3.954 -24.766  0.00  0.00    +0.072 C 
ATOM     13  C   UNL     1       0.018   3.269 -23.854  0.00  0.00    +0.053 C 
ATOM     14  C   UNL     1       1.271   3.071 -23.890  0.00  0.00    +0.015 C 
ATOM     15  C   UNL     1       1.822   2.393 -22.989  0.00  0.00    +0.069 C 
ATOM     16  C   UNL     1       1.138   1.904 -22.041  0.00  0.00    +0.208 C 
ATOM     17  C   UNL     1      -0.101   2.102 -22.008  0.00  0.00    +0.244 C 
ATOM     18  O   UNL     1      -1.404   1.859 -21.273  0.00  0.00    -0.479 OA
ATOM     19  C   UNL     1      -1.775   4.152 -24.733  0.00  0.00    +0.090 C 
ATOM     20  C   UNL     1      -2.594   2.497 -21.937  0.00  0.00    +0.167 A 
ENDROOT
BRANCH   1  22
ATOM     21  C   UNL     1      -5.790   2.249 -21.030  0.00  0.00    +0.277 C 
ATOM     22  O   UNL     1      -4.536   2.216 -20.968  0.00  0.00    -0.491 OA
ENDBRANCH   1  22
BRANCH  16  23
ATOM     23  O   UNL     1       2.277   1.493 -21.716  0.00  0.00    -0.349 OA
ATOM     24  C   UNL     1       2.683   0.379 -22.125  0.00  0.00    +0.197 C 
ENDBRANCH  16  23
BRANCH  16  25
ATOM     25  O   UNL     1       0.849   1.280 -20.993  0.00  0.00    -0.349 OA
ATOM     26  C   UNL     1       1.493   1.492 -19.938  0.00  0.00    +0.197 C 
ENDBRANCH  16  25
TORSDOF 3
ENDMDL
MODEL 7
REMARK VINA RESULT:    -8.093      2.575      6.064
REMARK INTER + INTRA:          -5.383
REMARK INTER:                  -9.722
REMARK INTRA:                   4.339
REMARK UNBOUND:                 4.129
REMARK  Name = COc1ccc2c3c1O[C@@H]1C(OC)(OC)CC[C@@H]4[C@@H](C2)N(C)CC[C@@]341       ZINC000253505299
REMARK  7 active torsions:
REMARK  status: ('A' for Active; 'I' for Inactive)
REMARK    1  A    between atoms: C_1  and  O_2
REMARK    2  A    between atoms: O_2  and  C_3
REMARK    3  A    between atoms: C_11  and  O_12
REMARK    4  A    between atoms: C_11  and  O_14
REMARK    5  A    between atoms: O_12  and  C_13
REMARK    6  A    between atoms: O_14  and  C_15
REMARK    7  A    between atoms: N_21  and  C_22
REMARK                            x       y       z     vdW  Elec       q    Type
REMARK                         _______ _______ _______ _____ _____    ______ ____
ROOT
ATOM      1  C   UNL     1      -1.452   3.324 -23.340  0.00  0.00    +0.162 A 
ATOM      2  C   UNL     1      -1.562   4.553 -23.636  0.00  0.00    +0.050 A 
ATOM      3  C   UNL     1      -0.551   5.293 -23.669  0.00  0.00    +0.008 A 
ATOM      4  C   UNL     1       0.580   4.814 -23.406  0.00  0.00    -0.035 A 
ATOM      5  C   UNL     1       0.715   3.594 -23.108  0.00  0.00    +0.012 A 
ATOM      6  C   UNL     1       1.846   3.123 -22.847  0.00  0.00    +0.054 C 
ATOM      7  C   UNL     1       3.079   2.471 -22.531  0.00  0.00    +0.067 C 
ATOM      8  C   UNL     1       4.238   3.280 -22.560  0.00  0.00    +0.132 C 
ATOM      9  N   UNL     1       4.077   4.645 -22.895  0.00  0.00    +0.236 N 
ATOM     10  H   UNL     1       4.880   5.273 -22.930  0.00  0.00    +0.203 HD
ATOM     11  C   UNL     1       5.054   5.430 -22.943  0.00  0.00    +0.190 C 
ATOM     12  C   UNL     1       2.747   5.087 -23.176  0.00  0.00    +0.072 C 
ATOM     13  C   UNL     1       2.860   3.859 -22.879  0.00  0.00    +0.053 C 
ATOM     14  C   UNL     1       4.005   3.380 -22.614  0.00  0.00    +0.015 C 
ATOM     15  C   UNL     1       4.120   2.165 -22.320  0.00  0.00    +0.069 C 
ATOM     16  C   UNL     1       3.102   1.412 -22.285  0.00  0.00    +0.208 C 
ATOM     17  C   UNL     1       1.971   1.889 -22.548  0.00  0.00    +0.244 C 
ATOM     18  O   UNL     1       0.486   1.624 -22.688  0.00  0.00    -0.479 OA
ATOM     19  C   UNL     1       1.616   5.564 -23.438  0.00  0.00    +0.090 C 
ATOM     20  C   UNL     1      -0.305   2.844 -23.074  0.00  0.00    +0.167 A 
ENDROOT
BRANCH   1  22
ATOM     21  C   UNL     1      -3.546   3.025 -22.839  0.00  0.00    +0.277 C 
ATOM     22  O   UNL     1      -2.466   2.588 -23.308  0.00  0.00    -0.491 OA
ENDBRANCH   1  22
BRANCH  16  23
ATOM     23  O   UNL     1       3.992   0.583 -21.975  0.00  0.00    -0.349 OA
ATOM     24  C   UNL     1       4.158   0.261 -20.774  0.00  0.00    +0.197 C 
ENDBRANCH  16  23
BRANCH  16  25
ATOM     25  O   UNL     1       2.398   0.384 -22.145  0.00  0.00    -0.349 OA
ATOM     26  C   UNL     1       2.306  -0.448 -23.080  0.00  0.00    +0.197 C 
ENDBRANCH  16  25
TORSDOF 3
ENDMDL
MODEL 8
REMARK VINA RESULT:    -7.903      3.796      5.448
REMARK INTER + INTRA:          -5.159
REMARK INTER:                  -9.288
REMARK INTRA:                   4.129
REMARK UNBOUND:                 4.129
REMARK  Name = COc1ccc2c3c1O[C@@H]1C(OC)(OC)CC[C@@H]4[C@@H](C2)N(C)CC[C@@]341       ZINC000253505299
REMARK  7 active torsions:
REMARK  status: ('A' for Active; 'I' for Inactive)
REMARK    1  A    between atoms: C_1  and  O_2
REMARK    2  A    between atoms: O_2  and  C_3
REMARK    3  A    between atoms: C_11  and  O_12
REMARK    4  A    between atoms: C_11  and  O_14
REMARK    5  A    between atoms: O_12  and  C_13
REMARK    6  A    between atoms: O_14  and  C_15
REMARK    7  A    between atoms: N_21  and  C_22
REMARK                            x       y       z     vdW  Elec       q    Type
REMARK                         _______ _______ _______ _____ _____    ______ ____
ROOT
ATOM      1  C   UNL     1       4.384   6.778 -22.298  0.00  0.00    +0.162 A 
ATOM      2  C   UNL     1       5.558   6.297 -22.298  0.00  0.00    +0.050 A 
ATOM      3  C   UNL     1       5.765   5.124 -22.688  0.00  0.00    +0.008 A 
ATOM      4  C   UNL     1       4.804   4.420 -23.081  0.00  0.00    -0.035 A 
ATOM      5  C   UNL     1       3.626   4.875 -23.091  0.00  0.00    +0.012 A 
ATOM      6  C   UNL     1       2.671   4.167 -23.484  0.00  0.00    +0.054 C 
ATOM      7  C   UNL     1       1.504   3.458 -23.909  0.00  0.00    +0.067 C 
ATOM      8  C   UNL     1       1.706   2.132 -24.355  0.00  0.00    +0.132 C 
ATOM      9  N   UNL     1       3.028   1.630 -24.341  0.00  0.00    +0.236 N 
ATOM     10  H   UNL     1       3.231   0.679 -24.651  0.00  0.00    +0.203 HD
ATOM     11  C   UNL     1       3.294   0.464 -24.719  0.00  0.00    +0.190 C 
ATOM     12  C   UNL     1       4.049   2.515 -23.874  0.00  0.00    +0.072 C 
ATOM     13  C   UNL     1       2.874   2.993 -23.875  0.00  0.00    +0.053 C 
ATOM     14  C   UNL     1       1.905   2.277 -24.274  0.00  0.00    +0.015 C 
ATOM     15  C   UNL     1       0.741   2.746 -24.276  0.00  0.00    +0.069 C 
ATOM     16  C   UNL     1       0.524   3.931 -23.883  0.00  0.00    +0.208 C 
ATOM     17  C   UNL     1       1.485   4.637 -23.490  0.00  0.00    +0.244 C 
ATOM     18  O   UNL     1       1.931   5.978 -22.944  0.00  0.00    -0.479 OA
ATOM     19  C   UNL     1       5.009   3.221 -23.480  0.00  0.00    +0.090 C 
ATOM     20  C   UNL     1       3.413   6.061 -22.697  0.00  0.00    +0.167 A 
ENDROOT
BRANCH   1  22
ATOM     21  C   UNL     1       4.528   8.299 -20.752  0.00  0.00    +0.277 C 
ATOM     22  O   UNL     1       4.181   7.952 -21.907  0.00  0.00    -0.491 OA
ENDBRANCH   1  22
BRANCH  16  23
ATOM     23  O   UNL     1      -0.645   3.587 -24.178  0.00  0.00    -0.349 OA
ATOM     24  C   UNL     1      -1.102   3.830 -25.321  0.00  0.00    +0.197 C 
ENDBRANCH  16  23
BRANCH  16  25
ATOM     25  O   UNL     1      -0.089   4.986 -23.595  0.00  0.00    -0.349 OA
ATOM     26  C   UNL     1      -1.002   4.968 -22.735  0.00  0.00    +0.197 C 
ENDBRANCH  16  25
TORSDOF 3
ENDMDL
MODEL 9
REMARK VINA RESULT:    -7.599      3.496      7.451
REMARK INTER + INTRA:          -4.802
REMARK INTER:                  -8.851
REMARK INTRA:                   4.049
REMARK UNBOUND:                 4.129
REMARK  Name = COc1ccc2c3c1O[C@@H]1C(OC)(OC)CC[C@@H]4[C@@H](C2)N(C)CC[C@@]341       ZINC000253505299
REMARK  7 active torsions:
REMARK  status: ('A' for Active; 'I' for Inactive)
REMARK    1  A    between atoms: C_1  and  O_2
REMARK    2  A    between atoms: O_2  and  C_3
REMARK    3  A    between atoms: C_11  and  O_12
REMARK    4  A    between atoms: C_11  and  O_14
REMARK    5  A    between atoms: O_12  and  C_13
REMARK    6  A    between atoms: O_14  and  C_15
REMARK    7  A    between atoms: N_21  and  C_22
REMARK                            x       y       z     vdW  Elec       q    Type
REMARK                         _______ _______ _______ _____ _____    ______ ____
ROOT
ATOM      1  C   UNL     1       0.332   3.655 -23.404  0.00  0.00    +0.162 A 
ATOM      2  C   UNL     1      -0.312   2.627 -23.033  0.00  0.00    +0.050 A 
ATOM      3  C   UNL     1       0.278   1.674 -22.473  0.00  0.00    +0.008 A 
ATOM      4  C   UNL     1       1.517   1.737 -22.277  0.00  0.00    -0.035 A 
ATOM      5  C   UNL     1       2.180   2.749 -22.637  0.00  0.00    +0.012 A 
ATOM      6  C   UNL     1       3.415   2.806 -22.440  0.00  0.00    +0.054 C 
ATOM      7  C   UNL     1       4.824   2.986 -22.269  0.00  0.00    +0.067 C 
ATOM      8  C   UNL     1       5.518   1.927 -21.640  0.00  0.00    +0.132 C 
ATOM      9  N   UNL     1       4.767   0.797 -21.240  0.00  0.00    +0.236 N 
ATOM     10  H   UNL     1       5.217   0.005 -20.781  0.00  0.00    +0.203 HD
ATOM     11  C   UNL     1       5.305  -0.184 -20.675  0.00  0.00    +0.190 C 
ATOM     12  C   UNL     1       3.363   0.828 -21.510  0.00  0.00    +0.072 C 
ATOM     13  C   UNL     1       4.010   1.854 -21.880  0.00  0.00    +0.053 C 
ATOM     14  C   UNL     1       5.262   1.914 -21.680  0.00  0.00    +0.015 C 
ATOM     15  C   UNL     1       5.905   2.928 -22.045  0.00  0.00    +0.069 C 
ATOM     16  C   UNL     1       5.315   3.895 -22.612  0.00  0.00    +0.208 C 
ATOM     17  C   UNL     1       4.076   3.833 -22.808  0.00  0.00    +0.244 C 
ATOM     18  O   UNL     1       2.846   4.523 -23.359  0.00  0.00    -0.479 OA
ATOM     19  C   UNL     1       2.125   0.767 -21.706  0.00  0.00    +0.090 C 
ATOM     20  C   UNL     1       1.586   3.714 -23.204  0.00  0.00    +0.167 A 
ENDROOT
BRANCH   1  22
ATOM     21  C   UNL     1      -1.420   4.927 -23.598  0.00  0.00    +0.277 C 
ATOM     22  O   UNL     1      -0.262   4.606 -23.964  0.00  0.00    -0.491 OA
ENDBRANCH   1  22
BRANCH  16  23
ATOM     23  O   UNL     1       6.489   4.335 -22.607  0.00  0.00    -0.349 OA
ATOM     24  C   UNL     1       7.157   4.353 -23.669  0.00  0.00    +0.197 C 
ENDBRANCH  16  23
BRANCH  16  25
ATOM     25  O   UNL     1       5.131   5.002 -23.171  0.00  0.00    -0.349 OA
ATOM     26  C   UNL     1       5.335   6.067 -22.540  0.00  0.00    +0.197 C 
ENDBRANCH  16  25
TORSDOF 3
ENDMDL
