MODEL 1
REMARK VINA RESULT:   -11.896      0.000      0.000
REMARK INTER + INTRA:         -11.896
REMARK INTER:                 -11.896
REMARK INTRA:                   0.000
REMARK UNBOUND:                 0.000
REMARK  Name = CN1C2=C3N=c4ccccc4=C3CCN2C(=O)c2ccccc21                              ZINC000103550758
REMARK  1 active torsions:
REMARK  status: ('A' for Active; 'I' for Inactive)
REMARK    1  A    between atoms: C_1  and  N_2
REMARK                            x       y       z     vdW  Elec       q    Type
REMARK                         _______ _______ _______ _____ _____    ______ ____
ROOT
ATOM      1  C   UNL     1       0.065   1.502 -21.187  0.00  0.00    +0.151 C 
ATOM      2  N   UNL     1       0.532   1.948 -22.316  0.00  0.00    -0.328 N 
ATOM      3  C   UNL     1      -0.263   2.535 -23.162  0.00  0.00    +0.143 A 
ATOM      4  C   UNL     1      -1.524   2.675 -22.879  0.00  0.00    +0.109 C 
ATOM      5  N   UNL     1      -2.227   2.326 -21.842  0.00  0.00    -0.243 NA
ATOM      6  C   UNL     1      -3.456   2.697 -22.048  0.00  0.00    +0.072 A 
ATOM      7  C   UNL     1      -4.531   2.583 -21.325  0.00  0.00    +0.028 A 
ATOM      8  C   UNL     1      -5.663   3.047 -21.766  0.00  0.00    +0.002 A 
ATOM      9  C   UNL     1      -5.719   3.625 -22.929  0.00  0.00    +0.001 A 
ATOM     10  C   UNL     1      -4.644   3.739 -23.651  0.00  0.00    +0.010 A 
ATOM     11  C   UNL     1      -3.512   3.275 -23.210  0.00  0.00    +0.006 A 
ATOM     12  C   UNL     1      -2.318   3.261 -23.724  0.00  0.00    -0.008 C 
ATOM     13  C   UNL     1      -1.852   3.707 -24.852  0.00  0.00    +0.060 C 
ATOM     14  C   UNL     1      -0.591   3.567 -25.136  0.00  0.00    +0.131 C 
ATOM     15  N   UNL     1       0.204   2.981 -24.290  0.00  0.00    -0.292 N 
ATOM     16  C   UNL     1       1.465   2.840 -24.573  0.00  0.00    +0.262 A 
ATOM     17  C   UNL     1       2.259   2.254 -23.727  0.00  0.00    +0.063 A 
ATOM     18  C   UNL     1       3.521   2.113 -24.010  0.00  0.00    +0.015 A 
ATOM     19  C   UNL     1       4.314   1.526 -23.164  0.00  0.00    +0.001 A 
ATOM     20  C   UNL     1       3.848   1.081 -22.037  0.00  0.00    +0.002 A 
ATOM     21  C   UNL     1       2.587   1.221 -21.754  0.00  0.00    +0.026 A 
ATOM     22  O   UNL     1       1.931   3.286 -25.701  0.00  0.00    -0.267 OA
ATOM     23  C   UNL     1       1.793   1.807 -22.599  0.00  0.00    +0.056 A 
ENDROOT
TORSDOF 0
ENDMDL
MODEL 2
REMARK VINA RESULT:   -11.325      1.681      2.836
REMARK INTER + INTRA:         -11.325
REMARK INTER:                 -11.325
REMARK INTRA:                   0.000
REMARK UNBOUND:                 0.000
REMARK  Name = CN1C2=C3N=c4ccccc4=C3CCN2C(=O)c2ccccc21                              ZINC000103550758
REMARK  1 active torsions:
REMARK  status: ('A' for Active; 'I' for Inactive)
REMARK    1  A    between atoms: C_1  and  N_2
REMARK                            x       y       z     vdW  Elec       q    Type
REMARK                         _______ _______ _______ _____ _____    ______ ____
ROOT
ATOM      1  C   UNL     1       1.115   3.967 -24.756  0.00  0.00    +0.151 C 
ATOM      2  N   UNL     1       1.278   3.271 -23.670  0.00  0.00    -0.328 N 
ATOM      3  C   UNL     1       0.245   2.918 -22.963  0.00  0.00    +0.143 A 
ATOM      4  C   UNL     1      -0.950   3.262 -23.342  0.00  0.00    +0.109 C 
ATOM      5  N   UNL     1      -1.376   3.942 -24.365  0.00  0.00    -0.243 NA
ATOM      6  C   UNL     1      -2.672   4.010 -24.290  0.00  0.00    +0.072 A 
ATOM      7  C   UNL     1      -3.559   4.571 -25.058  0.00  0.00    +0.028 A 
ATOM      8  C   UNL     1      -4.822   4.493 -24.756  0.00  0.00    +0.002 A 
ATOM      9  C   UNL     1      -5.196   3.856 -23.687  0.00  0.00    +0.001 A 
ATOM     10  C   UNL     1      -4.309   3.296 -22.920  0.00  0.00    +0.010 A 
ATOM     11  C   UNL     1      -3.047   3.373 -23.221  0.00  0.00    +0.006 A 
ATOM     12  C   UNL     1      -1.982   2.911 -22.635  0.00  0.00    -0.008 C 
ATOM     13  C   UNL     1      -1.820   2.215 -21.549  0.00  0.00    +0.060 C 
ATOM     14  C   UNL     1      -0.625   1.871 -21.170  0.00  0.00    +0.131 C 
ATOM     15  N   UNL     1       0.408   2.223 -21.877  0.00  0.00    -0.292 N 
ATOM     16  C   UNL     1       1.603   1.879 -21.498  0.00  0.00    +0.262 A 
ATOM     17  C   UNL     1       2.635   2.231 -22.205  0.00  0.00    +0.063 A 
ATOM     18  C   UNL     1       3.831   1.887 -21.826  0.00  0.00    +0.015 A 
ATOM     19  C   UNL     1       4.863   2.239 -22.533  0.00  0.00    +0.001 A 
ATOM     20  C   UNL     1       4.700   2.935 -23.618  0.00  0.00    +0.002 A 
ATOM     21  C   UNL     1       3.505   3.279 -23.998  0.00  0.00    +0.026 A 
ATOM     22  O   UNL     1       1.765   1.183 -20.412  0.00  0.00    -0.267 OA
ATOM     23  C   UNL     1       2.473   2.927 -23.291  0.00  0.00    +0.056 A 
ENDROOT
TORSDOF 0
ENDMDL
MODEL 3
REMARK VINA RESULT:   -11.318      1.362      6.121
REMARK INTER + INTRA:         -11.318
REMARK INTER:                 -11.318
REMARK INTRA:                   0.000
REMARK UNBOUND:                 0.000
REMARK  Name = CN1C2=C3N=c4ccccc4=C3CCN2C(=O)c2ccccc21                              ZINC000103550758
REMARK  1 active torsions:
REMARK  status: ('A' for Active; 'I' for Inactive)
REMARK    1  A    between atoms: C_1  and  N_2
REMARK                            x       y       z     vdW  Elec       q    Type
REMARK                         _______ _______ _______ _____ _____    ______ ____
ROOT
ATOM      1  C   UNL     1      -1.716   2.221 -21.236  0.00  0.00    +0.151 C 
ATOM      2  N   UNL     1      -2.106   2.728 -22.369  0.00  0.00    -0.328 N 
ATOM      3  C   UNL     1      -1.238   2.958 -23.311  0.00  0.00    +0.143 A 
ATOM      4  C   UNL     1       0.017   2.682 -23.119  0.00  0.00    +0.109 C 
ATOM      5  N   UNL     1       0.653   2.181 -22.101  0.00  0.00    -0.243 NA
ATOM      6  C   UNL     1       1.912   2.101 -22.413  0.00  0.00    +0.072 A 
ATOM      7  C   UNL     1       2.947   1.676 -21.751  0.00  0.00    +0.028 A 
ATOM      8  C   UNL     1       4.126   1.702 -22.299  0.00  0.00    +0.002 A 
ATOM      9  C   UNL     1       4.268   2.154 -23.510  0.00  0.00    +0.001 A 
ATOM     10  C   UNL     1       3.234   2.579 -24.171  0.00  0.00    +0.010 A 
ATOM     11  C   UNL     1       2.055   2.553 -23.623  0.00  0.00    +0.006 A 
ATOM     12  C   UNL     1       0.884   2.912 -24.059  0.00  0.00    -0.008 C 
ATOM     13  C   UNL     1       0.496   3.418 -25.192  0.00  0.00    +0.060 C 
ATOM     14  C   UNL     1      -0.760   3.694 -25.384  0.00  0.00    +0.131 C 
ATOM     15  N   UNL     1      -1.627   3.464 -24.443  0.00  0.00    -0.292 N 
ATOM     16  C   UNL     1      -2.883   3.741 -24.634  0.00  0.00    +0.262 A 
ATOM     17  C   UNL     1      -3.749   3.511 -23.693  0.00  0.00    +0.063 A 
ATOM     18  C   UNL     1      -5.006   3.787 -23.885  0.00  0.00    +0.015 A 
ATOM     19  C   UNL     1      -5.872   3.557 -22.943  0.00  0.00    +0.001 A 
ATOM     20  C   UNL     1      -5.484   3.051 -21.812  0.00  0.00    +0.002 A 
ATOM     21  C   UNL     1      -4.228   2.774 -21.620  0.00  0.00    +0.026 A 
ATOM     22  O   UNL     1      -3.272   4.247 -25.766  0.00  0.00    -0.267 OA
ATOM     23  C   UNL     1      -3.361   3.004 -22.561  0.00  0.00    +0.056 A 
ENDROOT
TORSDOF 0
ENDMDL
MODEL 4
REMARK VINA RESULT:   -11.272      1.796      6.624
REMARK INTER + INTRA:         -11.272
REMARK INTER:                 -11.272
REMARK INTRA:                   0.000
REMARK UNBOUND:                 0.000
REMARK  Name = CN1C2=C3N=c4ccccc4=C3CCN2C(=O)c2ccccc21                              ZINC000103550758
REMARK  1 active torsions:
REMARK  status: ('A' for Active; 'I' for Inactive)
REMARK    1  A    between atoms: C_1  and  N_2
REMARK                            x       y       z     vdW  Elec       q    Type
REMARK                         _______ _______ _______ _____ _____    ______ ____
ROOT
ATOM      1  C   UNL     1      -1.020   3.393 -25.231  0.00  0.00    +0.151 C 
ATOM      2  N   UNL     1      -1.726   3.146 -24.168  0.00  0.00    -0.328 N 
ATOM      3  C   UNL     1      -1.171   2.583 -23.135  0.00  0.00    +0.143 A 
ATOM      4  C   UNL     1       0.089   2.266 -23.167  0.00  0.00    +0.109 C 
ATOM      5  N   UNL     1       0.998   2.403 -24.087  0.00  0.00    -0.243 NA
ATOM      6  C   UNL     1       2.113   1.923 -23.623  0.00  0.00    +0.072 A 
ATOM      7  C   UNL     1       3.301   1.825 -24.145  0.00  0.00    +0.028 A 
ATOM      8  C   UNL     1       4.270   1.294 -23.459  0.00  0.00    +0.002 A 
ATOM      9  C   UNL     1       4.051   0.862 -22.253  0.00  0.00    +0.001 A 
ATOM     10  C   UNL     1       2.864   0.960 -21.732  0.00  0.00    +0.010 A 
ATOM     11  C   UNL     1       1.895   1.491 -22.418  0.00  0.00    +0.006 A 
ATOM     12  C   UNL     1       0.644   1.703 -22.135  0.00  0.00    -0.008 C 
ATOM     13  C   UNL     1      -0.062   1.456 -21.072  0.00  0.00    +0.060 C 
ATOM     14  C   UNL     1      -1.323   1.772 -21.040  0.00  0.00    +0.131 C 
ATOM     15  N   UNL     1      -1.878   2.335 -22.072  0.00  0.00    -0.292 N 
ATOM     16  C   UNL     1      -3.138   2.652 -22.042  0.00  0.00    +0.262 A 
ATOM     17  C   UNL     1      -3.692   3.215 -23.073  0.00  0.00    +0.063 A 
ATOM     18  C   UNL     1      -4.953   3.531 -23.042  0.00  0.00    +0.015 A 
ATOM     19  C   UNL     1      -5.507   4.095 -24.074  0.00  0.00    +0.001 A 
ATOM     20  C   UNL     1      -4.802   4.342 -25.136  0.00  0.00    +0.002 A 
ATOM     21  C   UNL     1      -3.541   4.026 -25.168  0.00  0.00    +0.026 A 
ATOM     22  O   UNL     1      -3.844   2.405 -20.979  0.00  0.00    -0.267 OA
ATOM     23  C   UNL     1      -2.987   3.462 -24.137  0.00  0.00    +0.056 A 
ENDROOT
TORSDOF 0
ENDMDL
MODEL 5
REMARK VINA RESULT:   -10.108      1.848      6.682
REMARK INTER + INTRA:         -10.108
REMARK INTER:                 -10.108
REMARK INTRA:                   0.000
REMARK UNBOUND:                 0.000
REMARK  Name = CN1C2=C3N=c4ccccc4=C3CCN2C(=O)c2ccccc21                              ZINC000103550758
REMARK  1 active torsions:
REMARK  status: ('A' for Active; 'I' for Inactive)
REMARK    1  A    between atoms: C_1  and  N_2
REMARK                            x       y       z     vdW  Elec       q    Type
REMARK                         _______ _______ _______ _____ _____    ______ ____
ROOT
ATOM      1  C   UNL     1       0.227   4.135 -24.838  0.00  0.00    +0.151 C 
ATOM      2  N   UNL     1      -0.521   3.555 -23.947  0.00  0.00    -0.328 N 
ATOM      3  C   UNL     1       0.024   2.876 -22.982  0.00  0.00    +0.143 A 
ATOM      4  C   UNL     1       1.319   2.777 -22.908  0.00  0.00    +0.109 C 
ATOM      5  N   UNL     1       2.271   3.250 -23.654  0.00  0.00    -0.243 NA
ATOM      6  C   UNL     1       3.406   2.864 -23.151  0.00  0.00    +0.072 A 
ATOM      7  C   UNL     1       4.636   3.070 -23.520  0.00  0.00    +0.028 A 
ATOM      8  C   UNL     1       5.615   2.562 -22.830  0.00  0.00    +0.002 A 
ATOM      9  C   UNL     1       5.363   1.850 -21.773  0.00  0.00    +0.001 A 
ATOM     10  C   UNL     1       4.133   1.645 -21.404  0.00  0.00    +0.010 A 
ATOM     11  C   UNL     1       3.154   2.152 -22.094  0.00  0.00    +0.006 A 
ATOM     12  C   UNL     1       1.864   2.098 -21.943  0.00  0.00    -0.008 C 
ATOM     13  C   UNL     1       1.116   1.518 -21.052  0.00  0.00    +0.060 C 
ATOM     14  C   UNL     1      -0.178   1.617 -21.126  0.00  0.00    +0.131 C 
ATOM     15  N   UNL     1      -0.724   2.296 -22.091  0.00  0.00    -0.292 N 
ATOM     16  C   UNL     1      -2.018   2.396 -22.165  0.00  0.00    +0.262 A 
ATOM     17  C   UNL     1      -2.563   3.074 -23.130  0.00  0.00    +0.063 A 
ATOM     18  C   UNL     1      -3.858   3.174 -23.204  0.00  0.00    +0.015 A 
ATOM     19  C   UNL     1      -4.403   3.853 -24.169  0.00  0.00    +0.001 A 
ATOM     20  C   UNL     1      -3.655   4.432 -25.059  0.00  0.00    +0.002 A 
ATOM     21  C   UNL     1      -2.361   4.333 -24.985  0.00  0.00    +0.026 A 
ATOM     22  O   UNL     1      -2.766   1.816 -21.274  0.00  0.00    -0.267 OA
ATOM     23  C   UNL     1      -1.815   3.654 -24.021  0.00  0.00    +0.056 A 
ENDROOT
TORSDOF 0
ENDMDL
MODEL 6
REMARK VINA RESULT:    -9.184      2.490      7.184
REMARK INTER + INTRA:          -9.184
REMARK INTER:                  -9.184
REMARK INTRA:                   0.000
REMARK UNBOUND:                 0.000
REMARK  Name = CN1C2=C3N=c4ccccc4=C3CCN2C(=O)c2ccccc21                              ZINC000103550758
REMARK  1 active torsions:
REMARK  status: ('A' for Active; 'I' for Inactive)
REMARK    1  A    between atoms: C_1  and  N_2
REMARK                            x       y       z     vdW  Elec       q    Type
REMARK                         _______ _______ _______ _____ _____    ______ ____
ROOT
ATOM      1  C   UNL     1       1.490   5.392 -23.632  0.00  0.00    +0.151 C 
ATOM      2  N   UNL     1       1.088   4.215 -23.255  0.00  0.00    -0.328 N 
ATOM      3  C   UNL     1       1.952   3.328 -22.860  0.00  0.00    +0.143 A 
ATOM      4  C   UNL     1       3.219   3.618 -22.842  0.00  0.00    +0.109 C 
ATOM      5  N   UNL     1       3.869   4.698 -23.162  0.00  0.00    -0.243 NA
ATOM      6  C   UNL     1       5.135   4.478 -22.965  0.00  0.00    +0.072 A 
ATOM      7  C   UNL     1       6.184   5.229 -23.130  0.00  0.00    +0.028 A 
ATOM      8  C   UNL     1       7.366   4.764 -22.854  0.00  0.00    +0.002 A 
ATOM      9  C   UNL     1       7.499   3.548 -22.413  0.00  0.00    +0.001 A 
ATOM     10  C   UNL     1       6.450   2.798 -22.248  0.00  0.00    +0.010 A 
ATOM     11  C   UNL     1       5.268   3.264 -22.524  0.00  0.00    +0.006 A 
ATOM     12  C   UNL     1       4.084   2.732 -22.448  0.00  0.00    -0.008 C 
ATOM     13  C   UNL     1       3.682   1.554 -22.071  0.00  0.00    +0.060 C 
ATOM     14  C   UNL     1       2.415   1.264 -22.088  0.00  0.00    +0.131 C 
ATOM     15  N   UNL     1       1.550   2.151 -22.483  0.00  0.00    -0.292 N 
ATOM     16  C   UNL     1       0.283   1.861 -22.500  0.00  0.00    +0.262 A 
ATOM     17  C   UNL     1      -0.581   2.747 -22.894  0.00  0.00    +0.063 A 
ATOM     18  C   UNL     1      -1.849   2.457 -22.912  0.00  0.00    +0.015 A 
ATOM     19  C   UNL     1      -2.713   3.344 -23.307  0.00  0.00    +0.001 A 
ATOM     20  C   UNL     1      -2.311   4.521 -23.683  0.00  0.00    +0.002 A 
ATOM     21  C   UNL     1      -1.044   4.811 -23.666  0.00  0.00    +0.026 A 
ATOM     22  O   UNL     1      -0.120   0.684 -22.123  0.00  0.00    -0.267 OA
ATOM     23  C   UNL     1      -0.179   3.925 -23.272  0.00  0.00    +0.056 A 
ENDROOT
TORSDOF 0
ENDMDL
MODEL 7
REMARK VINA RESULT:    -8.935      1.885      6.452
REMARK INTER + INTRA:          -8.935
REMARK INTER:                  -8.935
REMARK INTRA:                   0.000
REMARK UNBOUND:                 0.000
REMARK  Name = CN1C2=C3N=c4ccccc4=C3CCN2C(=O)c2ccccc21                              ZINC000103550758
REMARK  1 active torsions:
REMARK  status: ('A' for Active; 'I' for Inactive)
REMARK    1  A    between atoms: C_1  and  N_2
REMARK                            x       y       z     vdW  Elec       q    Type
REMARK                         _______ _______ _______ _____ _____    ______ ____
ROOT
ATOM      1  C   UNL     1       0.432   1.387 -21.387  0.00  0.00    +0.151 C 
ATOM      2  N   UNL     1      -0.001   2.453 -21.992  0.00  0.00    -0.328 N 
ATOM      3  C   UNL     1       0.839   3.255 -22.577  0.00  0.00    +0.143 A 
ATOM      4  C   UNL     1       2.112   2.989 -22.558  0.00  0.00    +0.109 C 
ATOM      5  N   UNL     1       2.788   2.010 -22.034  0.00  0.00    -0.243 NA
ATOM      6  C   UNL     1       4.046   2.207 -22.296  0.00  0.00    +0.072 A 
ATOM      7  C   UNL     1       5.113   1.525 -21.998  0.00  0.00    +0.028 A 
ATOM      8  C   UNL     1       6.281   1.944 -22.386  0.00  0.00    +0.002 A 
ATOM      9  C   UNL     1       6.382   3.044 -23.071  0.00  0.00    +0.001 A 
ATOM     10  C   UNL     1       5.316   3.725 -23.368  0.00  0.00    +0.010 A 
ATOM     11  C   UNL     1       4.147   3.306 -22.980  0.00  0.00    +0.006 A 
ATOM     12  C   UNL     1       2.952   3.790 -23.142  0.00  0.00    -0.008 C 
ATOM     13  C   UNL     1       2.520   4.857 -23.747  0.00  0.00    +0.060 C 
ATOM     14  C   UNL     1       1.247   5.122 -23.767  0.00  0.00    +0.131 C 
ATOM     15  N   UNL     1       0.407   4.321 -23.182  0.00  0.00    -0.292 N 
ATOM     16  C   UNL     1      -0.865   4.586 -23.201  0.00  0.00    +0.262 A 
ATOM     17  C   UNL     1      -1.705   3.786 -22.616  0.00  0.00    +0.063 A 
ATOM     18  C   UNL     1      -2.978   4.051 -22.636  0.00  0.00    +0.015 A 
ATOM     19  C   UNL     1      -3.818   3.249 -22.050  0.00  0.00    +0.001 A 
ATOM     20  C   UNL     1      -3.386   2.184 -21.446  0.00  0.00    +0.002 A 
ATOM     21  C   UNL     1      -2.113   1.918 -21.427  0.00  0.00    +0.026 A 
ATOM     22  O   UNL     1      -1.298   5.653 -23.806  0.00  0.00    -0.267 OA
ATOM     23  C   UNL     1      -1.273   2.719 -22.011  0.00  0.00    +0.056 A 
ENDROOT
TORSDOF 0
ENDMDL
