MODEL 1
REMARK VINA RESULT:    -8.719      0.000      0.000
REMARK INTER + INTRA:          -8.906
REMARK INTER:                  -9.224
REMARK INTRA:                   0.319
REMARK UNBOUND:                 0.323
REMARK  Name = ZINC000000900237
REMARK  2 active torsions:
REMARK  status: ('A' for Active; 'I' for Inactive)
REMARK    1  A    between atoms: C_1  and  O_2
REMARK    2  A    between atoms: O_2  and  C_3
REMARK                            x       y       z     vdW  Elec       q    Type
REMARK                         _______ _______ _______ _____ _____    ______ ____
ROOT
ATOM      1  C   UNL     1      -2.374   3.339 -23.610  0.00  0.00    +0.142 A 
ATOM      2  C   UNL     1      -1.372   2.764 -23.012  0.00  0.00    +0.047 A 
ATOM      3  C   UNL     1      -0.189   2.797 -23.549  0.00  0.00    +0.063 A 
ATOM      4  C   UNL     1       0.812   2.223 -22.951  0.00  0.00    +0.167 A 
ATOM      5  C   UNL     1       0.630   1.616 -21.815  0.00  0.00    +0.168 A 
ATOM      6  O   UNL     1       1.773   1.131 -21.431  0.00  0.00    -0.453 OA
ATOM      7  C   UNL     1       2.662   1.438 -22.329  0.00  0.00    +0.466 C 
ATOM      8  C   UNL     1      -0.553   1.584 -21.278  0.00  0.00    +0.078 A 
ATOM      9  O   UNL     1       2.067   2.113 -23.268  0.00  0.00    -0.453 OA
ATOM     10  C   UNL     1      -1.555   2.158 -21.876  0.00  0.00    +0.082 A 
ATOM     11  N   UNL     1      -2.738   2.126 -21.339  0.00  0.00    -0.212 NA
ATOM     12  C   UNL     1      -3.739   2.700 -21.938  0.00  0.00    +0.231 A 
ATOM     13  O   UNL     1      -4.996   2.810 -21.620  0.00  0.00    -0.445 OA
ATOM     14  C   UNL     1      -5.589   3.484 -22.559  0.00  0.00    +0.198 A 
ATOM     15  C   UNL     1      -4.701   3.791 -23.457  0.00  0.00    +0.055 A 
ATOM     16  C   UNL     1      -3.557   3.306 -23.073  0.00  0.00    +0.082 A 
ENDROOT
BRANCH   1  18
ATOM     17  C   UNL     1      -2.491   3.344 -25.858  0.00  0.00    +0.277 C 
ATOM     18  O   UNL     1      -2.192   3.945 -24.745  0.00  0.00    -0.494 OA
ENDBRANCH   1  18
TORSDOF 1
ENDMDL
MODEL 2
REMARK VINA RESULT:    -8.650      1.285      2.590
REMARK INTER + INTRA:          -8.832
REMARK INTER:                  -9.188
REMARK INTRA:                   0.356
REMARK UNBOUND:                 0.323
REMARK  Name = ZINC000000900237
REMARK  2 active torsions:
REMARK  status: ('A' for Active; 'I' for Inactive)
REMARK    1  A    between atoms: C_1  and  O_2
REMARK    2  A    between atoms: O_2  and  C_3
REMARK                            x       y       z     vdW  Elec       q    Type
REMARK                         _______ _______ _______ _____ _____    ______ ____
ROOT
ATOM      1  C   UNL     1      -2.937   2.834 -22.168  0.00  0.00    +0.142 A 
ATOM      2  C   UNL     1      -1.684   2.568 -22.392  0.00  0.00    +0.047 A 
ATOM      3  C   UNL     1      -0.934   2.114 -21.431  0.00  0.00    +0.063 A 
ATOM      4  C   UNL     1       0.318   1.849 -21.656  0.00  0.00    +0.167 A 
ATOM      5  C   UNL     1       0.821   2.037 -22.840  0.00  0.00    +0.168 A 
ATOM      6  O   UNL     1       2.076   1.700 -22.802  0.00  0.00    -0.453 OA
ATOM      7  C   UNL     1       2.349   1.304 -21.594  0.00  0.00    +0.466 C 
ATOM      8  C   UNL     1       0.071   2.490 -23.799  0.00  0.00    +0.078 A 
ATOM      9  O   UNL     1       1.262   1.396 -20.885  0.00  0.00    -0.453 OA
ATOM     10  C   UNL     1      -1.182   2.756 -23.576  0.00  0.00    +0.082 A 
ATOM     11  N   UNL     1      -1.931   3.210 -24.536  0.00  0.00    -0.212 NA
ATOM     12  C   UNL     1      -3.184   3.475 -24.312  0.00  0.00    +0.231 A 
ATOM     13  O   UNL     1      -4.129   3.928 -25.082  0.00  0.00    -0.445 OA
ATOM     14  C   UNL     1      -5.214   4.020 -24.375  0.00  0.00    +0.198 A 
ATOM     15  C   UNL     1      -4.942   3.624 -23.167  0.00  0.00    +0.055 A 
ATOM     16  C   UNL     1      -3.687   3.287 -23.128  0.00  0.00    +0.082 A 
ENDROOT
BRANCH   1  18
ATOM     17  C   UNL     1      -3.363   3.584 -20.089  0.00  0.00    +0.277 C 
ATOM     18  O   UNL     1      -3.440   2.646 -20.984  0.00  0.00    -0.494 OA
ENDBRANCH   1  18
TORSDOF 1
ENDMDL
MODEL 3
REMARK VINA RESULT:    -8.494      1.187      5.054
REMARK INTER + INTRA:          -8.667
REMARK INTER:                  -8.986
REMARK INTRA:                   0.319
REMARK UNBOUND:                 0.323
REMARK  Name = ZINC000000900237
REMARK  2 active torsions:
REMARK  status: ('A' for Active; 'I' for Inactive)
REMARK    1  A    between atoms: C_1  and  O_2
REMARK    2  A    between atoms: O_2  and  C_3
REMARK                            x       y       z     vdW  Elec       q    Type
REMARK                         _______ _______ _______ _____ _____    ______ ____
ROOT
ATOM      1  C   UNL     1       0.011   2.571 -23.622  0.00  0.00    +0.142 A 
ATOM      2  C   UNL     1      -1.215   2.701 -23.208  0.00  0.00    +0.047 A 
ATOM      3  C   UNL     1      -2.114   3.219 -23.992  0.00  0.00    +0.063 A 
ATOM      4  C   UNL     1      -3.339   3.348 -23.577  0.00  0.00    +0.167 A 
ATOM      5  C   UNL     1      -3.666   2.961 -22.380  0.00  0.00    +0.168 A 
ATOM      6  O   UNL     1      -4.933   3.196 -22.213  0.00  0.00    -0.453 OA
ATOM      7  C   UNL     1      -5.390   3.730 -23.307  0.00  0.00    +0.466 C 
ATOM      8  C   UNL     1      -2.767   2.443 -21.597  0.00  0.00    +0.078 A 
ATOM      9  O   UNL     1      -4.405   3.824 -24.150  0.00  0.00    -0.453 OA
ATOM     10  C   UNL     1      -1.541   2.313 -22.011  0.00  0.00    +0.082 A 
ATOM     11  N   UNL     1      -0.642   1.795 -21.228  0.00  0.00    -0.212 NA
ATOM     12  C   UNL     1       0.584   1.666 -21.642  0.00  0.00    +0.231 A 
ATOM     13  O   UNL     1       1.650   1.190 -21.069  0.00  0.00    -0.445 OA
ATOM     14  C   UNL     1       2.634   1.284 -21.912  0.00  0.00    +0.198 A 
ATOM     15  C   UNL     1       2.178   1.818 -23.006  0.00  0.00    +0.055 A 
ATOM     16  C   UNL     1       0.910   2.054 -22.839  0.00  0.00    +0.082 A 
ENDROOT
BRANCH   1  18
ATOM     17  C   UNL     1       0.921   4.107 -24.994  0.00  0.00    +0.277 C 
ATOM     18  O   UNL     1       0.337   2.959 -24.819  0.00  0.00    -0.494 OA
ENDBRANCH   1  18
TORSDOF 1
ENDMDL
MODEL 4
REMARK VINA RESULT:    -8.070      1.834      5.598
REMARK INTER + INTRA:          -8.219
REMARK INTER:                  -8.541
REMARK INTRA:                   0.322
REMARK UNBOUND:                 0.323
REMARK  Name = ZINC000000900237
REMARK  2 active torsions:
REMARK  status: ('A' for Active; 'I' for Inactive)
REMARK    1  A    between atoms: C_1  and  O_2
REMARK    2  A    between atoms: O_2  and  C_3
REMARK                            x       y       z     vdW  Elec       q    Type
REMARK                         _______ _______ _______ _____ _____    ______ ____
ROOT
ATOM      1  C   UNL     1      -0.451   2.880 -22.929  0.00  0.00    +0.142 A 
ATOM      2  C   UNL     1      -1.706   3.113 -23.181  0.00  0.00    +0.047 A 
ATOM      3  C   UNL     1      -2.599   2.931 -22.254  0.00  0.00    +0.063 A 
ATOM      4  C   UNL     1      -3.853   3.164 -22.507  0.00  0.00    +0.167 A 
ATOM      5  C   UNL     1      -4.214   3.578 -23.685  0.00  0.00    +0.168 A 
ATOM      6  O   UNL     1      -5.504   3.734 -23.679  0.00  0.00    -0.453 OA
ATOM      7  C   UNL     1      -5.941   3.416 -22.496  0.00  0.00    +0.466 C 
ATOM      8  C   UNL     1      -3.320   3.760 -24.611  0.00  0.00    +0.078 A 
ATOM      9  O   UNL     1      -4.921   3.063 -21.772  0.00  0.00    -0.453 OA
ATOM     10  C   UNL     1      -2.066   3.528 -24.360  0.00  0.00    +0.082 A 
ATOM     11  N   UNL     1      -1.172   3.710 -25.286  0.00  0.00    -0.212 NA
ATOM     12  C   UNL     1       0.081   3.477 -25.034  0.00  0.00    +0.231 A 
ATOM     13  O   UNL     1       1.150   3.577 -25.769  0.00  0.00    -0.445 OA
ATOM     14  C   UNL     1       2.170   3.225 -25.045  0.00  0.00    +0.198 A 
ATOM     15  C   UNL     1       1.733   2.906 -23.863  0.00  0.00    +0.055 A 
ATOM     16  C   UNL     1       0.442   3.062 -23.855  0.00  0.00    +0.082 A 
ENDROOT
BRANCH   1  18
ATOM     17  C   UNL     1       0.030   1.192 -21.520  0.00  0.00    +0.277 C 
ATOM     18  O   UNL     1      -0.091   2.465 -21.751  0.00  0.00    -0.494 OA
ENDBRANCH   1  18
TORSDOF 1
ENDMDL
MODEL 5
REMARK VINA RESULT:    -7.872      1.837      3.186
REMARK INTER + INTRA:          -8.008
REMARK INTER:                  -8.346
REMARK INTRA:                   0.337
REMARK UNBOUND:                 0.323
REMARK  Name = ZINC000000900237
REMARK  2 active torsions:
REMARK  status: ('A' for Active; 'I' for Inactive)
REMARK    1  A    between atoms: C_1  and  O_2
REMARK    2  A    between atoms: O_2  and  C_3
REMARK                            x       y       z     vdW  Elec       q    Type
REMARK                         _______ _______ _______ _____ _____    ______ ____
ROOT
ATOM      1  C   UNL     1      -1.255   2.361 -22.730  0.00  0.00    +0.142 A 
ATOM      2  C   UNL     1       0.024   2.132 -22.659  0.00  0.00    +0.047 A 
ATOM      3  C   UNL     1       0.530   1.606 -21.583  0.00  0.00    +0.063 A 
ATOM      4  C   UNL     1       1.808   1.378 -21.512  0.00  0.00    +0.167 A 
ATOM      5  C   UNL     1       2.578   1.675 -22.516  0.00  0.00    +0.168 A 
ATOM      6  O   UNL     1       3.797   1.353 -22.198  0.00  0.00    -0.453 OA
ATOM      7  C   UNL     1       3.779   0.856 -20.996  0.00  0.00    +0.466 C 
ATOM      8  C   UNL     1       2.071   2.201 -23.591  0.00  0.00    +0.078 A 
ATOM      9  O   UNL     1       2.550   0.872 -20.573  0.00  0.00    -0.453 OA
ATOM     10  C   UNL     1       0.793   2.430 -23.663  0.00  0.00    +0.082 A 
ATOM     11  N   UNL     1       0.286   2.956 -24.738  0.00  0.00    -0.212 NA
ATOM     12  C   UNL     1      -0.992   3.184 -24.809  0.00  0.00    +0.231 A 
ATOM     13  O   UNL     1      -1.734   3.691 -25.749  0.00  0.00    -0.445 OA
ATOM     14  C   UNL     1      -2.962   3.706 -25.326  0.00  0.00    +0.198 A 
ATOM     15  C   UNL     1      -2.980   3.210 -24.125  0.00  0.00    +0.055 A 
ATOM     16  C   UNL     1      -1.762   2.887 -23.805  0.00  0.00    +0.082 A 
ENDROOT
BRANCH   1  18
ATOM     17  C   UNL     1      -2.495   3.008 -20.966  0.00  0.00    +0.277 C 
ATOM     18  O   UNL     1      -2.025   2.064 -21.726  0.00  0.00    -0.494 OA
ENDBRANCH   1  18
TORSDOF 1
ENDMDL
MODEL 6
REMARK VINA RESULT:    -7.775      2.374      3.652
REMARK INTER + INTRA:          -7.906
REMARK INTER:                  -8.224
REMARK INTRA:                   0.319
REMARK UNBOUND:                 0.323
REMARK  Name = ZINC000000900237
REMARK  2 active torsions:
REMARK  status: ('A' for Active; 'I' for Inactive)
REMARK    1  A    between atoms: C_1  and  O_2
REMARK    2  A    between atoms: O_2  and  C_3
REMARK                            x       y       z     vdW  Elec       q    Type
REMARK                         _______ _______ _______ _____ _____    ______ ____
ROOT
ATOM      1  C   UNL     1      -0.179   2.653 -23.095  0.00  0.00    +0.142 A 
ATOM      2  C   UNL     1       0.948   3.300 -23.136  0.00  0.00    +0.047 A 
ATOM      3  C   UNL     1       2.048   2.714 -22.766  0.00  0.00    +0.063 A 
ATOM      4  C   UNL     1       3.174   3.361 -22.808  0.00  0.00    +0.167 A 
ATOM      5  C   UNL     1       3.201   4.595 -23.218  0.00  0.00    +0.168 A 
ATOM      6  O   UNL     1       4.431   5.010 -23.164  0.00  0.00    -0.453 OA
ATOM      7  C   UNL     1       5.166   4.032 -22.721  0.00  0.00    +0.466 C 
ATOM      8  C   UNL     1       2.101   5.180 -23.587  0.00  0.00    +0.078 A 
ATOM      9  O   UNL     1       4.388   3.014 -22.500  0.00  0.00    -0.453 OA
ATOM     10  C   UNL     1       0.974   4.534 -23.547  0.00  0.00    +0.082 A 
ATOM     11  N   UNL     1      -0.126   5.119 -23.916  0.00  0.00    -0.212 NA
ATOM     12  C   UNL     1      -1.252   4.472 -23.875  0.00  0.00    +0.231 A 
ATOM     13  O   UNL     1      -2.467   4.820 -24.182  0.00  0.00    -0.445 OA
ATOM     14  C   UNL     1      -3.244   3.802 -23.962  0.00  0.00    +0.198 A 
ATOM     15  C   UNL     1      -2.511   2.825 -23.518  0.00  0.00    +0.055 A 
ATOM     16  C   UNL     1      -1.279   3.239 -23.465  0.00  0.00    +0.082 A 
ENDROOT
BRANCH   1  18
ATOM     17  C   UNL     1      -0.546   1.150 -21.460  0.00  0.00    +0.277 C 
ATOM     18  O   UNL     1      -0.206   1.420 -22.685  0.00  0.00    -0.494 OA
ENDBRANCH   1  18
TORSDOF 1
ENDMDL
MODEL 7
REMARK VINA RESULT:    -7.650      1.538      2.316
REMARK INTER + INTRA:          -7.773
REMARK INTER:                  -8.120
REMARK INTRA:                   0.347
REMARK UNBOUND:                 0.323
REMARK  Name = ZINC000000900237
REMARK  2 active torsions:
REMARK  status: ('A' for Active; 'I' for Inactive)
REMARK    1  A    between atoms: C_1  and  O_2
REMARK    2  A    between atoms: O_2  and  C_3
REMARK                            x       y       z     vdW  Elec       q    Type
REMARK                         _______ _______ _______ _____ _____    ______ ____
ROOT
ATOM      1  C   UNL     1      -0.018   2.765 -24.086  0.00  0.00    +0.142 A 
ATOM      2  C   UNL     1       0.714   2.233 -23.151  0.00  0.00    +0.047 A 
ATOM      3  C   UNL     1       1.959   1.944 -23.387  0.00  0.00    +0.063 A 
ATOM      4  C   UNL     1       2.689   1.412 -22.452  0.00  0.00    +0.167 A 
ATOM      5  C   UNL     1       2.175   1.170 -21.283  0.00  0.00    +0.168 A 
ATOM      6  O   UNL     1       3.101   0.645 -20.537  0.00  0.00    -0.453 OA
ATOM      7  C   UNL     1       4.188   0.562 -21.246  0.00  0.00    +0.466 C 
ATOM      8  C   UNL     1       0.930   1.460 -21.048  0.00  0.00    +0.078 A 
ATOM      9  O   UNL     1       3.933   1.036 -22.430  0.00  0.00    -0.453 OA
ATOM     10  C   UNL     1       0.198   1.992 -21.982  0.00  0.00    +0.082 A 
ATOM     11  N   UNL     1      -1.047   2.281 -21.748  0.00  0.00    -0.212 NA
ATOM     12  C   UNL     1      -1.777   2.813 -22.682  0.00  0.00    +0.231 A 
ATOM     13  O   UNL     1      -3.022   3.189 -22.705  0.00  0.00    -0.445 OA
ATOM     14  C   UNL     1      -3.276   3.663 -23.888  0.00  0.00    +0.198 A 
ATOM     15  C   UNL     1      -2.190   3.581 -24.597  0.00  0.00    +0.055 A 
ATOM     16  C   UNL     1      -1.263   3.055 -23.852  0.00  0.00    +0.082 A 
ENDROOT
BRANCH   1  18
ATOM     17  C   UNL     1       1.080   4.145 -25.485  0.00  0.00    +0.277 C 
ATOM     18  O   UNL     1       0.496   3.007 -25.255  0.00  0.00    -0.494 OA
ENDBRANCH   1  18
TORSDOF 1
ENDMDL
MODEL 8
REMARK VINA RESULT:    -7.292      1.976      5.581
REMARK INTER + INTRA:          -7.394
REMARK INTER:                  -7.774
REMARK INTRA:                   0.380
REMARK UNBOUND:                 0.323
REMARK  Name = ZINC000000900237
REMARK  2 active torsions:
REMARK  status: ('A' for Active; 'I' for Inactive)
REMARK    1  A    between atoms: C_1  and  O_2
REMARK    2  A    between atoms: O_2  and  C_3
REMARK                            x       y       z     vdW  Elec       q    Type
REMARK                         _______ _______ _______ _____ _____    ______ ____
ROOT
ATOM      1  C   UNL     1       1.897   3.273 -22.556  0.00  0.00    +0.142 A 
ATOM      2  C   UNL     1       0.647   3.205 -22.911  0.00  0.00    +0.047 A 
ATOM      3  C   UNL     1       0.034   4.270 -23.335  0.00  0.00    +0.063 A 
ATOM      4  C   UNL     1      -1.215   4.202 -23.689  0.00  0.00    +0.167 A 
ATOM      5  C   UNL     1      -1.850   3.070 -23.619  0.00  0.00    +0.168 A 
ATOM      6  O   UNL     1      -3.069   3.267 -24.025  0.00  0.00    -0.453 OA
ATOM      7  C   UNL     1      -3.188   4.522 -24.346  0.00  0.00    +0.466 C 
ATOM      8  C   UNL     1      -1.237   2.006 -23.195  0.00  0.00    +0.078 A 
ATOM      9  O   UNL     1      -2.041   5.099 -24.138  0.00  0.00    -0.453 OA
ATOM     10  C   UNL     1       0.013   2.073 -22.840  0.00  0.00    +0.082 A 
ATOM     11  N   UNL     1       0.626   1.009 -22.416  0.00  0.00    -0.212 NA
ATOM     12  C   UNL     1       1.875   1.077 -22.062  0.00  0.00    +0.231 A 
ATOM     13  O   UNL     1       2.702   0.179 -21.612  0.00  0.00    -0.445 OA
ATOM     14  C   UNL     1       3.848   0.757 -21.405  0.00  0.00    +0.198 A 
ATOM     15  C   UNL     1       3.730   2.011 -21.726  0.00  0.00    +0.055 A 
ATOM     16  C   UNL     1       2.511   2.209 -22.132  0.00  0.00    +0.082 A 
ENDROOT
BRANCH   1  18
ATOM     17  C   UNL     1       3.483   4.563 -23.498  0.00  0.00    +0.277 C 
ATOM     18  O   UNL     1       2.532   4.405 -22.626  0.00  0.00    -0.494 OA
ENDBRANCH   1  18
TORSDOF 1
ENDMDL
MODEL 9
REMARK VINA RESULT:    -6.080      4.472      6.611
REMARK INTER + INTRA:          -6.112
REMARK INTER:                  -6.436
REMARK INTRA:                   0.323
REMARK UNBOUND:                 0.323
REMARK  Name = ZINC000000900237
REMARK  2 active torsions:
REMARK  status: ('A' for Active; 'I' for Inactive)
REMARK    1  A    between atoms: C_1  and  O_2
REMARK    2  A    between atoms: O_2  and  C_3
REMARK                            x       y       z     vdW  Elec       q    Type
REMARK                         _______ _______ _______ _____ _____    ______ ____
ROOT
ATOM      1  C   UNL     1       3.378   3.605 -22.939  0.00  0.00    +0.142 A 
ATOM      2  C   UNL     1       4.607   3.812 -22.566  0.00  0.00    +0.047 A 
ATOM      3  C   UNL     1       5.297   4.772 -23.106  0.00  0.00    +0.063 A 
ATOM      4  C   UNL     1       6.525   4.979 -22.732  0.00  0.00    +0.167 A 
ATOM      5  C   UNL     1       7.062   4.226 -21.820  0.00  0.00    +0.168 A 
ATOM      6  O   UNL     1       8.281   4.634 -21.628  0.00  0.00    -0.453 OA
ATOM      7  C   UNL     1       8.498   5.640 -22.423  0.00  0.00    +0.466 C 
ATOM      8  C   UNL     1       6.372   3.266 -21.280  0.00  0.00    +0.078 A 
ATOM      9  O   UNL     1       7.411   5.853 -23.106  0.00  0.00    -0.453 OA
ATOM     10  C   UNL     1       5.144   3.058 -21.653  0.00  0.00    +0.082 A 
ATOM     11  N   UNL     1       4.454   2.098 -21.114  0.00  0.00    -0.212 NA
ATOM     12  C   UNL     1       3.226   1.891 -21.487  0.00  0.00    +0.231 A 
ATOM     13  O   UNL     1       2.339   1.017 -21.114  0.00  0.00    -0.445 OA
ATOM     14  C   UNL     1       1.253   1.230 -21.796  0.00  0.00    +0.198 A 
ATOM     15  C   UNL     1       1.469   2.236 -22.590  0.00  0.00    +0.055 A 
ATOM     16  C   UNL     1       2.688   2.645 -22.400  0.00  0.00    +0.082 A 
ENDROOT
BRANCH   1  18
ATOM     17  C   UNL     1       2.013   5.300 -23.512  0.00  0.00    +0.277 C 
ATOM     18  O   UNL     1       2.841   4.358 -23.852  0.00  0.00    -0.494 OA
ENDBRANCH   1  18
TORSDOF 1
ENDMDL
