MODEL 1
REMARK VINA RESULT:   -10.123      0.000      0.000
REMARK INTER + INTRA:         -10.123
REMARK INTER:                 -10.123
REMARK INTRA:                   0.000
REMARK UNBOUND:                 0.000
REMARK  Name = ZINC000004832998
REMARK  2 active torsions:
REMARK  status: ('A' for Active; 'I' for Inactive)
REMARK    1  A    between atoms: C_8  and  C_9
REMARK    2  A    between atoms: C_13  and  C_14
REMARK                            x       y       z     vdW  Elec       q    Type
REMARK                         _______ _______ _______ _____ _____    ______ ____
ROOT
ATOM      1  C   UNL     1       0.484   1.510 -21.200  0.00  0.00    +0.020 C 
ATOM      2  C   UNL     1       0.118   2.056 -22.321  0.00  0.00    +0.040 C 
ATOM      3  C   UNL     1       0.888   2.303 -23.338  0.00  0.00    +0.336 C 
ATOM      4  O   UNL     1       0.163   2.850 -24.268  0.00  0.00    -0.457 OA
ATOM      5  C   UNL     1      -1.056   2.941 -23.824  0.00  0.00    +0.189 C 
ATOM      6  C   UNL     1      -2.144   3.408 -24.361  0.00  0.00    +0.056 C 
ATOM      7  C   UNL     1      -3.260   3.383 -23.696  0.00  0.00    -0.007 C 
ATOM      8  C   UNL     1      -4.348   3.850 -24.233  0.00  0.00    +0.011 C 
ATOM      9  C   UNL     1      -5.464   3.825 -23.566  0.00  0.00    +0.001 C 
ATOM     10  C   UNL     1      -5.492   3.334 -22.363  0.00  0.00    +0.007 C 
ATOM     11  C   UNL     1      -4.404   2.867 -21.825  0.00  0.00    +0.012 C 
ATOM     12  C   UNL     1      -4.432   2.377 -20.622  0.00  0.00    +0.012 C 
ATOM     13  C   UNL     1      -3.232   3.874 -24.899  0.00  0.00    +0.016 C 
ATOM     14  C   UNL     1      -3.287   2.892 -22.492  0.00  0.00    -0.064 C 
ATOM     15  C   UNL     1      -2.199   2.426 -21.955  0.00  0.00    -0.015 C 
ATOM     16  O   UNL     1       2.161   2.048 -23.413  0.00  0.00    -0.245 OA
ATOM     17  C   UNL     1      -1.084   2.450 -22.621  0.00  0.00    +0.089 C 
ENDROOT
TORSDOF 0
ENDMDL
MODEL 2
REMARK VINA RESULT:   -10.023      0.956      2.527
REMARK INTER + INTRA:         -10.023
REMARK INTER:                 -10.023
REMARK INTRA:                   0.000
REMARK UNBOUND:                 0.000
REMARK  Name = ZINC000004832998
REMARK  2 active torsions:
REMARK  status: ('A' for Active; 'I' for Inactive)
REMARK    1  A    between atoms: C_8  and  C_9
REMARK    2  A    between atoms: C_13  and  C_14
REMARK                            x       y       z     vdW  Elec       q    Type
REMARK                         _______ _______ _______ _____ _____    ______ ____
ROOT
ATOM      1  C   UNL     1       0.564   3.375 -25.133  0.00  0.00    +0.020 C 
ATOM      2  C   UNL     1       0.141   3.041 -23.951  0.00  0.00    +0.040 C 
ATOM      3  C   UNL     1       0.874   2.595 -22.974  0.00  0.00    +0.336 C 
ATOM      4  O   UNL     1       0.095   2.373 -21.957  0.00  0.00    -0.457 OA
ATOM      5  C   UNL     1      -1.119   2.682 -22.305  0.00  0.00    +0.189 C 
ATOM      6  C   UNL     1      -2.246   2.640 -21.659  0.00  0.00    +0.056 C 
ATOM      7  C   UNL     1      -3.346   3.011 -22.245  0.00  0.00    -0.007 C 
ATOM      8  C   UNL     1      -4.473   2.970 -21.599  0.00  0.00    +0.011 C 
ATOM      9  C   UNL     1      -5.572   3.341 -22.185  0.00  0.00    +0.001 C 
ATOM     10  C   UNL     1      -5.544   3.754 -23.417  0.00  0.00    +0.007 C 
ATOM     11  C   UNL     1      -4.417   3.796 -24.064  0.00  0.00    +0.012 C 
ATOM     12  C   UNL     1      -4.389   4.209 -25.297  0.00  0.00    +0.012 C 
ATOM     13  C   UNL     1      -3.374   2.598 -21.012  0.00  0.00    +0.016 C 
ATOM     14  C   UNL     1      -3.317   3.424 -23.478  0.00  0.00    -0.064 C 
ATOM     15  C   UNL     1      -2.190   3.466 -24.124  0.00  0.00    -0.015 C 
ATOM     16  O   UNL     1       2.159   2.405 -23.009  0.00  0.00    -0.245 OA
ATOM     17  C   UNL     1      -1.091   3.095 -23.538  0.00  0.00    +0.089 C 
ENDROOT
TORSDOF 0
ENDMDL
MODEL 3
REMARK VINA RESULT:    -9.580      2.216      5.299
REMARK INTER + INTRA:          -9.580
REMARK INTER:                  -9.580
REMARK INTRA:                   0.000
REMARK UNBOUND:                 0.000
REMARK  Name = ZINC000004832998
REMARK  2 active torsions:
REMARK  status: ('A' for Active; 'I' for Inactive)
REMARK    1  A    between atoms: C_8  and  C_9
REMARK    2  A    between atoms: C_13  and  C_14
REMARK                            x       y       z     vdW  Elec       q    Type
REMARK                         _______ _______ _______ _____ _____    ______ ____
ROOT
ATOM      1  C   UNL     1      -4.680   4.234 -24.398  0.00  0.00    +0.020 C 
ATOM      2  C   UNL     1      -4.216   3.605 -23.359  0.00  0.00    +0.040 C 
ATOM      3  C   UNL     1      -4.902   3.238 -22.319  0.00  0.00    +0.336 C 
ATOM      4  O   UNL     1      -4.093   2.638 -21.496  0.00  0.00    -0.457 OA
ATOM      5  C   UNL     1      -2.908   2.635 -22.029  0.00  0.00    +0.189 C 
ATOM      6  C   UNL     1      -1.769   2.166 -21.613  0.00  0.00    +0.056 C 
ATOM      7  C   UNL     1      -0.705   2.293 -22.350  0.00  0.00    -0.007 C 
ATOM      8  C   UNL     1       0.433   1.823 -21.934  0.00  0.00    +0.011 C 
ATOM      9  C   UNL     1       1.497   1.951 -22.671  0.00  0.00    +0.001 C 
ATOM     10  C   UNL     1       1.421   2.549 -23.823  0.00  0.00    +0.007 C 
ATOM     11  C   UNL     1       0.283   3.019 -24.239  0.00  0.00    +0.012 C 
ATOM     12  C   UNL     1       0.207   3.616 -25.391  0.00  0.00    +0.012 C 
ATOM     13  C   UNL     1      -0.630   1.695 -21.198  0.00  0.00    +0.016 C 
ATOM     14  C   UNL     1      -0.781   2.891 -23.502  0.00  0.00    -0.064 C 
ATOM     15  C   UNL     1      -1.920   3.361 -23.918  0.00  0.00    -0.015 C 
ATOM     16  O   UNL     1      -6.173   3.435 -22.133  0.00  0.00    -0.245 OA
ATOM     17  C   UNL     1      -2.983   3.233 -23.181  0.00  0.00    +0.089 C 
ENDROOT
TORSDOF 0
ENDMDL
MODEL 4
REMARK VINA RESULT:    -9.464      2.120      4.640
REMARK INTER + INTRA:          -9.464
REMARK INTER:                  -9.464
REMARK INTRA:                   0.000
REMARK UNBOUND:                 0.000
REMARK  Name = ZINC000004832998
REMARK  2 active torsions:
REMARK  status: ('A' for Active; 'I' for Inactive)
REMARK    1  A    between atoms: C_8  and  C_9
REMARK    2  A    between atoms: C_13  and  C_14
REMARK                            x       y       z     vdW  Elec       q    Type
REMARK                         _______ _______ _______ _____ _____    ______ ____
ROOT
ATOM      1  C   UNL     1      -4.163   2.248 -20.580  0.00  0.00    +0.020 C 
ATOM      2  C   UNL     1      -4.004   2.768 -21.760  0.00  0.00    +0.040 C 
ATOM      3  C   UNL     1      -4.931   3.327 -22.480  0.00  0.00    +0.336 C 
ATOM      4  O   UNL     1      -4.389   3.725 -23.593  0.00  0.00    -0.457 OA
ATOM      5  C   UNL     1      -3.128   3.411 -23.560  0.00  0.00    +0.189 C 
ATOM      6  C   UNL     1      -2.166   3.588 -24.416  0.00  0.00    +0.056 C 
ATOM      7  C   UNL     1      -0.965   3.174 -24.140  0.00  0.00    -0.007 C 
ATOM      8  C   UNL     1      -0.002   3.351 -24.995  0.00  0.00    +0.011 C 
ATOM      9  C   UNL     1       1.198   2.936 -24.718  0.00  0.00    +0.001 C 
ATOM     10  C   UNL     1       1.436   2.344 -23.585  0.00  0.00    +0.007 C 
ATOM     11  C   UNL     1       0.474   2.167 -22.729  0.00  0.00    +0.012 C 
ATOM     12  C   UNL     1       0.712   1.576 -21.596  0.00  0.00    +0.012 C 
ATOM     13  C   UNL     1      -1.203   3.765 -25.273  0.00  0.00    +0.016 C 
ATOM     14  C   UNL     1      -0.727   2.582 -23.006  0.00  0.00    -0.064 C 
ATOM     15  C   UNL     1      -1.690   2.405 -22.150  0.00  0.00    -0.015 C 
ATOM     16  O   UNL     1      -6.180   3.464 -22.146  0.00  0.00    -0.245 OA
ATOM     17  C   UNL     1      -2.890   2.820 -22.427  0.00  0.00    +0.089 C 
ENDROOT
TORSDOF 0
ENDMDL
MODEL 5
REMARK VINA RESULT:    -9.363      1.491      2.931
REMARK INTER + INTRA:          -9.363
REMARK INTER:                  -9.363
REMARK INTRA:                   0.000
REMARK UNBOUND:                 0.000
REMARK  Name = ZINC000004832998
REMARK  2 active torsions:
REMARK  status: ('A' for Active; 'I' for Inactive)
REMARK    1  A    between atoms: C_8  and  C_9
REMARK    2  A    between atoms: C_13  and  C_14
REMARK                            x       y       z     vdW  Elec       q    Type
REMARK                         _______ _______ _______ _____ _____    ______ ____
ROOT
ATOM      1  C   UNL     1       2.328   1.794 -23.410  0.00  0.00    +0.020 C 
ATOM      2  C   UNL     1       1.405   1.753 -22.496  0.00  0.00    +0.040 C 
ATOM      3  C   UNL     1       1.556   1.337 -21.274  0.00  0.00    +0.336 C 
ATOM      4  O   UNL     1       0.412   1.448 -20.667  0.00  0.00    -0.457 OA
ATOM      5  C   UNL     1      -0.446   1.933 -21.514  0.00  0.00    +0.189 C 
ATOM      6  C   UNL     1      -1.707   2.228 -21.401  0.00  0.00    +0.056 C 
ATOM      7  C   UNL     1      -2.356   2.711 -22.419  0.00  0.00    -0.007 C 
ATOM      8  C   UNL     1      -3.617   3.006 -22.306  0.00  0.00    +0.011 C 
ATOM      9  C   UNL     1      -4.265   3.489 -23.324  0.00  0.00    +0.001 C 
ATOM     10  C   UNL     1      -3.651   3.678 -24.455  0.00  0.00    +0.007 C 
ATOM     11  C   UNL     1      -2.390   3.384 -24.568  0.00  0.00    +0.012 C 
ATOM     12  C   UNL     1      -1.777   3.573 -25.699  0.00  0.00    +0.012 C 
ATOM     13  C   UNL     1      -2.969   2.522 -21.288  0.00  0.00    +0.016 C 
ATOM     14  C   UNL     1      -1.741   2.900 -23.550  0.00  0.00    -0.064 C 
ATOM     15  C   UNL     1      -0.481   2.606 -23.662  0.00  0.00    -0.015 C 
ATOM     16  O   UNL     1       2.659   0.888 -20.751  0.00  0.00    -0.245 OA
ATOM     17  C   UNL     1       0.167   2.122 -22.644  0.00  0.00    +0.089 C 
ENDROOT
TORSDOF 0
ENDMDL
MODEL 6
REMARK VINA RESULT:    -8.118      2.245      3.638
REMARK INTER + INTRA:          -8.118
REMARK INTER:                  -8.118
REMARK INTRA:                   0.000
REMARK UNBOUND:                 0.000
REMARK  Name = ZINC000004832998
REMARK  2 active torsions:
REMARK  status: ('A' for Active; 'I' for Inactive)
REMARK    1  A    between atoms: C_8  and  C_9
REMARK    2  A    between atoms: C_13  and  C_14
REMARK                            x       y       z     vdW  Elec       q    Type
REMARK                         _______ _______ _______ _____ _____    ______ ____
ROOT
ATOM      1  C   UNL     1       3.457   1.299 -20.985  0.00  0.00    +0.020 C 
ATOM      2  C   UNL     1       3.402   1.950 -22.108  0.00  0.00    +0.040 C 
ATOM      3  C   UNL     1       4.419   2.344 -22.814  0.00  0.00    +0.336 C 
ATOM      4  O   UNL     1       3.965   2.960 -23.865  0.00  0.00    -0.457 OA
ATOM      5  C   UNL     1       2.666   2.946 -23.809  0.00  0.00    +0.189 C 
ATOM      6  C   UNL     1       1.756   3.421 -24.606  0.00  0.00    +0.056 C 
ATOM      7  C   UNL     1       0.497   3.272 -24.318  0.00  0.00    -0.007 C 
ATOM      8  C   UNL     1      -0.413   3.747 -25.115  0.00  0.00    +0.011 C 
ATOM      9  C   UNL     1      -1.671   3.598 -24.826  0.00  0.00    +0.001 C 
ATOM     10  C   UNL     1      -2.020   2.974 -23.740  0.00  0.00    +0.007 C 
ATOM     11  C   UNL     1      -1.110   2.499 -22.942  0.00  0.00    +0.012 C 
ATOM     12  C   UNL     1      -1.458   1.875 -21.856  0.00  0.00    +0.012 C 
ATOM     13  C   UNL     1       0.845   3.896 -25.404  0.00  0.00    +0.016 C 
ATOM     14  C   UNL     1       0.149   2.648 -23.231  0.00  0.00    -0.064 C 
ATOM     15  C   UNL     1       1.060   2.173 -22.434  0.00  0.00    -0.015 C 
ATOM     16  O   UNL     1       5.672   2.156 -22.521  0.00  0.00    -0.245 OA
ATOM     17  C   UNL     1       2.318   2.322 -22.723  0.00  0.00    +0.089 C 
ENDROOT
TORSDOF 0
ENDMDL
MODEL 7
REMARK VINA RESULT:    -7.922      1.876      5.144
REMARK INTER + INTRA:          -7.922
REMARK INTER:                  -7.922
REMARK INTRA:                   0.000
REMARK UNBOUND:                 0.000
REMARK  Name = ZINC000004832998
REMARK  2 active torsions:
REMARK  status: ('A' for Active; 'I' for Inactive)
REMARK    1  A    between atoms: C_8  and  C_9
REMARK    2  A    between atoms: C_13  and  C_14
REMARK                            x       y       z     vdW  Elec       q    Type
REMARK                         _______ _______ _______ _____ _____    ______ ____
ROOT
ATOM      1  C   UNL     1      -3.085   3.435 -22.085  0.00  0.00    +0.020 C 
ATOM      2  C   UNL     1      -2.409   3.554 -23.189  0.00  0.00    +0.040 C 
ATOM      3  C   UNL     1      -2.846   4.064 -24.302  0.00  0.00    +0.336 C 
ATOM      4  O   UNL     1      -1.884   4.008 -25.174  0.00  0.00    -0.457 OA
ATOM      5  C   UNL     1      -0.853   3.464 -24.600  0.00  0.00    +0.189 C 
ATOM      6  C   UNL     1       0.340   3.187 -25.037  0.00  0.00    +0.056 C 
ATOM      7  C   UNL     1       1.210   2.630 -24.247  0.00  0.00    -0.007 C 
ATOM      8  C   UNL     1       2.402   2.354 -24.684  0.00  0.00    +0.011 C 
ATOM      9  C   UNL     1       3.270   1.797 -23.893  0.00  0.00    +0.001 C 
ATOM     10  C   UNL     1       2.946   1.516 -22.666  0.00  0.00    +0.007 C 
ATOM     11  C   UNL     1       1.753   1.792 -22.228  0.00  0.00    +0.012 C 
ATOM     12  C   UNL     1       1.429   1.511 -21.001  0.00  0.00    +0.012 C 
ATOM     13  C   UNL     1       1.534   2.911 -25.474  0.00  0.00    +0.016 C 
ATOM     14  C   UNL     1       0.884   2.350 -23.019  0.00  0.00    -0.064 C 
ATOM     15  C   UNL     1      -0.309   2.626 -22.583  0.00  0.00    -0.015 C 
ATOM     16  O   UNL     1      -4.036   4.545 -24.506  0.00  0.00    -0.245 OA
ATOM     17  C   UNL     1      -1.177   3.183 -23.373  0.00  0.00    +0.089 C 
ENDROOT
TORSDOF 0
ENDMDL
MODEL 8
REMARK VINA RESULT:    -7.903      2.908      6.739
REMARK INTER + INTRA:          -7.903
REMARK INTER:                  -7.903
REMARK INTRA:                   0.000
REMARK UNBOUND:                 0.000
REMARK  Name = ZINC000004832998
REMARK  2 active torsions:
REMARK  status: ('A' for Active; 'I' for Inactive)
REMARK    1  A    between atoms: C_8  and  C_9
REMARK    2  A    between atoms: C_13  and  C_14
REMARK                            x       y       z     vdW  Elec       q    Type
REMARK                         _______ _______ _______ _____ _____    ______ ____
ROOT
ATOM      1  C   UNL     1      -0.300   4.824 -23.604  0.00  0.00    +0.020 C 
ATOM      2  C   UNL     1      -0.045   3.599 -23.254  0.00  0.00    +0.040 C 
ATOM      3  C   UNL     1      -0.921   2.654 -23.087  0.00  0.00    +0.336 C 
ATOM      4  O   UNL     1      -0.285   1.574 -22.739  0.00  0.00    -0.457 OA
ATOM      5  C   UNL     1       0.984   1.853 -22.692  0.00  0.00    +0.189 C 
ATOM      6  C   UNL     1       2.022   1.129 -22.400  0.00  0.00    +0.056 C 
ATOM      7  C   UNL     1       3.211   1.655 -22.426  0.00  0.00    -0.007 C 
ATOM      8  C   UNL     1       4.250   0.931 -22.135  0.00  0.00    +0.011 C 
ATOM      9  C   UNL     1       5.438   1.458 -22.161  0.00  0.00    +0.001 C 
ATOM     10  C   UNL     1       5.586   2.710 -22.479  0.00  0.00    +0.007 C 
ATOM     11  C   UNL     1       4.548   3.435 -22.771  0.00  0.00    +0.012 C 
ATOM     12  C   UNL     1       4.696   4.686 -23.089  0.00  0.00    +0.012 C 
ATOM     13  C   UNL     1       3.062   0.403 -22.108  0.00  0.00    +0.016 C 
ATOM     14  C   UNL     1       3.359   2.908 -22.745  0.00  0.00    -0.064 C 
ATOM     15  C   UNL     1       2.320   3.632 -23.037  0.00  0.00    -0.015 C 
ATOM     16  O   UNL     1      -2.207   2.768 -23.240  0.00  0.00    -0.245 OA
ATOM     17  C   UNL     1       1.132   3.105 -23.010  0.00  0.00    +0.089 C 
ENDROOT
TORSDOF 0
ENDMDL
