MODEL 1
REMARK VINA RESULT:    -9.453      0.000      0.000
REMARK INTER + INTRA:          -6.872
REMARK INTER:                 -11.657
REMARK INTRA:                   4.784
REMARK UNBOUND:                 5.343
REMARK  Name = CCCC[C@@]12Oc3c(OC)ccc4c3[C@]13CCN(C)[C@H](C4)C3=CC=C2OC             ZINC000100393621
REMARK  9 active torsions:
REMARK  status: ('A' for Active; 'I' for Inactive)
REMARK    1  A    between atoms: C_1  and  C_2
REMARK    2  A    between atoms: C_2  and  C_3
REMARK    3  A    between atoms: C_3  and  C_4
REMARK    4  A    between atoms: C_4  and  C_5
REMARK    5  A    between atoms: C_8  and  O_9
REMARK    6  A    between atoms: O_9  and  C_10
REMARK    7  A    between atoms: N_18  and  C_19
REMARK    8  A    between atoms: C_25  and  O_26
REMARK    9  A    between atoms: O_26  and  C_27
REMARK                            x       y       z     vdW  Elec       q    Type
REMARK                         _______ _______ _______ _____ _____    ______ ____
ROOT
ATOM      1  C   UNL     1      -1.494   3.198 -23.822  0.00  0.00    +0.181 C 
ATOM      2  O   UNL     1      -1.829   3.064 -22.351  0.00  0.00    -0.473 OA
ATOM      3  C   UNL     1      -3.306   3.146 -22.061  0.00  0.00    +0.168 A 
ATOM      4  C   UNL     1      -4.216   3.120 -21.173  0.00  0.00    +0.162 A 
ATOM      5  C   UNL     1      -5.430   3.251 -21.518  0.00  0.00    +0.050 A 
ATOM      6  C   UNL     1      -5.737   3.406 -22.726  0.00  0.00    +0.008 A 
ATOM      7  C   UNL     1      -4.834   3.431 -23.604  0.00  0.00    -0.034 A 
ATOM      8  C   UNL     1      -5.142   3.588 -24.833  0.00  0.00    +0.094 C 
ATOM      9  C   UNL     1      -4.241   3.614 -25.707  0.00  0.00    +0.096 C 
ATOM     10  C   UNL     1      -3.025   3.483 -25.365  0.00  0.00    -0.007 C 
ATOM     11  C   UNL     1      -2.117   3.509 -26.250  0.00  0.00    +0.009 C 
ATOM     12  C   UNL     1      -0.911   3.381 -25.919  0.00  0.00    +0.045 C 
ATOM     13  N   UNL     1      -3.295   3.658 -26.779  0.00  0.00    +0.239 N 
ATOM     14  H   UNL     1      -3.576   3.785 -27.752  0.00  0.00    +0.204 HD
ATOM     15  C   UNL     1      -3.659   3.815 -27.970  0.00  0.00    +0.191 C 
ATOM     16  C   UNL     1      -1.931   3.515 -26.433  0.00  0.00    +0.133 C 
ATOM     17  C   UNL     1      -1.615   3.342 -25.063  0.00  0.00    +0.071 C 
ATOM     18  C   UNL     1      -3.618   3.303 -23.280  0.00  0.00    +0.016 A 
ATOM     19  C   UNL     1      -0.596   3.224 -24.700  0.00  0.00    +0.142 C 
ATOM     20  C   UNL     1      -2.721   3.329 -24.157  0.00  0.00    +0.077 C 
ENDROOT
BRANCH   4  21
ATOM     21  O   UNL     1      -3.914   2.966 -19.964  0.00  0.00    -0.491 OA
ATOM     22  C   UNL     1      -3.084   3.734 -19.420  0.00  0.00    +0.277 C 
ENDBRANCH   4  21
BRANCH  19  23
ATOM     23  O   UNL     1       0.610   3.096 -24.372  0.00  0.00    -0.495 OA
ATOM     24  C   UNL     1       1.503   3.092 -25.254  0.00  0.00    +0.276 C 
ENDBRANCH  19  23
BRANCH   1  25
ATOM     25  C   UNL     1      -0.371   3.047 -23.222  0.00  0.00    +0.057 C 
BRANCH  25  26
ATOM     26  C   UNL     1      -0.283   2.538 -22.056  0.00  0.00    +0.004 C 
BRANCH  26  28
ATOM     27  C   UNL     1       1.550   1.471 -21.547  0.00  0.00    +0.004 C 
ATOM     28  C   UNL     1       0.325   1.456 -21.857  0.00  0.00    -0.003 C 
ENDBRANCH  26  28
ENDBRANCH  25  26
ENDBRANCH   1  25
TORSDOF 5
ENDMDL
MODEL 2
REMARK VINA RESULT:    -9.027      1.862      4.369
REMARK INTER + INTRA:          -6.322
REMARK INTER:                 -11.004
REMARK INTRA:                   4.682
REMARK UNBOUND:                 5.343
REMARK  Name = CCCC[C@@]12Oc3c(OC)ccc4c3[C@]13CCN(C)[C@H](C4)C3=CC=C2OC             ZINC000100393621
REMARK  9 active torsions:
REMARK  status: ('A' for Active; 'I' for Inactive)
REMARK    1  A    between atoms: C_1  and  C_2
REMARK    2  A    between atoms: C_2  and  C_3
REMARK    3  A    between atoms: C_3  and  C_4
REMARK    4  A    between atoms: C_4  and  C_5
REMARK    5  A    between atoms: C_8  and  O_9
REMARK    6  A    between atoms: O_9  and  C_10
REMARK    7  A    between atoms: N_18  and  C_19
REMARK    8  A    between atoms: C_25  and  O_26
REMARK    9  A    between atoms: O_26  and  C_27
REMARK                            x       y       z     vdW  Elec       q    Type
REMARK                         _______ _______ _______ _____ _____    ______ ____
ROOT
ATOM      1  C   UNL     1      -1.225   2.815 -23.307  0.00  0.00    +0.181 C 
ATOM      2  O   UNL     1      -1.301   2.970 -24.811  0.00  0.00    -0.473 OA
ATOM      3  C   UNL     1      -2.683   3.301 -25.313  0.00  0.00    +0.168 A 
ATOM      4  C   UNL     1      -3.415   3.545 -26.323  0.00  0.00    +0.162 A 
ATOM      5  C   UNL     1      -4.651   3.784 -26.158  0.00  0.00    +0.050 A 
ATOM      6  C   UNL     1      -5.152   3.781 -25.006  0.00  0.00    +0.008 A 
ATOM      7  C   UNL     1      -4.425   3.539 -24.007  0.00  0.00    -0.034 A 
ATOM      8  C   UNL     1      -4.932   3.535 -22.834  0.00  0.00    +0.094 C 
ATOM      9  C   UNL     1      -4.206   3.293 -21.839  0.00  0.00    +0.096 C 
ATOM     10  C   UNL     1      -2.970   3.054 -22.002  0.00  0.00    -0.007 C 
ATOM     11  C   UNL     1      -2.239   2.810 -20.994  0.00  0.00    +0.009 C 
ATOM     12  C   UNL     1      -1.014   2.572 -21.147  0.00  0.00    +0.045 C 
ATOM     13  N   UNL     1      -3.471   3.031 -20.640  0.00  0.00    +0.239 N 
ATOM     14  H   UNL     1      -3.907   3.035 -19.718  0.00  0.00    +0.204 HD
ATOM     15  C   UNL     1      -4.025   3.041 -19.514  0.00  0.00    +0.191 C 
ATOM     16  C   UNL     1      -2.089   2.760 -20.786  0.00  0.00    +0.133 C 
ATOM     17  C   UNL     1      -1.552   2.770 -22.096  0.00  0.00    +0.071 C 
ATOM     18  C   UNL     1      -3.193   3.298 -24.151  0.00  0.00    +0.016 A 
ATOM     19  C   UNL     1      -0.503   2.574 -22.308  0.00  0.00    +0.142 C 
ATOM     20  C   UNL     1      -2.471   3.057 -23.153  0.00  0.00    +0.077 C 
ENDROOT
BRANCH   4  21
ATOM     21  O   UNL     1      -2.918   3.549 -27.477  0.00  0.00    -0.491 OA
ATOM     22  C   UNL     1      -3.654   3.382 -28.479  0.00  0.00    +0.277 C 
ENDBRANCH   4  21
BRANCH  19  23
ATOM     23  O   UNL     1       0.721   2.335 -22.458  0.00  0.00    -0.495 OA
ATOM     24  C   UNL     1       1.305   1.539 -21.683  0.00  0.00    +0.276 C 
ENDBRANCH  19  23
BRANCH   1  25
ATOM     25  C   UNL     1      -0.035   2.610 -23.738  0.00  0.00    +0.057 C 
BRANCH  25  26
ATOM     26  C   UNL     1       0.359   3.025 -24.878  0.00  0.00    +0.004 C 
BRANCH  26  28
ATOM     27  C   UNL     1       2.212   1.991 -25.381  0.00  0.00    +0.004 C 
ATOM     28  C   UNL     1       1.580   3.065 -25.175  0.00  0.00    -0.003 C 
ENDBRANCH  26  28
ENDBRANCH  25  26
ENDBRANCH   1  25
TORSDOF 5
ENDMDL
MODEL 3
REMARK VINA RESULT:    -8.734      1.709      4.250
REMARK INTER + INTRA:          -5.944
REMARK INTER:                 -11.503
REMARK INTRA:                   5.558
REMARK UNBOUND:                 5.343
REMARK  Name = CCCC[C@@]12Oc3c(OC)ccc4c3[C@]13CCN(C)[C@H](C4)C3=CC=C2OC             ZINC000100393621
REMARK  9 active torsions:
REMARK  status: ('A' for Active; 'I' for Inactive)
REMARK    1  A    between atoms: C_1  and  C_2
REMARK    2  A    between atoms: C_2  and  C_3
REMARK    3  A    between atoms: C_3  and  C_4
REMARK    4  A    between atoms: C_4  and  C_5
REMARK    5  A    between atoms: C_8  and  O_9
REMARK    6  A    between atoms: O_9  and  C_10
REMARK    7  A    between atoms: N_18  and  C_19
REMARK    8  A    between atoms: C_25  and  O_26
REMARK    9  A    between atoms: O_26  and  C_27
REMARK                            x       y       z     vdW  Elec       q    Type
REMARK                         _______ _______ _______ _____ _____    ______ ____
ROOT
ATOM      1  C   UNL     1      -1.839   3.122 -24.549  0.00  0.00    +0.181 C 
ATOM      2  O   UNL     1      -0.390   2.733 -24.341  0.00  0.00    -0.473 OA
ATOM      3  C   UNL     1      -0.092   2.249 -22.945  0.00  0.00    +0.168 A 
ATOM      4  C   UNL     1       0.789   1.810 -22.140  0.00  0.00    +0.162 A 
ATOM      5  C   UNL     1       0.461   1.528 -20.946  0.00  0.00    +0.050 A 
ATOM      6  C   UNL     1      -0.724   1.681 -20.558  0.00  0.00    +0.008 A 
ATOM      7  C   UNL     1      -1.595   2.116 -21.358  0.00  0.00    -0.034 A 
ATOM      8  C   UNL     1      -2.800   2.272 -20.966  0.00  0.00    +0.094 C 
ATOM      9  C   UNL     1      -3.667   2.706 -21.764  0.00  0.00    +0.096 C 
ATOM     10  C   UNL     1      -3.341   2.988 -22.959  0.00  0.00    -0.007 C 
ATOM     11  C   UNL     1      -4.219   3.427 -23.763  0.00  0.00    +0.009 C 
ATOM     12  C   UNL     1      -3.905   3.708 -24.946  0.00  0.00    +0.045 C 
ATOM     13  N   UNL     1      -4.729   3.192 -22.589  0.00  0.00    +0.239 N 
ATOM     14  H   UNL     1      -5.683   3.305 -22.245  0.00  0.00    +0.204 HD
ATOM     15  C   UNL     1      -5.897   3.325 -22.147  0.00  0.00    +0.191 C 
ATOM     16  C   UNL     1      -4.401   3.517 -23.927  0.00  0.00    +0.133 C 
ATOM     17  C   UNL     1      -3.057   3.335 -24.336  0.00  0.00    +0.071 C 
ATOM     18  C   UNL     1      -1.287   2.402 -22.550  0.00  0.00    +0.016 A 
ATOM     19  C   UNL     1      -2.709   3.556 -25.343  0.00  0.00    +0.142 C 
ATOM     20  C   UNL     1      -2.157   2.835 -23.344  0.00  0.00    +0.077 C 
ENDROOT
BRANCH   4  21
ATOM     21  O   UNL     1       1.975   1.656 -22.524  0.00  0.00    -0.491 OA
ATOM     22  C   UNL     1       2.692   0.765 -22.008  0.00  0.00    +0.277 C 
ENDBRANCH   4  21
BRANCH  19  23
ATOM     23  O   UNL     1      -2.398   3.839 -26.527  0.00  0.00    -0.495 OA
ATOM     24  C   UNL     1      -3.207   3.613 -27.460  0.00  0.00    +0.276 C 
ENDBRANCH  19  23
BRANCH   1  25
ATOM     25  C   UNL     1      -1.258   3.327 -25.674  0.00  0.00    +0.057 C 
BRANCH  25  26
ATOM     26  C   UNL     1       0.009   3.271 -25.809  0.00  0.00    +0.004 C 
BRANCH  26  28
ATOM     27  C   UNL     1       1.664   4.472 -25.051  0.00  0.00    +0.004 C 
ATOM     28  C   UNL     1       0.708   4.314 -25.862  0.00  0.00    -0.003 C 
ENDBRANCH  26  28
ENDBRANCH  25  26
ENDBRANCH   1  25
TORSDOF 5
ENDMDL
MODEL 4
REMARK VINA RESULT:    -8.646      1.201      4.336
REMARK INTER + INTRA:          -5.830
REMARK INTER:                 -11.047
REMARK INTRA:                   5.217
REMARK UNBOUND:                 5.343
REMARK  Name = CCCC[C@@]12Oc3c(OC)ccc4c3[C@]13CCN(C)[C@H](C4)C3=CC=C2OC             ZINC000100393621
REMARK  9 active torsions:
REMARK  status: ('A' for Active; 'I' for Inactive)
REMARK    1  A    between atoms: C_1  and  C_2
REMARK    2  A    between atoms: C_2  and  C_3
REMARK    3  A    between atoms: C_3  and  C_4
REMARK    4  A    between atoms: C_4  and  C_5
REMARK    5  A    between atoms: C_8  and  O_9
REMARK    6  A    between atoms: O_9  and  C_10
REMARK    7  A    between atoms: N_18  and  C_19
REMARK    8  A    between atoms: C_25  and  O_26
REMARK    9  A    between atoms: O_26  and  C_27
REMARK                            x       y       z     vdW  Elec       q    Type
REMARK                         _______ _______ _______ _____ _____    ______ ____
ROOT
ATOM      1  C   UNL     1      -2.776   2.725 -22.808  0.00  0.00    +0.181 C 
ATOM      2  O   UNL     1      -1.692   2.354 -21.817  0.00  0.00    -0.473 OA
ATOM      3  C   UNL     1      -0.307   2.364 -22.409  0.00  0.00    +0.168 A 
ATOM      4  C   UNL     1       0.935   2.182 -22.207  0.00  0.00    +0.162 A 
ATOM      5  C   UNL     1       1.755   2.345 -23.161  0.00  0.00    +0.050 A 
ATOM      6  C   UNL     1       1.349   2.684 -24.300  0.00  0.00    +0.008 A 
ATOM      7  C   UNL     1       0.118   2.864 -24.499  0.00  0.00    -0.034 A 
ATOM      8  C   UNL     1      -0.299   3.209 -25.655  0.00  0.00    +0.094 C 
ATOM      9  C   UNL     1      -1.526   3.388 -25.852  0.00  0.00    +0.096 C 
ATOM     10  C   UNL     1      -2.349   3.225 -24.898  0.00  0.00    -0.007 C 
ATOM     11  C   UNL     1      -3.588   3.407 -25.100  0.00  0.00    +0.009 C 
ATOM     12  C   UNL     1      -4.409   3.248 -24.161  0.00  0.00    +0.045 C 
ATOM     13  N   UNL     1      -2.899   3.617 -26.182  0.00  0.00    +0.239 N 
ATOM     14  H   UNL     1      -3.198   3.892 -27.118  0.00  0.00    +0.204 HD
ATOM     15  C   UNL     1      -3.248   3.955 -27.340  0.00  0.00    +0.191 C 
ATOM     16  C   UNL     1      -3.843   3.445 -25.142  0.00  0.00    +0.133 C 
ATOM     17  C   UNL     1      -3.355   3.062 -23.869  0.00  0.00    +0.071 C 
ATOM     18  C   UNL     1      -0.714   2.706 -23.560  0.00  0.00    +0.016 A 
ATOM     19  C   UNL     1      -4.003   2.905 -23.009  0.00  0.00    +0.142 C 
ATOM     20  C   UNL     1      -1.940   2.886 -23.761  0.00  0.00    +0.077 C 
ENDROOT
BRANCH   4  21
ATOM     21  O   UNL     1       1.346   1.843 -21.069  0.00  0.00    -0.491 OA
ATOM     22  C   UNL     1       2.543   1.502 -20.909  0.00  0.00    +0.277 C 
ENDBRANCH   4  21
BRANCH  19  23
ATOM     23  O   UNL     1      -4.825   2.747 -22.073  0.00  0.00    -0.495 OA
ATOM     24  C   UNL     1      -6.000   3.172 -22.191  0.00  0.00    +0.276 C 
ENDBRANCH  19  23
BRANCH   1  25
ATOM     25  C   UNL     1      -3.381   2.499 -21.699  0.00  0.00    +0.057 C 
BRANCH  25  26
ATOM     26  C   UNL     1      -2.817   2.667 -20.568  0.00  0.00    +0.004 C 
BRANCH  26  28
ATOM     27  C   UNL     1      -3.104   4.810 -20.284  0.00  0.00    +0.004 C 
ATOM     28  C   UNL     1      -3.116   3.634 -19.823  0.00  0.00    -0.003 C 
ENDBRANCH  26  28
ENDBRANCH  25  26
ENDBRANCH   1  25
TORSDOF 5
ENDMDL
MODEL 5
REMARK VINA RESULT:    -8.522      1.850      4.256
REMARK INTER + INTRA:          -5.669
REMARK INTER:                 -10.832
REMARK INTRA:                   5.162
REMARK UNBOUND:                 5.343
REMARK  Name = CCCC[C@@]12Oc3c(OC)ccc4c3[C@]13CCN(C)[C@H](C4)C3=CC=C2OC             ZINC000100393621
REMARK  9 active torsions:
REMARK  status: ('A' for Active; 'I' for Inactive)
REMARK    1  A    between atoms: C_1  and  C_2
REMARK    2  A    between atoms: C_2  and  C_3
REMARK    3  A    between atoms: C_3  and  C_4
REMARK    4  A    between atoms: C_4  and  C_5
REMARK    5  A    between atoms: C_8  and  O_9
REMARK    6  A    between atoms: O_9  and  C_10
REMARK    7  A    between atoms: N_18  and  C_19
REMARK    8  A    between atoms: C_25  and  O_26
REMARK    9  A    between atoms: O_26  and  C_27
REMARK                            x       y       z     vdW  Elec       q    Type
REMARK                         _______ _______ _______ _____ _____    ______ ____
ROOT
ATOM      1  C   UNL     1      -1.343   3.210 -24.097  0.00  0.00    +0.181 C 
ATOM      2  O   UNL     1      -2.780   3.578 -24.404  0.00  0.00    -0.473 OA
ATOM      3  C   UNL     1      -3.727   3.305 -23.264  0.00  0.00    +0.168 A 
ATOM      4  C   UNL     1      -4.927   3.353 -22.847  0.00  0.00    +0.162 A 
ATOM      5  C   UNL     1      -5.199   2.949 -21.674  0.00  0.00    +0.050 A 
ATOM      6  C   UNL     1      -4.292   2.504 -20.927  0.00  0.00    +0.008 A 
ATOM      7  C   UNL     1      -3.104   2.457 -21.343  0.00  0.00    -0.034 A 
ATOM      8  C   UNL     1      -2.180   2.005 -20.586  0.00  0.00    +0.094 C 
ATOM      9  C   UNL     1      -0.997   1.959 -21.001  0.00  0.00    +0.096 C 
ATOM     10  C   UNL     1      -0.722   2.362 -22.174  0.00  0.00    -0.007 C 
ATOM     11  C   UNL     1       0.475   2.314 -22.591  0.00  0.00    +0.009 C 
ATOM     12  C   UNL     1       0.755   2.711 -23.750  0.00  0.00    +0.045 C 
ATOM     13  N   UNL     1       0.381   1.863 -21.375  0.00  0.00    +0.239 N 
ATOM     14  H   UNL     1       1.095   1.496 -20.744  0.00  0.00    +0.204 HD
ATOM     15  C   UNL     1       1.245   1.409 -20.585  0.00  0.00    +0.191 C 
ATOM     16  C   UNL     1       0.722   2.304 -22.675  0.00  0.00    +0.133 C 
ATOM     17  C   UNL     1      -0.321   2.800 -23.495  0.00  0.00    +0.071 C 
ATOM     18  C   UNL     1      -2.814   2.855 -22.507  0.00  0.00    +0.016 A 
ATOM     19  C   UNL     1      -0.157   3.162 -24.508  0.00  0.00    +0.142 C 
ATOM     20  C   UNL     1      -1.630   2.806 -22.918  0.00  0.00    +0.077 C 
ENDROOT
BRANCH   4  21
ATOM     21  O   UNL     1      -5.836   3.797 -23.590  0.00  0.00    -0.491 OA
ATOM     22  C   UNL     1      -5.547   4.522 -24.573  0.00  0.00    +0.277 C 
ENDBRANCH   4  21
BRANCH  19  23
ATOM     23  O   UNL     1       0.125   3.558 -25.667  0.00  0.00    -0.495 OA
ATOM     24  C   UNL     1       1.226   4.120 -25.886  0.00  0.00    +0.276 C 
ENDBRANCH  19  23
BRANCH   1  25
ATOM     25  C   UNL     1      -1.336   3.669 -25.295  0.00  0.00    +0.057 C 
BRANCH  25  26
ATOM     26  C   UNL     1      -2.410   3.876 -25.952  0.00  0.00    +0.004 C 
BRANCH  26  28
ATOM     27  C   UNL     1      -3.706   3.429 -27.648  0.00  0.00    +0.004 C 
ATOM     28  C   UNL     1      -2.559   3.433 -27.118  0.00  0.00    -0.003 C 
ENDBRANCH  26  28
ENDBRANCH  25  26
ENDBRANCH   1  25
TORSDOF 5
ENDMDL
MODEL 6
REMARK VINA RESULT:    -8.452      1.489      3.557
REMARK INTER + INTRA:          -5.580
REMARK INTER:                 -11.040
REMARK INTRA:                   5.460
REMARK UNBOUND:                 5.343
REMARK  Name = CCCC[C@@]12Oc3c(OC)ccc4c3[C@]13CCN(C)[C@H](C4)C3=CC=C2OC             ZINC000100393621
REMARK  9 active torsions:
REMARK  status: ('A' for Active; 'I' for Inactive)
REMARK    1  A    between atoms: C_1  and  C_2
REMARK    2  A    between atoms: C_2  and  C_3
REMARK    3  A    between atoms: C_3  and  C_4
REMARK    4  A    between atoms: C_4  and  C_5
REMARK    5  A    between atoms: C_8  and  O_9
REMARK    6  A    between atoms: O_9  and  C_10
REMARK    7  A    between atoms: N_18  and  C_19
REMARK    8  A    between atoms: C_25  and  O_26
REMARK    9  A    between atoms: O_26  and  C_27
REMARK                            x       y       z     vdW  Elec       q    Type
REMARK                         _______ _______ _______ _____ _____    ______ ____
ROOT
ATOM      1  C   UNL     1      -1.528   2.617 -22.534  0.00  0.00    +0.181 C 
ATOM      2  O   UNL     1      -3.002   2.876 -22.304  0.00  0.00    -0.473 OA
ATOM      3  C   UNL     1      -3.726   3.367 -23.532  0.00  0.00    +0.168 A 
ATOM      4  C   UNL     1      -4.832   3.744 -24.031  0.00  0.00    +0.162 A 
ATOM      5  C   UNL     1      -4.883   4.087 -25.252  0.00  0.00    +0.050 A 
ATOM      6  C   UNL     1      -3.850   4.055 -25.967  0.00  0.00    +0.008 A 
ATOM      7  C   UNL     1      -2.755   3.681 -25.470  0.00  0.00    -0.034 A 
ATOM      8  C   UNL     1      -1.703   3.648 -26.193  0.00  0.00    +0.094 C 
ATOM      9  C   UNL     1      -0.613   3.275 -25.696  0.00  0.00    +0.096 C 
ATOM     10  C   UNL     1      -0.559   2.932 -24.475  0.00  0.00    -0.007 C 
ATOM     11  C   UNL     1       0.545   2.555 -23.975  0.00  0.00    +0.009 C 
ATOM     12  C   UNL     1       0.606   2.214 -22.767  0.00  0.00    +0.045 C 
ATOM     13  N   UNL     1       0.677   2.867 -25.231  0.00  0.00    +0.239 N 
ATOM     14  H   UNL     1       1.499   2.852 -25.837  0.00  0.00    +0.204 HD
ATOM     15  C   UNL     1       1.676   2.855 -25.991  0.00  0.00    +0.191 C 
ATOM     16  C   UNL     1       0.773   2.478 -23.874  0.00  0.00    +0.133 C 
ATOM     17  C   UNL     1      -0.408   2.524 -23.093  0.00  0.00    +0.071 C 
ATOM     18  C   UNL     1      -2.685   3.336 -24.255  0.00  0.00    +0.016 A 
ATOM     19  C   UNL     1      -0.435   2.245 -22.041  0.00  0.00    +0.142 C 
ATOM     20  C   UNL     1      -1.592   2.964 -23.763  0.00  0.00    +0.077 C 
ENDROOT
BRANCH   4  21
ATOM     21  O   UNL     1      -5.867   3.777 -23.321  0.00  0.00    -0.491 OA
ATOM     22  C   UNL     1      -5.901   3.159 -22.229  0.00  0.00    +0.277 C 
ENDBRANCH   4  21
BRANCH  19  23
ATOM     23  O   UNL     1      -0.370   1.903 -20.834  0.00  0.00    -0.495 OA
ATOM     24  C   UNL     1       0.715   1.493 -20.355  0.00  0.00    +0.276 C 
ENDBRANCH  19  23
BRANCH   1  25
ATOM     25  C   UNL     1      -1.743   2.330 -21.303  0.00  0.00    +0.057 C 
BRANCH  25  26
ATOM     26  C   UNL     1      -2.818   2.663 -20.702  0.00  0.00    +0.004 C 
BRANCH  26  28
ATOM     27  C   UNL     1      -3.453   3.702 -18.893  0.00  0.00    +0.004 C 
ATOM     28  C   UNL     1      -2.890   3.718 -20.024  0.00  0.00    -0.003 C 
ENDBRANCH  26  28
ENDBRANCH  25  26
ENDBRANCH   1  25
TORSDOF 5
ENDMDL
MODEL 7
REMARK VINA RESULT:    -8.182      1.870      5.565
REMARK INTER + INTRA:          -5.230
REMARK INTER:                 -10.046
REMARK INTRA:                   4.816
REMARK UNBOUND:                 5.343
REMARK  Name = CCCC[C@@]12Oc3c(OC)ccc4c3[C@]13CCN(C)[C@H](C4)C3=CC=C2OC             ZINC000100393621
REMARK  9 active torsions:
REMARK  status: ('A' for Active; 'I' for Inactive)
REMARK    1  A    between atoms: C_1  and  C_2
REMARK    2  A    between atoms: C_2  and  C_3
REMARK    3  A    between atoms: C_3  and  C_4
REMARK    4  A    between atoms: C_4  and  C_5
REMARK    5  A    between atoms: C_8  and  O_9
REMARK    6  A    between atoms: O_9  and  C_10
REMARK    7  A    between atoms: N_18  and  C_19
REMARK    8  A    between atoms: C_25  and  O_26
REMARK    9  A    between atoms: O_26  and  C_27
REMARK                            x       y       z     vdW  Elec       q    Type
REMARK                         _______ _______ _______ _____ _____    ______ ____
ROOT
ATOM      1  C   UNL     1      -2.825   3.399 -24.044  0.00  0.00    +0.181 C 
ATOM      2  O   UNL     1      -1.581   3.310 -24.904  0.00  0.00    -0.473 OA
ATOM      3  C   UNL     1      -0.367   2.822 -24.156  0.00  0.00    +0.168 A 
ATOM      4  C   UNL     1       0.869   2.532 -24.215  0.00  0.00    +0.162 A 
ATOM      5  C   UNL     1       1.466   2.121 -23.172  0.00  0.00    +0.050 A 
ATOM      6  C   UNL     1       0.844   2.000 -22.088  0.00  0.00    +0.008 A 
ATOM      7  C   UNL     1      -0.381   2.288 -22.032  0.00  0.00    -0.034 A 
ATOM      8  C   UNL     1      -1.017   2.166 -20.931  0.00  0.00    +0.094 C 
ATOM      9  C   UNL     1      -2.238   2.454 -20.877  0.00  0.00    +0.096 C 
ATOM     10  C   UNL     1      -2.837   2.865 -21.919  0.00  0.00    -0.007 C 
ATOM     11  C   UNL     1      -4.070   3.154 -21.861  0.00  0.00    +0.009 C 
ATOM     12  C   UNL     1      -4.670   3.562 -22.888  0.00  0.00    +0.045 C 
ATOM     13  N   UNL     1      -3.626   2.753 -20.707  0.00  0.00    +0.239 N 
ATOM     14  H   UNL     1      -4.104   2.644 -19.812  0.00  0.00    +0.204 HD
ATOM     15  C   UNL     1      -4.197   2.613 -19.598  0.00  0.00    +0.191 C 
ATOM     16  C   UNL     1      -4.324   3.214 -21.848  0.00  0.00    +0.133 C 
ATOM     17  C   UNL     1      -3.597   3.340 -23.057  0.00  0.00    +0.071 C 
ATOM     18  C   UNL     1      -0.992   2.699 -23.060  0.00  0.00    +0.016 A 
ATOM     19  C   UNL     1      -4.046   3.686 -23.986  0.00  0.00    +0.142 C 
ATOM     20  C   UNL     1      -2.213   2.985 -23.001  0.00  0.00    +0.077 C 
ENDROOT
BRANCH   4  21
ATOM     21  O   UNL     1       1.495   2.651 -25.297  0.00  0.00    -0.491 OA
ATOM     22  C   UNL     1       2.323   1.774 -25.645  0.00  0.00    +0.277 C 
ENDBRANCH   4  21
BRANCH  19  23
ATOM     23  O   UNL     1      -4.649   4.093 -25.010  0.00  0.00    -0.495 OA
ATOM     24  C   UNL     1      -5.841   3.758 -25.212  0.00  0.00    +0.276 C 
ENDBRANCH  19  23
BRANCH   1  25
ATOM     25  C   UNL     1      -3.182   3.784 -25.215  0.00  0.00    +0.057 C 
BRANCH  25  26
ATOM     26  C   UNL     1      -2.608   3.368 -26.275  0.00  0.00    +0.004 C 
BRANCH  26  28
ATOM     27  C   UNL     1      -3.619   3.288 -28.205  0.00  0.00    +0.004 C 
ATOM     28  C   UNL     1      -2.851   3.881 -27.396  0.00  0.00    -0.003 C 
ENDBRANCH  26  28
ENDBRANCH  25  26
ENDBRANCH   1  25
TORSDOF 5
ENDMDL
MODEL 8
REMARK VINA RESULT:    -7.503      1.759      5.105
REMARK INTER + INTRA:          -4.353
REMARK INTER:                  -9.696
REMARK INTRA:                   5.343
REMARK UNBOUND:                 5.343
REMARK  Name = CCCC[C@@]12Oc3c(OC)ccc4c3[C@]13CCN(C)[C@H](C4)C3=CC=C2OC             ZINC000100393621
REMARK  9 active torsions:
REMARK  status: ('A' for Active; 'I' for Inactive)
REMARK    1  A    between atoms: C_1  and  C_2
REMARK    2  A    between atoms: C_2  and  C_3
REMARK    3  A    between atoms: C_3  and  C_4
REMARK    4  A    between atoms: C_4  and  C_5
REMARK    5  A    between atoms: C_8  and  O_9
REMARK    6  A    between atoms: O_9  and  C_10
REMARK    7  A    between atoms: N_18  and  C_19
REMARK    8  A    between atoms: C_25  and  O_26
REMARK    9  A    between atoms: O_26  and  C_27
REMARK                            x       y       z     vdW  Elec       q    Type
REMARK                         _______ _______ _______ _____ _____    ______ ____
ROOT
ATOM      1  C   UNL     1      -2.649   3.045 -22.389  0.00  0.00    +0.181 C 
ATOM      2  O   UNL     1      -3.806   3.428 -23.288  0.00  0.00    -0.473 OA
ATOM      3  C   UNL     1      -3.419   3.579 -24.736  0.00  0.00    +0.168 A 
ATOM      4  C   UNL     1      -3.809   3.848 -25.916  0.00  0.00    +0.162 A 
ATOM      5  C   UNL     1      -2.973   3.827 -26.871  0.00  0.00    +0.050 A 
ATOM      6  C   UNL     1      -1.768   3.543 -26.658  0.00  0.00    +0.008 A 
ATOM      7  C   UNL     1      -1.384   3.277 -25.488  0.00  0.00    -0.034 A 
ATOM      8  C   UNL     1      -0.160   2.989 -25.267  0.00  0.00    +0.094 C 
ATOM      9  C   UNL     1       0.221   2.724 -24.101  0.00  0.00    +0.096 C 
ATOM     10  C   UNL     1      -0.613   2.744 -23.144  0.00  0.00    -0.007 C 
ATOM     11  C   UNL     1      -0.225   2.476 -21.966  0.00  0.00    +0.009 C 
ATOM     12  C   UNL     1      -1.045   2.494 -21.013  0.00  0.00    +0.045 C 
ATOM     13  N   UNL     1       0.759   2.407 -22.813  0.00  0.00    +0.239 N 
ATOM     14  H   UNL     1       1.743   2.181 -22.672  0.00  0.00    +0.204 HD
ATOM     15  C   UNL     1       1.973   2.131 -22.659  0.00  0.00    +0.191 C 
ATOM     16  C   UNL     1      -0.144   2.421 -21.724  0.00  0.00    +0.133 C 
ATOM     17  C   UNL     1      -1.496   2.744 -21.995  0.00  0.00    +0.071 C 
ATOM     18  C   UNL     1      -2.202   3.293 -24.524  0.00  0.00    +0.016 A 
ATOM     19  C   UNL     1      -2.263   2.780 -21.224  0.00  0.00    +0.142 C 
ATOM     20  C   UNL     1      -1.817   3.028 -23.360  0.00  0.00    +0.077 C 
ENDROOT
BRANCH   4  21
ATOM     21  O   UNL     1      -5.013   4.132 -26.134  0.00  0.00    -0.491 OA
ATOM     22  C   UNL     1      -5.923   3.379 -25.711  0.00  0.00    +0.277 C 
ENDBRANCH   4  21
BRANCH  19  23
ATOM     23  O   UNL     1      -3.080   2.797 -20.270  0.00  0.00    -0.495 OA
ATOM     24  C   UNL     1      -2.998   3.688 -19.389  0.00  0.00    +0.276 C 
ENDBRANCH  19  23
BRANCH   1  25
ATOM     25  C   UNL     1      -3.672   3.135 -21.620  0.00  0.00    +0.057 C 
BRANCH  25  26
ATOM     26  C   UNL     1      -4.865   3.143 -22.070  0.00  0.00    +0.004 C 
BRANCH  26  28
ATOM     27  C   UNL     1      -6.985   2.666 -21.890  0.00  0.00    +0.004 C 
ATOM     28  C   UNL     1      -5.809   2.613 -21.432  0.00  0.00    -0.003 C 
ENDBRANCH  26  28
ENDBRANCH  25  26
ENDBRANCH   1  25
TORSDOF 5
ENDMDL
MODEL 9
REMARK VINA RESULT:    -7.428      1.270      4.452
REMARK INTER + INTRA:          -4.257
REMARK INTER:                  -9.645
REMARK INTRA:                   5.389
REMARK UNBOUND:                 5.343
REMARK  Name = CCCC[C@@]12Oc3c(OC)ccc4c3[C@]13CCN(C)[C@H](C4)C3=CC=C2OC             ZINC000100393621
REMARK  9 active torsions:
REMARK  status: ('A' for Active; 'I' for Inactive)
REMARK    1  A    between atoms: C_1  and  C_2
REMARK    2  A    between atoms: C_2  and  C_3
REMARK    3  A    between atoms: C_3  and  C_4
REMARK    4  A    between atoms: C_4  and  C_5
REMARK    5  A    between atoms: C_8  and  O_9
REMARK    6  A    between atoms: O_9  and  C_10
REMARK    7  A    between atoms: N_18  and  C_19
REMARK    8  A    between atoms: C_25  and  O_26
REMARK    9  A    between atoms: O_26  and  C_27
REMARK                            x       y       z     vdW  Elec       q    Type
REMARK                         _______ _______ _______ _____ _____    ______ ____
ROOT
ATOM      1  C   UNL     1      -1.651   2.676 -22.465  0.00  0.00    +0.181 C 
ATOM      2  O   UNL     1      -0.155   2.435 -22.464  0.00  0.00    -0.473 OA
ATOM      3  C   UNL     1       0.508   2.766 -23.776  0.00  0.00    +0.168 A 
ATOM      4  C   UNL     1       1.595   2.811 -24.434  0.00  0.00    +0.162 A 
ATOM      5  C   UNL     1       1.582   3.214 -25.637  0.00  0.00    +0.050 A 
ATOM      6  C   UNL     1       0.506   3.568 -26.180  0.00  0.00    +0.008 A 
ATOM      7  C   UNL     1      -0.570   3.523 -25.526  0.00  0.00    -0.034 A 
ATOM      8  C   UNL     1      -1.666   3.882 -26.074  0.00  0.00    +0.094 C 
ATOM      9  C   UNL     1      -2.738   3.836 -25.421  0.00  0.00    +0.096 C 
ATOM     10  C   UNL     1      -2.727   3.433 -24.217  0.00  0.00    -0.007 C 
ATOM     11  C   UNL     1      -3.811   3.388 -23.560  0.00  0.00    +0.009 C 
ATOM     12  C   UNL     1      -3.810   2.990 -22.368  0.00  0.00    +0.045 C 
ATOM     13  N   UNL     1      -4.011   3.824 -24.769  0.00  0.00    +0.239 N 
ATOM     14  H   UNL     1      -4.869   4.117 -25.237  0.00  0.00    +0.204 HD
ATOM     15  C   UNL     1      -5.056   4.189 -25.361  0.00  0.00    +0.191 C 
ATOM     16  C   UNL     1      -4.035   3.379 -23.426  0.00  0.00    +0.133 C 
ATOM     17  C   UNL     1      -2.806   2.987 -22.841  0.00  0.00    +0.071 C 
ATOM     18  C   UNL     1      -0.577   3.124 -24.326  0.00  0.00    +0.016 A 
ATOM     19  C   UNL     1      -2.725   2.632 -21.816  0.00  0.00    +0.142 C 
ATOM     20  C   UNL     1      -1.650   3.080 -23.678  0.00  0.00    +0.077 C 
ENDROOT
BRANCH   4  21
ATOM     21  O   UNL     1       2.674   2.458 -23.896  0.00  0.00    -0.491 OA
ATOM     22  C   UNL     1       3.249   1.407 -24.270  0.00  0.00    +0.277 C 
ENDBRANCH   4  21
BRANCH  19  23
ATOM     23  O   UNL     1      -2.726   2.234 -20.624  0.00  0.00    -0.495 OA
ATOM     24  C   UNL     1      -3.644   2.590 -19.845  0.00  0.00    +0.276 C 
ENDBRANCH  19  23
BRANCH   1  25
ATOM     25  C   UNL     1      -1.369   2.239 -21.292  0.00  0.00    +0.057 C 
BRANCH  25  26
ATOM     26  C   UNL     1      -0.392   1.449 -21.074  0.00  0.00    +0.004 C 
BRANCH  26  28
ATOM     27  C   UNL     1       1.704   1.406 -20.472  0.00  0.00    +0.004 C 
ATOM     28  C   UNL     1       0.505   1.731 -20.240  0.00  0.00    -0.003 C 
ENDBRANCH  26  28
ENDBRANCH  25  26
ENDBRANCH   1  25
TORSDOF 5
ENDMDL
