MODEL 1
REMARK VINA RESULT:   -10.095      0.000      0.000
REMARK INTER + INTRA:          -8.917
REMARK INTER:                 -10.081
REMARK INTRA:                   1.164
REMARK UNBOUND:                 2.359
REMARK  Name = ZINC000000898126
REMARK  4 active torsions:
REMARK  status: ('A' for Active; 'I' for Inactive)
REMARK    1  A    between atoms: C_2  and  C_3
REMARK    2  A    between atoms: C_3  and  C_4
REMARK    3  A    between atoms: C_3  and  C_5
REMARK    4  A    between atoms: C_3  and  C_6
REMARK                            x       y       z     vdW  Elec       q    Type
REMARK                         _______ _______ _______ _____ _____    ______ ____
ROOT
ATOM      1  C   UNL     1       0.843   3.924 -23.830  0.00  0.00    +0.047 A 
ATOM      2  C   UNL     1       0.010   3.811 -22.840  0.00  0.00    +0.023 A 
ATOM      3  C   UNL     1      -1.267   3.721 -23.071  0.00  0.00    +0.019 A 
ATOM      4  C   UNL     1      -2.100   3.608 -22.080  0.00  0.00    +0.023 A 
ATOM      5  C   UNL     1      -3.376   3.517 -22.312  0.00  0.00    +0.021 A 
ATOM      6  C   UNL     1      -4.398   3.398 -21.517  0.00  0.00    +0.049 A 
ATOM      7  C   UNL     1      -5.472   3.348 -22.249  0.00  0.00    +0.196 A 
ATOM      8  O   UNL     1      -5.114   3.436 -23.495  0.00  0.00    -0.463 OA
ATOM      9  C   UNL     1      -3.818   3.540 -23.534  0.00  0.00    +0.138 A 
ATOM     10  C   UNL     1      -2.984   3.653 -24.525  0.00  0.00    +0.093 A 
ATOM     11  C   UNL     1      -1.709   3.744 -24.293  0.00  0.00    +0.143 A 
ATOM     12  O   UNL     1      -0.874   3.857 -25.284  0.00  0.00    -0.422 OA
ATOM     13  C   UNL     1       0.401   3.947 -25.053  0.00  0.00    +0.341 A 
ATOM     14  O   UNL     1       1.235   4.060 -26.044  0.00  0.00    -0.245 OA
ENDROOT
BRANCH   1  15
ATOM     15  C   UNL     1       2.119   4.015 -23.599  0.00  0.00    +0.015 C 
ATOM     16  C   UNL     1       3.150   4.717 -23.231  0.00  0.00    +0.020 C 
ATOM     17  C   UNL     1       1.970   5.262 -23.265  0.00  0.00    +0.020 C 
BRANCH  15  19
ATOM     18  C   UNL     1       2.509   1.811 -23.343  0.00  0.00    +0.005 C 
ATOM     19  C   UNL     1       2.886   2.979 -23.772  0.00  0.00    -0.023 C 
ENDBRANCH  15  19
ENDBRANCH   1  15
TORSDOF 2
ENDMDL
MODEL 2
REMARK VINA RESULT:    -9.614      1.738      2.592
REMARK INTER + INTRA:          -8.380
REMARK INTER:                  -9.556
REMARK INTRA:                   1.176
REMARK UNBOUND:                 2.359
REMARK  Name = ZINC000000898126
REMARK  4 active torsions:
REMARK  status: ('A' for Active; 'I' for Inactive)
REMARK    1  A    between atoms: C_2  and  C_3
REMARK    2  A    between atoms: C_3  and  C_4
REMARK    3  A    between atoms: C_3  and  C_5
REMARK    4  A    between atoms: C_3  and  C_6
REMARK                            x       y       z     vdW  Elec       q    Type
REMARK                         _______ _______ _______ _____ _____    ______ ____
ROOT
ATOM      1  C   UNL     1       1.171   2.789 -23.410  0.00  0.00    +0.047 A 
ATOM      2  C   UNL     1       0.321   3.351 -24.216  0.00  0.00    +0.023 A 
ATOM      3  C   UNL     1      -0.948   3.347 -23.929  0.00  0.00    +0.019 A 
ATOM      4  C   UNL     1      -1.798   3.910 -24.735  0.00  0.00    +0.023 A 
ATOM      5  C   UNL     1      -3.066   3.906 -24.448  0.00  0.00    +0.021 A 
ATOM      6  C   UNL     1      -4.100   4.388 -25.071  0.00  0.00    +0.049 A 
ATOM      7  C   UNL     1      -5.157   4.118 -24.362  0.00  0.00    +0.196 A 
ATOM      8  O   UNL     1      -4.775   3.470 -23.302  0.00  0.00    -0.463 OA
ATOM      9  C   UNL     1      -3.483   3.339 -23.355  0.00  0.00    +0.138 A 
ATOM     10  C   UNL     1      -2.632   2.776 -22.549  0.00  0.00    +0.093 A 
ATOM     11  C   UNL     1      -1.365   2.780 -22.836  0.00  0.00    +0.143 A 
ATOM     12  O   UNL     1      -0.513   2.217 -22.030  0.00  0.00    -0.422 OA
ATOM     13  C   UNL     1       0.754   2.222 -22.317  0.00  0.00    +0.341 A 
ATOM     14  O   UNL     1       1.605   1.659 -21.512  0.00  0.00    -0.245 OA
ENDROOT
BRANCH   1  15
ATOM     15  C   UNL     1       2.439   2.793 -23.697  0.00  0.00    +0.015 C 
ATOM     16  C   UNL     1       3.445   2.302 -24.358  0.00  0.00    +0.020 C 
ATOM     17  C   UNL     1       2.256   1.805 -24.522  0.00  0.00    +0.020 C 
BRANCH  15  19
ATOM     18  C   UNL     1       2.935   4.918 -23.137  0.00  0.00    +0.005 C 
ATOM     19  C   UNL     1       3.232   3.651 -23.127  0.00  0.00    -0.023 C 
ENDBRANCH  15  19
ENDBRANCH   1  15
TORSDOF 2
ENDMDL
MODEL 3
REMARK VINA RESULT:    -9.366      2.034      5.926
REMARK INTER + INTRA:          -8.103
REMARK INTER:                  -9.508
REMARK INTRA:                   1.405
REMARK UNBOUND:                 2.359
REMARK  Name = ZINC000000898126
REMARK  4 active torsions:
REMARK  status: ('A' for Active; 'I' for Inactive)
REMARK    1  A    between atoms: C_2  and  C_3
REMARK    2  A    between atoms: C_3  and  C_4
REMARK    3  A    between atoms: C_3  and  C_5
REMARK    4  A    between atoms: C_3  and  C_6
REMARK                            x       y       z     vdW  Elec       q    Type
REMARK                         _______ _______ _______ _____ _____    ______ ____
ROOT
ATOM      1  C   UNL     1      -1.384   3.369 -22.349  0.00  0.00    +0.047 A 
ATOM      2  C   UNL     1      -0.683   2.380 -21.880  0.00  0.00    +0.023 A 
ATOM      3  C   UNL     1       0.596   2.323 -22.110  0.00  0.00    +0.019 A 
ATOM      4  C   UNL     1       1.297   1.334 -21.641  0.00  0.00    +0.023 A 
ATOM      5  C   UNL     1       2.575   1.277 -21.871  0.00  0.00    +0.021 A 
ATOM      6  C   UNL     1       3.484   0.415 -21.524  0.00  0.00    +0.049 A 
ATOM      7  C   UNL     1       4.623   0.815 -22.008  0.00  0.00    +0.196 A 
ATOM      8  O   UNL     1       4.418   1.924 -22.654  0.00  0.00    -0.463 OA
ATOM      9  C   UNL     1       3.152   2.210 -22.569  0.00  0.00    +0.138 A 
ATOM     10  C   UNL     1       2.451   3.199 -23.037  0.00  0.00    +0.093 A 
ATOM     11  C   UNL     1       1.173   3.256 -22.808  0.00  0.00    +0.143 A 
ATOM     12  O   UNL     1       0.471   4.245 -23.276  0.00  0.00    -0.422 OA
ATOM     13  C   UNL     1      -0.807   4.302 -23.047  0.00  0.00    +0.341 A 
ATOM     14  O   UNL     1      -1.508   5.291 -23.515  0.00  0.00    -0.245 OA
ENDROOT
BRANCH   1  15
ATOM     15  C   UNL     1      -2.662   3.425 -22.119  0.00  0.00    +0.015 C 
ATOM     16  C   UNL     1      -3.878   3.087 -22.431  0.00  0.00    +0.020 C 
ATOM     17  C   UNL     1      -2.879   2.651 -23.140  0.00  0.00    +0.020 C 
BRANCH  15  19
ATOM     18  C   UNL     1      -2.981   3.681 -19.904  0.00  0.00    +0.005 C 
ATOM     19  C   UNL     1      -3.113   4.124 -21.120  0.00  0.00    -0.023 C 
ENDBRANCH  15  19
ENDBRANCH   1  15
TORSDOF 2
ENDMDL
MODEL 4
REMARK VINA RESULT:    -8.904      2.390      6.436
REMARK INTER + INTRA:          -7.587
REMARK INTER:                  -8.778
REMARK INTRA:                   1.191
REMARK UNBOUND:                 2.359
REMARK  Name = ZINC000000898126
REMARK  4 active torsions:
REMARK  status: ('A' for Active; 'I' for Inactive)
REMARK    1  A    between atoms: C_2  and  C_3
REMARK    2  A    between atoms: C_3  and  C_4
REMARK    3  A    between atoms: C_3  and  C_5
REMARK    4  A    between atoms: C_3  and  C_6
REMARK                            x       y       z     vdW  Elec       q    Type
REMARK                         _______ _______ _______ _____ _____    ______ ____
ROOT
ATOM      1  C   UNL     1       0.227   3.404 -23.595  0.00  0.00    +0.047 A 
ATOM      2  C   UNL     1       1.242   4.210 -23.694  0.00  0.00    +0.023 A 
ATOM      3  C   UNL     1       2.409   3.843 -23.251  0.00  0.00    +0.019 A 
ATOM      4  C   UNL     1       3.424   4.649 -23.350  0.00  0.00    +0.023 A 
ATOM      5  C   UNL     1       4.590   4.282 -22.908  0.00  0.00    +0.021 A 
ATOM      6  C   UNL     1       5.741   4.885 -22.887  0.00  0.00    +0.049 A 
ATOM      7  C   UNL     1       6.604   4.085 -22.332  0.00  0.00    +0.196 A 
ATOM      8  O   UNL     1       5.985   2.988 -22.010  0.00  0.00    -0.463 OA
ATOM      9  C   UNL     1       4.740   3.110 -22.367  0.00  0.00    +0.138 A 
ATOM     10  C   UNL     1       3.725   2.304 -22.267  0.00  0.00    +0.093 A 
ATOM     11  C   UNL     1       2.559   2.671 -22.710  0.00  0.00    +0.143 A 
ATOM     12  O   UNL     1       1.543   1.865 -22.611  0.00  0.00    -0.422 OA
ATOM     13  C   UNL     1       0.378   2.232 -23.053  0.00  0.00    +0.341 A 
ATOM     14  O   UNL     1      -0.638   1.426 -22.954  0.00  0.00    -0.245 OA
ENDROOT
BRANCH   1  15
ATOM     15  C   UNL     1      -0.939   3.771 -24.037  0.00  0.00    +0.015 C 
ATOM     16  C   UNL     1      -1.764   3.945 -25.027  0.00  0.00    +0.020 C 
ATOM     17  C   UNL     1      -0.569   3.483 -25.249  0.00  0.00    +0.020 C 
BRANCH  15  19
ATOM     18  C   UNL     1      -1.485   4.735 -22.075  0.00  0.00    +0.005 C 
ATOM     19  C   UNL     1      -1.842   4.203 -23.208  0.00  0.00    -0.023 C 
ENDBRANCH  15  19
ENDBRANCH   1  15
TORSDOF 2
ENDMDL
MODEL 5
REMARK VINA RESULT:    -8.606      1.825      2.734
REMARK INTER + INTRA:          -7.253
REMARK INTER:                  -8.452
REMARK INTRA:                   1.198
REMARK UNBOUND:                 2.359
REMARK  Name = ZINC000000898126
REMARK  4 active torsions:
REMARK  status: ('A' for Active; 'I' for Inactive)
REMARK    1  A    between atoms: C_2  and  C_3
REMARK    2  A    between atoms: C_3  and  C_4
REMARK    3  A    between atoms: C_3  and  C_5
REMARK    4  A    between atoms: C_3  and  C_6
REMARK                            x       y       z     vdW  Elec       q    Type
REMARK                         _______ _______ _______ _____ _____    ______ ____
ROOT
ATOM      1  C   UNL     1       2.255   2.827 -22.987  0.00  0.00    +0.047 A 
ATOM      2  C   UNL     1       1.119   2.259 -23.259  0.00  0.00    +0.023 A 
ATOM      3  C   UNL     1       0.075   2.987 -23.527  0.00  0.00    +0.019 A 
ATOM      4  C   UNL     1      -1.062   2.419 -23.800  0.00  0.00    +0.023 A 
ATOM      5  C   UNL     1      -2.104   3.147 -24.068  0.00  0.00    +0.021 A 
ATOM      6  C   UNL     1      -3.330   2.834 -24.366  0.00  0.00    +0.049 A 
ATOM      7  C   UNL     1      -3.994   3.938 -24.546  0.00  0.00    +0.196 A 
ATOM      8  O   UNL     1      -3.178   4.933 -24.359  0.00  0.00    -0.463 OA
ATOM      9  C   UNL     1      -2.010   4.444 -24.064  0.00  0.00    +0.138 A 
ATOM     10  C   UNL     1      -0.873   5.012 -23.791  0.00  0.00    +0.093 A 
ATOM     11  C   UNL     1       0.169   4.284 -23.523  0.00  0.00    +0.143 A 
ATOM     12  O   UNL     1       1.307   4.852 -23.251  0.00  0.00    -0.422 OA
ATOM     13  C   UNL     1       2.350   4.124 -22.983  0.00  0.00    +0.341 A 
ATOM     14  O   UNL     1       3.486   4.692 -22.710  0.00  0.00    -0.245 OA
ENDROOT
BRANCH   1  15
ATOM     15  C   UNL     1       3.298   2.099 -22.719  0.00  0.00    +0.015 C 
ATOM     16  C   UNL     1       4.293   1.366 -23.122  0.00  0.00    +0.020 C 
ATOM     17  C   UNL     1       3.482   1.895 -23.989  0.00  0.00    +0.020 C 
BRANCH  15  19
ATOM     18  C   UNL     1       2.814   1.425 -20.624  0.00  0.00    +0.005 C 
ATOM     19  C   UNL     1       3.660   1.912 -21.484  0.00  0.00    -0.023 C 
ENDBRANCH  15  19
ENDBRANCH   1  15
TORSDOF 2
ENDMDL
MODEL 6
REMARK VINA RESULT:    -7.960      2.282      3.438
REMARK INTER + INTRA:          -6.533
REMARK INTER:                  -8.438
REMARK INTRA:                   1.905
REMARK UNBOUND:                 2.359
REMARK  Name = ZINC000000898126
REMARK  4 active torsions:
REMARK  status: ('A' for Active; 'I' for Inactive)
REMARK    1  A    between atoms: C_2  and  C_3
REMARK    2  A    between atoms: C_3  and  C_4
REMARK    3  A    between atoms: C_3  and  C_5
REMARK    4  A    between atoms: C_3  and  C_6
REMARK                            x       y       z     vdW  Elec       q    Type
REMARK                         _______ _______ _______ _____ _____    ______ ____
ROOT
ATOM      1  C   UNL     1       3.168   3.609 -22.947  0.00  0.00    +0.047 A 
ATOM      2  C   UNL     1       2.344   3.981 -23.881  0.00  0.00    +0.023 A 
ATOM      3  C   UNL     1       1.137   3.499 -23.914  0.00  0.00    +0.019 A 
ATOM      4  C   UNL     1       0.313   3.871 -24.847  0.00  0.00    +0.023 A 
ATOM      5  C   UNL     1      -0.894   3.389 -24.879  0.00  0.00    +0.021 A 
ATOM      6  C   UNL     1      -1.891   3.593 -25.689  0.00  0.00    +0.049 A 
ATOM      7  C   UNL     1      -2.889   2.863 -25.287  0.00  0.00    +0.196 A 
ATOM      8  O   UNL     1      -2.510   2.209 -24.230  0.00  0.00    -0.463 OA
ATOM      9  C   UNL     1      -1.276   2.534 -23.978  0.00  0.00    +0.138 A 
ATOM     10  C   UNL     1      -0.452   2.161 -23.044  0.00  0.00    +0.093 A 
ATOM     11  C   UNL     1       0.754   2.644 -23.012  0.00  0.00    +0.143 A 
ATOM     12  O   UNL     1       1.579   2.271 -22.078  0.00  0.00    -0.422 OA
ATOM     13  C   UNL     1       2.785   2.754 -22.046  0.00  0.00    +0.341 A 
ATOM     14  O   UNL     1       3.609   2.382 -21.112  0.00  0.00    -0.245 OA
ENDROOT
BRANCH   1  15
ATOM     15  C   UNL     1       4.374   4.091 -22.915  0.00  0.00    +0.015 C 
ATOM     16  C   UNL     1       5.178   5.113 -22.896  0.00  0.00    +0.020 C 
ATOM     17  C   UNL     1       3.892   5.298 -22.932  0.00  0.00    +0.020 C 
BRANCH  15  19
ATOM     18  C   UNL     1       6.018   2.983 -23.985  0.00  0.00    +0.005 C 
ATOM     19  C   UNL     1       5.395   3.287 -22.884  0.00  0.00    -0.023 C 
ENDBRANCH  15  19
ENDBRANCH   1  15
TORSDOF 2
ENDMDL
MODEL 7
REMARK VINA RESULT:    -7.784      3.180      5.108
REMARK INTER + INTRA:          -6.335
REMARK INTER:                  -7.502
REMARK INTRA:                   1.167
REMARK UNBOUND:                 2.359
REMARK  Name = ZINC000000898126
REMARK  4 active torsions:
REMARK  status: ('A' for Active; 'I' for Inactive)
REMARK    1  A    between atoms: C_2  and  C_3
REMARK    2  A    between atoms: C_3  and  C_4
REMARK    3  A    between atoms: C_3  and  C_5
REMARK    4  A    between atoms: C_3  and  C_6
REMARK                            x       y       z     vdW  Elec       q    Type
REMARK                         _______ _______ _______ _____ _____    ______ ____
ROOT
ATOM      1  C   UNL     1       5.134   3.873 -22.591  0.00  0.00    +0.047 A 
ATOM      2  C   UNL     1       4.105   4.050 -23.366  0.00  0.00    +0.023 A 
ATOM      3  C   UNL     1       2.994   3.418 -23.126  0.00  0.00    +0.019 A 
ATOM      4  C   UNL     1       1.966   3.596 -23.902  0.00  0.00    +0.023 A 
ATOM      5  C   UNL     1       0.855   2.964 -23.662  0.00  0.00    +0.021 A 
ATOM      6  C   UNL     1      -0.294   2.965 -24.270  0.00  0.00    +0.049 A 
ATOM      7  C   UNL     1      -1.087   2.156 -23.630  0.00  0.00    +0.196 A 
ATOM      8  O   UNL     1      -0.428   1.657 -22.628  0.00  0.00    -0.463 OA
ATOM      9  C   UNL     1       0.773   2.156 -22.647  0.00  0.00    +0.138 A 
ATOM     10  C   UNL     1       1.801   1.979 -21.872  0.00  0.00    +0.093 A 
ATOM     11  C   UNL     1       2.912   2.610 -22.112  0.00  0.00    +0.143 A 
ATOM     12  O   UNL     1       3.941   2.433 -21.336  0.00  0.00    -0.422 OA
ATOM     13  C   UNL     1       5.051   3.064 -21.576  0.00  0.00    +0.341 A 
ATOM     14  O   UNL     1       6.079   2.887 -20.801  0.00  0.00    -0.245 OA
ENDROOT
BRANCH   1  15
ATOM     15  C   UNL     1       6.244   4.504 -22.830  0.00  0.00    +0.015 C 
ATOM     16  C   UNL     1       7.352   4.618 -23.500  0.00  0.00    +0.020 C 
ATOM     17  C   UNL     1       6.537   3.638 -23.755  0.00  0.00    +0.020 C 
BRANCH  15  19
ATOM     18  C   UNL     1       5.663   6.511 -21.989  0.00  0.00    +0.005 C 
ATOM     19  C   UNL     1       6.546   5.569 -22.149  0.00  0.00    -0.023 C 
ENDBRANCH  15  19
ENDBRANCH   1  15
TORSDOF 2
ENDMDL
MODEL 8
REMARK VINA RESULT:    -7.664      1.709      6.052
REMARK INTER + INTRA:          -6.201
REMARK INTER:                  -8.560
REMARK INTRA:                   2.359
REMARK UNBOUND:                 2.359
REMARK  Name = ZINC000000898126
REMARK  4 active torsions:
REMARK  status: ('A' for Active; 'I' for Inactive)
REMARK    1  A    between atoms: C_2  and  C_3
REMARK    2  A    between atoms: C_3  and  C_4
REMARK    3  A    between atoms: C_3  and  C_5
REMARK    4  A    between atoms: C_3  and  C_6
REMARK                            x       y       z     vdW  Elec       q    Type
REMARK                         _______ _______ _______ _____ _____    ______ ____
ROOT
ATOM      1  C   UNL     1      -3.493   3.446 -22.535  0.00  0.00    +0.047 A 
ATOM      2  C   UNL     1      -2.810   2.991 -23.543  0.00  0.00    +0.023 A 
ATOM      3  C   UNL     1      -1.523   3.172 -23.590  0.00  0.00    +0.019 A 
ATOM      4  C   UNL     1      -0.839   2.717 -24.598  0.00  0.00    +0.023 A 
ATOM      5  C   UNL     1       0.447   2.898 -24.645  0.00  0.00    +0.021 A 
ATOM      6  C   UNL     1       1.343   2.551 -25.521  0.00  0.00    +0.049 A 
ATOM      7  C   UNL     1       2.499   2.972 -25.102  0.00  0.00    +0.196 A 
ATOM      8  O   UNL     1       2.318   3.580 -23.967  0.00  0.00    -0.463 OA
ATOM      9  C   UNL     1       1.050   3.534 -23.685  0.00  0.00    +0.138 A 
ATOM     10  C   UNL     1       0.366   3.989 -22.677  0.00  0.00    +0.093 A 
ATOM     11  C   UNL     1      -0.920   3.808 -22.630  0.00  0.00    +0.143 A 
ATOM     12  O   UNL     1      -1.604   4.263 -21.622  0.00  0.00    -0.422 OA
ATOM     13  C   UNL     1      -2.891   4.082 -21.575  0.00  0.00    +0.341 A 
ATOM     14  O   UNL     1      -3.574   4.537 -20.567  0.00  0.00    -0.245 OA
ENDROOT
BRANCH   1  15
ATOM     15  C   UNL     1      -4.779   3.265 -22.488  0.00  0.00    +0.015 C 
ATOM     16  C   UNL     1      -5.824   2.758 -21.903  0.00  0.00    +0.020 C 
ATOM     17  C   UNL     1      -4.641   2.566 -21.401  0.00  0.00    +0.020 C 
BRANCH  15  19
ATOM     18  C   UNL     1      -5.027   4.531 -24.334  0.00  0.00    +0.005 C 
ATOM     19  C   UNL     1      -5.542   3.780 -23.406  0.00  0.00    -0.023 C 
ENDBRANCH  15  19
ENDBRANCH   1  15
TORSDOF 2
ENDMDL
MODEL 9
REMARK VINA RESULT:    -7.400      3.466      5.821
REMARK INTER + INTRA:          -5.907
REMARK INTER:                  -7.076
REMARK INTRA:                   1.169
REMARK UNBOUND:                 2.359
REMARK  Name = ZINC000000898126
REMARK  4 active torsions:
REMARK  status: ('A' for Active; 'I' for Inactive)
REMARK    1  A    between atoms: C_2  and  C_3
REMARK    2  A    between atoms: C_3  and  C_4
REMARK    3  A    between atoms: C_3  and  C_5
REMARK    4  A    between atoms: C_3  and  C_6
REMARK                            x       y       z     vdW  Elec       q    Type
REMARK                         _______ _______ _______ _____ _____    ______ ____
ROOT
ATOM      1  C   UNL     1       6.291   4.511 -22.858  0.00  0.00    +0.047 A 
ATOM      2  C   UNL     1       5.162   5.155 -22.840  0.00  0.00    +0.023 A 
ATOM      3  C   UNL     1       4.062   4.548 -23.176  0.00  0.00    +0.019 A 
ATOM      4  C   UNL     1       2.933   5.192 -23.158  0.00  0.00    +0.023 A 
ATOM      5  C   UNL     1       1.834   4.584 -23.494  0.00  0.00    +0.021 A 
ATOM      6  C   UNL     1       0.601   4.991 -23.560  0.00  0.00    +0.049 A 
ATOM      7  C   UNL     1      -0.131   3.991 -23.954  0.00  0.00    +0.196 A 
ATOM      8  O   UNL     1       0.649   2.967 -24.132  0.00  0.00    -0.463 OA
ATOM      9  C   UNL     1       1.864   3.334 -23.848  0.00  0.00    +0.138 A 
ATOM     10  C   UNL     1       2.993   2.690 -23.866  0.00  0.00    +0.093 A 
ATOM     11  C   UNL     1       4.092   3.297 -23.530  0.00  0.00    +0.143 A 
ATOM     12  O   UNL     1       5.222   2.654 -23.547  0.00  0.00    -0.422 OA
ATOM     13  C   UNL     1       6.321   3.261 -23.211  0.00  0.00    +0.341 A 
ATOM     14  O   UNL     1       7.450   2.617 -23.229  0.00  0.00    -0.245 OA
ENDROOT
BRANCH   1  15
ATOM     15  C   UNL     1       7.390   5.118 -22.522  0.00  0.00    +0.015 C 
ATOM     16  C   UNL     1       8.358   5.936 -22.811  0.00  0.00    +0.020 C 
ATOM     17  C   UNL     1       7.422   5.702 -23.682  0.00  0.00    +0.020 C 
BRANCH  15  19
ATOM     18  C   UNL     1       7.198   5.109 -20.277  0.00  0.00    +0.005 C 
ATOM     19  C   UNL     1       7.911   4.916 -21.348  0.00  0.00    -0.023 C 
ENDBRANCH  15  19
ENDBRANCH   1  15
TORSDOF 2
ENDMDL
