MODEL 1
REMARK VINA RESULT:   -10.787      0.000      0.000
REMARK INTER + INTRA:         -11.102
REMARK INTER:                 -11.102
REMARK INTRA:                   0.000
REMARK UNBOUND:                 0.000
REMARK  Name = ZINC000029221936
REMARK  2 active torsions:
REMARK  status: ('A' for Active; 'I' for Inactive)
REMARK    1  A    between atoms: C_1  and  N_2
REMARK    2  A    between atoms: C_17  and  O_18
REMARK                            x       y       z     vdW  Elec       q    Type
REMARK                         _______ _______ _______ _____ _____    ______ ____
ROOT
ATOM      1  C   UNL     1      -3.683   2.995 -20.282  0.00  0.00    +0.190 C 
ATOM      2  N   UNL     1      -3.451   3.092 -21.774  0.00  0.00    +0.236 N 
ATOM      3  H   UNL     1      -4.154   3.417 -22.439  0.00  0.00    +0.203 HD
ATOM      4  C   UNL     1      -3.320   3.186 -22.945  0.00  0.00    +0.132 C 
ATOM      5  C   UNL     1      -2.332   2.919 -23.597  0.00  0.00    +0.063 C 
ATOM      6  C   UNL     1      -1.550   2.594 -23.156  0.00  0.00    +0.015 C 
ATOM      7  C   UNL     1      -0.469   2.286 -23.735  0.00  0.00    +0.086 C 
ATOM      8  C   UNL     1       0.547   1.849 -23.038  0.00  0.00    +0.134 C 
ATOM      9  C   UNL     1       0.461   1.722 -21.724  0.00  0.00    +0.075 C 
ATOM     10  C   UNL     1      -0.637   2.029 -21.083  0.00  0.00    +0.017 C 
ATOM     11  O   UNL     1       1.634   1.546 -23.677  0.00  0.00    -0.297 OA
ATOM     12  C   UNL     1      -3.011   3.182 -23.813  0.00  0.00    -0.033 A 
ATOM     13  C   UNL     1      -2.935   3.307 -25.092  0.00  0.00    +0.050 A 
ATOM     14  C   UNL     1      -3.938   3.736 -25.755  0.00  0.00    +0.117 A 
ATOM     15  C   UNL     1      -5.031   4.045 -25.145  0.00  0.00    +0.046 A 
ATOM     16  C   UNL     1      -5.114   3.920 -23.856  0.00  0.00    +0.007 A 
ATOM     17  C   UNL     1      -4.111   3.491 -23.190  0.00  0.00    -0.038 A 
ATOM     18  C   UNL     1      -4.148   3.362 -22.000  0.00  0.00    +0.090 C 
ATOM     19  C   UNL     1      -1.647   2.458 -21.731  0.00  0.00    +0.049 C 
ATOM     20  C   UNL     1      -2.836   2.812 -21.223  0.00  0.00    +0.072 C 
ENDROOT
BRANCH  14  21
ATOM     21  O   UNL     1      -3.696   3.811 -27.092  0.00  0.00    -0.507 OA
ATOM     22  H   UNL     1      -2.841   3.617 -27.424  0.00  0.00    +0.292 HD
ENDBRANCH  14  21
TORSDOF 1
ENDMDL
MODEL 2
REMARK VINA RESULT:   -10.743      2.345      3.631
REMARK INTER + INTRA:         -11.057
REMARK INTER:                 -11.057
REMARK INTRA:                   0.000
REMARK UNBOUND:                 0.000
REMARK  Name = ZINC000029221936
REMARK  2 active torsions:
REMARK  status: ('A' for Active; 'I' for Inactive)
REMARK    1  A    between atoms: C_1  and  N_2
REMARK    2  A    between atoms: C_17  and  O_18
REMARK                            x       y       z     vdW  Elec       q    Type
REMARK                         _______ _______ _______ _____ _____    ______ ____
ROOT
ATOM      1  C   UNL     1      -3.002   3.367 -26.337  0.00  0.00    +0.190 C 
ATOM      2  N   UNL     1      -2.811   3.509 -24.842  0.00  0.00    +0.236 N 
ATOM      3  H   UNL     1      -3.573   3.462 -24.165  0.00  0.00    +0.203 HD
ATOM      4  C   UNL     1      -2.716   3.614 -23.668  0.00  0.00    +0.132 C 
ATOM      5  C   UNL     1      -1.701   3.797 -23.028  0.00  0.00    +0.063 C 
ATOM      6  C   UNL     1      -0.864   3.872 -23.482  0.00  0.00    +0.015 C 
ATOM      7  C   UNL     1       0.250   4.063 -22.916  0.00  0.00    +0.086 C 
ATOM      8  C   UNL     1       1.342   4.151 -23.630  0.00  0.00    +0.134 C 
ATOM      9  C   UNL     1       1.298   4.041 -24.947  0.00  0.00    +0.075 C 
ATOM     10  C   UNL     1       0.168   3.844 -25.576  0.00  0.00    +0.017 C 
ATOM     11  O   UNL     1       2.460   4.347 -23.004  0.00  0.00    -0.297 OA
ATOM     12  C   UNL     1      -2.422   3.720 -22.801  0.00  0.00    -0.033 A 
ATOM     13  C   UNL     1      -2.387   3.825 -21.519  0.00  0.00    +0.050 A 
ATOM     14  C   UNL     1      -3.464   3.737 -20.840  0.00  0.00    +0.117 A 
ATOM     15  C   UNL     1      -4.591   3.542 -21.436  0.00  0.00    +0.046 A 
ATOM     16  C   UNL     1      -4.632   3.435 -22.729  0.00  0.00    +0.007 A 
ATOM     17  C   UNL     1      -3.555   3.524 -23.411  0.00  0.00    -0.038 A 
ATOM     18  C   UNL     1      -3.552   3.430 -24.605  0.00  0.00    +0.090 C 
ATOM     19  C   UNL     1      -0.916   3.753 -24.911  0.00  0.00    +0.049 C 
ATOM     20  C   UNL     1      -2.146   3.553 -25.403  0.00  0.00    +0.072 C 
ENDROOT
BRANCH  14  21
ATOM     21  O   UNL     1      -3.258   3.869 -19.501  0.00  0.00    -0.507 OA
ATOM     22  H   UNL     1      -2.565   4.416 -19.186  0.00  0.00    +0.292 HD
ENDBRANCH  14  21
TORSDOF 1
ENDMDL
MODEL 3
REMARK VINA RESULT:   -10.405      2.281      4.473
REMARK INTER + INTRA:         -10.709
REMARK INTER:                 -10.709
REMARK INTRA:                   0.000
REMARK UNBOUND:                 0.000
REMARK  Name = ZINC000029221936
REMARK  2 active torsions:
REMARK  status: ('A' for Active; 'I' for Inactive)
REMARK    1  A    between atoms: C_1  and  N_2
REMARK    2  A    between atoms: C_17  and  O_18
REMARK                            x       y       z     vdW  Elec       q    Type
REMARK                         _______ _______ _______ _____ _____    ______ ____
ROOT
ATOM      1  C   UNL     1      -3.860   3.250 -25.924  0.00  0.00    +0.190 C 
ATOM      2  N   UNL     1      -2.605   3.447 -25.103  0.00  0.00    +0.236 N 
ATOM      3  H   UNL     1      -1.670   3.534 -25.504  0.00  0.00    +0.203 HD
ATOM      4  C   UNL     1      -1.595   3.601 -24.507  0.00  0.00    +0.132 C 
ATOM      5  C   UNL     1      -1.459   3.688 -23.304  0.00  0.00    +0.063 C 
ATOM      6  C   UNL     1      -2.225   3.630 -22.737  0.00  0.00    +0.015 C 
ATOM      7  C   UNL     1      -2.198   3.707 -21.476  0.00  0.00    +0.086 C 
ATOM      8  C   UNL     1      -3.307   3.616 -20.789  0.00  0.00    +0.134 C 
ATOM      9  C   UNL     1      -4.468   3.442 -21.400  0.00  0.00    +0.075 C 
ATOM     10  C   UNL     1      -4.544   3.357 -22.703  0.00  0.00    +0.017 C 
ATOM     11  O   UNL     1      -3.229   3.701 -19.498  0.00  0.00    -0.297 OA
ATOM     12  C   UNL     1      -0.945   3.716 -23.864  0.00  0.00    -0.033 A 
ATOM     13  C   UNL     1       0.187   3.885 -23.276  0.00  0.00    +0.050 A 
ATOM     14  C   UNL     1       1.259   3.972 -23.964  0.00  0.00    +0.117 A 
ATOM     15  C   UNL     1       1.210   3.891 -25.250  0.00  0.00    +0.046 A 
ATOM     16  C   UNL     1       0.070   3.721 -25.848  0.00  0.00    +0.007 A 
ATOM     17  C   UNL     1      -1.004   3.633 -25.161  0.00  0.00    -0.038 A 
ATOM     18  C   UNL     1      -2.074   3.476 -25.676  0.00  0.00    +0.090 C 
ATOM     19  C   UNL     1      -3.482   3.442 -23.404  0.00  0.00    +0.049 C 
ATOM     20  C   UNL     1      -3.393   3.374 -24.740  0.00  0.00    +0.072 C 
ENDROOT
BRANCH  14  21
ATOM     21  O   UNL     1       2.368   4.149 -23.195  0.00  0.00    -0.507 OA
ATOM     22  H   UNL     1       3.218   4.133 -23.589  0.00  0.00    +0.292 HD
ENDBRANCH  14  21
TORSDOF 1
ENDMDL
MODEL 4
REMARK VINA RESULT:   -10.376      0.531      4.263
REMARK INTER + INTRA:         -10.679
REMARK INTER:                 -10.679
REMARK INTRA:                   0.000
REMARK UNBOUND:                 0.000
REMARK  Name = ZINC000029221936
REMARK  2 active torsions:
REMARK  status: ('A' for Active; 'I' for Inactive)
REMARK    1  A    between atoms: C_1  and  N_2
REMARK    2  A    between atoms: C_17  and  O_18
REMARK                            x       y       z     vdW  Elec       q    Type
REMARK                         _______ _______ _______ _____ _____    ______ ____
ROOT
ATOM      1  C   UNL     1      -4.165   3.135 -20.994  0.00  0.00    +0.190 C 
ATOM      2  N   UNL     1      -2.925   2.848 -21.812  0.00  0.00    +0.236 N 
ATOM      3  H   UNL     1      -2.048   2.508 -21.414  0.00  0.00    +0.203 HD
ATOM      4  C   UNL     1      -1.930   2.609 -22.404  0.00  0.00    +0.132 C 
ATOM      5  C   UNL     1      -1.744   2.717 -23.599  0.00  0.00    +0.063 C 
ATOM      6  C   UNL     1      -2.452   3.025 -24.161  0.00  0.00    +0.015 C 
ATOM      7  C   UNL     1      -2.368   3.175 -25.414  0.00  0.00    +0.086 C 
ATOM      8  C   UNL     1      -3.399   3.604 -26.093  0.00  0.00    +0.134 C 
ATOM      9  C   UNL     1      -4.538   3.888 -25.485  0.00  0.00    +0.075 C 
ATOM     10  C   UNL     1      -4.672   3.749 -24.192  0.00  0.00    +0.017 C 
ATOM     11  O   UNL     1      -3.264   3.741 -27.376  0.00  0.00    -0.297 OA
ATOM     12  C   UNL     1      -1.278   2.488 -23.044  0.00  0.00    -0.033 A 
ATOM     13  C   UNL     1      -0.166   2.209 -23.629  0.00  0.00    +0.050 A 
ATOM     14  C   UNL     1       0.829   1.791 -22.948  0.00  0.00    +0.117 A 
ATOM     15  C   UNL     1       0.723   1.646 -21.671  0.00  0.00    +0.046 A 
ATOM     16  C   UNL     1      -0.397   1.925 -21.076  0.00  0.00    +0.007 A 
ATOM     17  C   UNL     1      -1.394   2.344 -21.756  0.00  0.00    -0.038 A 
ATOM     18  C   UNL     1      -2.443   2.612 -21.244  0.00  0.00    +0.090 C 
ATOM     19  C   UNL     1      -3.687   3.332 -23.497  0.00  0.00    +0.049 C 
ATOM     20  C   UNL     1      -3.663   3.138 -22.171  0.00  0.00    +0.072 C 
ENDROOT
BRANCH  14  21
ATOM     21  O   UNL     1       1.927   1.543 -23.713  0.00  0.00    -0.507 OA
ATOM     22  H   UNL     1       2.467   2.252 -24.001  0.00  0.00    +0.292 HD
ENDBRANCH  14  21
TORSDOF 1
ENDMDL
MODEL 5
REMARK VINA RESULT:   -10.068      2.004      3.103
REMARK INTER + INTRA:         -10.363
REMARK INTER:                 -10.363
REMARK INTRA:                   0.000
REMARK UNBOUND:                 0.000
REMARK  Name = ZINC000029221936
REMARK  2 active torsions:
REMARK  status: ('A' for Active; 'I' for Inactive)
REMARK    1  A    between atoms: C_1  and  N_2
REMARK    2  A    between atoms: C_17  and  O_18
REMARK                            x       y       z     vdW  Elec       q    Type
REMARK                         _______ _______ _______ _____ _____    ______ ____
ROOT
ATOM      1  C   UNL     1      -0.401   3.739 -25.879  0.00  0.00    +0.190 C 
ATOM      2  N   UNL     1      -1.374   3.481 -24.749  0.00  0.00    +0.236 N 
ATOM      3  H   UNL     1      -2.372   3.692 -24.798  0.00  0.00    +0.203 HD
ATOM      4  C   UNL     1      -2.174   3.300 -23.897  0.00  0.00    +0.132 C 
ATOM      5  C   UNL     1      -1.978   2.828 -22.796  0.00  0.00    +0.063 C 
ATOM      6  C   UNL     1      -1.096   2.561 -22.547  0.00  0.00    +0.015 C 
ATOM      7  C   UNL     1      -0.781   2.061 -21.429  0.00  0.00    +0.086 C 
ATOM      8  C   UNL     1       0.460   1.727 -21.186  0.00  0.00    +0.134 C 
ATOM      9  C   UNL     1       1.399   1.907 -22.101  0.00  0.00    +0.075 C 
ATOM     10  C   UNL     1       1.119   2.421 -23.270  0.00  0.00    +0.017 C 
ATOM     11  O   UNL     1       0.734   1.218 -20.026  0.00  0.00    -0.297 OA
ATOM     12  C   UNL     1      -2.618   3.079 -23.120  0.00  0.00    -0.033 A 
ATOM     13  C   UNL     1      -3.537   2.907 -22.236  0.00  0.00    +0.050 A 
ATOM     14  C   UNL     1      -4.742   3.239 -22.492  0.00  0.00    +0.117 A 
ATOM     15  C   UNL     1      -5.043   3.748 -23.638  0.00  0.00    +0.046 A 
ATOM     16  C   UNL     1      -4.121   3.924 -24.534  0.00  0.00    +0.007 A 
ATOM     17  C   UNL     1      -2.913   3.592 -24.280  0.00  0.00    -0.038 A 
ATOM     18  C   UNL     1      -2.034   3.738 -25.080  0.00  0.00    +0.090 C 
ATOM     19  C   UNL     1      -0.080   2.758 -23.541  0.00  0.00    +0.049 C 
ATOM     20  C   UNL     1      -0.526   3.294 -24.686  0.00  0.00    +0.072 C 
ENDROOT
BRANCH  14  21
ATOM     21  O   UNL     1      -5.590   2.994 -21.456  0.00  0.00    -0.507 OA
ATOM     22  H   UNL     1      -5.513   3.485 -20.662  0.00  0.00    +0.292 HD
ENDBRANCH  14  21
TORSDOF 1
ENDMDL
MODEL 6
REMARK VINA RESULT:    -9.924      2.258      5.424
REMARK INTER + INTRA:         -10.214
REMARK INTER:                 -10.214
REMARK INTRA:                   0.000
REMARK UNBOUND:                 0.000
REMARK  Name = ZINC000029221936
REMARK  2 active torsions:
REMARK  status: ('A' for Active; 'I' for Inactive)
REMARK    1  A    between atoms: C_1  and  N_2
REMARK    2  A    between atoms: C_17  and  O_18
REMARK                            x       y       z     vdW  Elec       q    Type
REMARK                         _______ _______ _______ _____ _____    ______ ____
ROOT
ATOM      1  C   UNL     1      -0.520   3.711 -25.511  0.00  0.00    +0.190 C 
ATOM      2  N   UNL     1      -0.208   3.141 -24.145  0.00  0.00    +0.236 N 
ATOM      3  H   UNL     1       0.733   2.898 -23.831  0.00  0.00    +0.203 HD
ATOM      4  C   UNL     1       0.089   2.694 -23.091  0.00  0.00    +0.132 C 
ATOM      5  C   UNL     1      -0.656   2.433 -22.169  0.00  0.00    +0.063 C 
ATOM      6  C   UNL     1      -1.593   2.590 -22.261  0.00  0.00    +0.015 C 
ATOM      7  C   UNL     1      -2.457   2.355 -21.367  0.00  0.00    +0.086 C 
ATOM      8  C   UNL     1      -3.720   2.606 -21.593  0.00  0.00    +0.134 C 
ATOM      9  C   UNL     1      -4.112   3.106 -22.754  0.00  0.00    +0.075 C 
ATOM     10  C   UNL     1      -3.255   3.365 -23.707  0.00  0.00    +0.017 C 
ATOM     11  O   UNL     1      -4.567   2.348 -20.646  0.00  0.00    -0.297 OA
ATOM     12  C   UNL     1       0.098   2.360 -22.232  0.00  0.00    -0.033 A 
ATOM     13  C   UNL     1       0.487   1.873 -21.106  0.00  0.00    +0.050 A 
ATOM     14  C   UNL     1       1.724   1.636 -20.904  0.00  0.00    +0.117 A 
ATOM     15  C   UNL     1       2.589   1.882 -21.829  0.00  0.00    +0.046 A 
ATOM     16  C   UNL     1       2.202   2.373 -22.966  0.00  0.00    +0.007 A 
ATOM     17  C   UNL     1       0.964   2.612 -23.170  0.00  0.00    -0.038 A 
ATOM     18  C   UNL     1       0.568   3.065 -24.206  0.00  0.00    +0.090 C 
ATOM     19  C   UNL     1      -2.015   3.132 -23.521  0.00  0.00    +0.049 C 
ATOM     20  C   UNL     1      -1.018   3.342 -24.392  0.00  0.00    +0.072 C 
ENDROOT
BRANCH  14  21
ATOM     21  O   UNL     1       1.970   1.124 -19.667  0.00  0.00    -0.507 OA
ATOM     22  H   UNL     1       1.515   1.463 -18.922  0.00  0.00    +0.292 HD
ENDBRANCH  14  21
TORSDOF 1
ENDMDL
MODEL 7
REMARK VINA RESULT:    -9.508      1.533      4.243
REMARK INTER + INTRA:          -9.786
REMARK INTER:                  -9.786
REMARK INTRA:                   0.000
REMARK UNBOUND:                 0.000
REMARK  Name = ZINC000029221936
REMARK  2 active torsions:
REMARK  status: ('A' for Active; 'I' for Inactive)
REMARK    1  A    between atoms: C_1  and  N_2
REMARK    2  A    between atoms: C_17  and  O_18
REMARK                            x       y       z     vdW  Elec       q    Type
REMARK                         _______ _______ _______ _____ _____    ______ ____
ROOT
ATOM      1  C   UNL     1      -2.088   2.248 -20.606  0.00  0.00    +0.190 C 
ATOM      2  N   UNL     1      -1.594   2.728 -21.953  0.00  0.00    +0.236 N 
ATOM      3  H   UNL     1      -0.614   2.712 -22.238  0.00  0.00    +0.203 HD
ATOM      4  C   UNL     1      -1.158   3.090 -22.990  0.00  0.00    +0.132 C 
ATOM      5  C   UNL     1      -1.777   3.552 -23.926  0.00  0.00    +0.063 C 
ATOM      6  C   UNL     1      -2.725   3.653 -23.860  0.00  0.00    +0.015 C 
ATOM      7  C   UNL     1      -3.466   4.122 -24.771  0.00  0.00    +0.086 C 
ATOM      8  C   UNL     1      -4.756   4.218 -24.582  0.00  0.00    +0.134 C 
ATOM      9  C   UNL     1      -5.302   3.829 -23.441  0.00  0.00    +0.075 C 
ATOM     10  C   UNL     1      -4.575   3.338 -22.472  0.00  0.00    +0.017 C 
ATOM     11  O   UNL     1      -5.475   4.705 -25.545  0.00  0.00    -0.297 OA
ATOM     12  C   UNL     1      -1.034   3.419 -23.842  0.00  0.00    -0.033 A 
ATOM     13  C   UNL     1      -0.495   3.795 -24.949  0.00  0.00    +0.050 A 
ATOM     14  C   UNL     1       0.766   3.693 -25.115  0.00  0.00    +0.117 A 
ATOM     15  C   UNL     1       1.505   3.212 -24.173  0.00  0.00    +0.046 A 
ATOM     16  C   UNL     1       0.967   2.831 -23.055  0.00  0.00    +0.007 A 
ATOM     17  C   UNL     1      -0.295   2.932 -22.887  0.00  0.00    -0.038 A 
ATOM     18  C   UNL     1      -0.829   2.592 -21.870  0.00  0.00    +0.090 C 
ATOM     19  C   UNL     1      -3.314   3.230 -22.622  0.00  0.00    +0.049 C 
ATOM     20  C   UNL     1      -2.436   2.751 -21.730  0.00  0.00    +0.072 C 
ENDROOT
BRANCH  14  21
ATOM     21  O   UNL     1       1.177   4.133 -26.335  0.00  0.00    -0.507 OA
ATOM     22  H   UNL     1       1.064   3.590 -27.091  0.00  0.00    +0.292 HD
ENDBRANCH  14  21
TORSDOF 1
ENDMDL
MODEL 8
REMARK VINA RESULT:    -8.770      2.609      4.165
REMARK INTER + INTRA:          -9.027
REMARK INTER:                  -9.027
REMARK INTRA:                   0.000
REMARK UNBOUND:                 0.000
REMARK  Name = ZINC000029221936
REMARK  2 active torsions:
REMARK  status: ('A' for Active; 'I' for Inactive)
REMARK    1  A    between atoms: C_1  and  N_2
REMARK    2  A    between atoms: C_17  and  O_18
REMARK                            x       y       z     vdW  Elec       q    Type
REMARK                         _______ _______ _______ _____ _____    ______ ____
ROOT
ATOM      1  C   UNL     1       1.618   5.214 -24.292  0.00  0.00    +0.190 C 
ATOM      2  N   UNL     1       0.735   4.275 -23.501  0.00  0.00    +0.236 N 
ATOM      3  H   UNL     1      -0.277   4.384 -23.414  0.00  0.00    +0.203 HD
ATOM      4  C   UNL     1       0.001   3.571 -22.897  0.00  0.00    +0.132 C 
ATOM      5  C   UNL     1       0.294   2.581 -22.260  0.00  0.00    +0.063 C 
ATOM      6  C   UNL     1       1.206   2.302 -22.214  0.00  0.00    +0.015 C 
ATOM      7  C   UNL     1       1.621   1.289 -21.581  0.00  0.00    +0.086 C 
ATOM      8  C   UNL     1       2.894   0.992 -21.581  0.00  0.00    +0.134 C 
ATOM      9  C   UNL     1       3.763   1.742 -22.239  0.00  0.00    +0.075 C 
ATOM     10  C   UNL     1       3.379   2.799 -22.907  0.00  0.00    +0.017 C 
ATOM     11  O   UNL     1       3.272  -0.056 -20.918  0.00  0.00    -0.297 OA
ATOM     12  C   UNL     1      -0.380   2.911 -22.379  0.00  0.00    -0.033 A 
ATOM     13  C   UNL     1      -1.231   2.185 -21.742  0.00  0.00    +0.050 A 
ATOM     14  C   UNL     1      -2.470   2.492 -21.754  0.00  0.00    +0.117 A 
ATOM     15  C   UNL     1      -2.873   3.529 -22.406  0.00  0.00    +0.046 A 
ATOM     16  C   UNL     1      -2.019   4.264 -23.051  0.00  0.00    +0.007 A 
ATOM     17  C   UNL     1      -0.779   3.959 -23.040  0.00  0.00    -0.038 A 
ATOM     18  C   UNL     1       0.040   4.612 -23.622  0.00  0.00    +0.090 C 
ATOM     19  C   UNL     1       2.145   3.118 -22.929  0.00  0.00    +0.049 C 
ATOM     20  C   UNL     1       1.596   4.163 -23.563  0.00  0.00    +0.072 C 
ENDROOT
BRANCH  14  21
ATOM     21  O   UNL     1      -3.236   1.627 -21.034  0.00  0.00    -0.507 OA
ATOM     22  H   UNL     1      -3.768   1.947 -20.332  0.00  0.00    +0.292 HD
ENDBRANCH  14  21
TORSDOF 1
ENDMDL
MODEL 9
REMARK VINA RESULT:    -8.433      4.297      7.287
REMARK INTER + INTRA:          -8.680
REMARK INTER:                  -8.680
REMARK INTRA:                   0.000
REMARK UNBOUND:                 0.000
REMARK  Name = ZINC000029221936
REMARK  2 active torsions:
REMARK  status: ('A' for Active; 'I' for Inactive)
REMARK    1  A    between atoms: C_1  and  N_2
REMARK    2  A    between atoms: C_17  and  O_18
REMARK                            x       y       z     vdW  Elec       q    Type
REMARK                         _______ _______ _______ _____ _____    ______ ____
ROOT
ATOM      1  C   UNL     1       3.073   0.784 -24.566  0.00  0.00    +0.190 C 
ATOM      2  N   UNL     1       3.404   2.168 -24.053  0.00  0.00    +0.236 N 
ATOM      3  H   UNL     1       4.353   2.489 -23.853  0.00  0.00    +0.203 HD
ATOM      4  C   UNL     1       3.716   3.236 -23.653  0.00  0.00    +0.132 C 
ATOM      5  C   UNL     1       2.980   4.167 -23.398  0.00  0.00    +0.063 C 
ATOM      6  C   UNL     1       2.038   4.071 -23.519  0.00  0.00    +0.015 C 
ATOM      7  C   UNL     1       1.183   4.973 -23.285  0.00  0.00    +0.086 C 
ATOM      8  C   UNL     1      -0.088   4.739 -23.485  0.00  0.00    +0.134 C 
ATOM      9  C   UNL     1      -0.497   3.563 -23.932  0.00  0.00    +0.075 C 
ATOM     10  C   UNL     1       0.351   2.601 -24.187  0.00  0.00    +0.017 C 
ATOM     11  O   UNL     1      -0.926   5.695 -23.230  0.00  0.00    -0.297 OA
ATOM     12  C   UNL     1       3.736   4.106 -23.349  0.00  0.00    -0.033 A 
ATOM     13  C   UNL     1       4.141   5.248 -22.914  0.00  0.00    +0.050 A 
ATOM     14  C   UNL     1       5.386   5.456 -22.726  0.00  0.00    +0.117 A 
ATOM     15  C   UNL     1       6.242   4.523 -22.970  0.00  0.00    +0.046 A 
ATOM     16  C   UNL     1       5.839   3.369 -23.409  0.00  0.00    +0.007 A 
ATOM     17  C   UNL     1       4.593   3.159 -23.598  0.00  0.00    -0.038 A 
ATOM     18  C   UNL     1       4.182   2.109 -24.002  0.00  0.00    +0.090 C 
ATOM     19  C   UNL     1       1.598   2.794 -24.004  0.00  0.00    +0.049 C 
ATOM     20  C   UNL     1       2.587   1.915 -24.217  0.00  0.00    +0.072 C 
ENDROOT
BRANCH  14  21
ATOM     21  O   UNL     1       5.649   6.709 -22.265  0.00  0.00    -0.507 OA
ATOM     22  H   UNL     1       6.118   7.317 -22.803  0.00  0.00    +0.292 HD
ENDBRANCH  14  21
TORSDOF 1
ENDMDL
