MODEL 1
REMARK VINA RESULT:    -9.097      0.000      0.000
REMARK INTER + INTRA:         -10.994
REMARK INTER:                 -11.611
REMARK INTRA:                   0.616
REMARK UNBOUND:                 1.559
REMARK  Name = ZINC000005733763
REMARK  12 active torsions:
REMARK  status: ('A' for Active; 'I' for Inactive)
REMARK    1  A    between atoms: C_1  and  O_2
REMARK    2  A    between atoms: O_2  and  C_3
REMARK    3  A    between atoms: C_6  and  C_7
REMARK    4  A    between atoms: C_11  and  O_12
REMARK    5  A    between atoms: O_12  and  C_13
REMARK    6  A    between atoms: C_14  and  O_15
REMARK    7  A    between atoms: O_15  and  C_16
REMARK    8  A    between atoms: C_17  and  O_18
REMARK    9  A    between atoms: C_22  and  O_23
REMARK   10  A    between atoms: O_23  and  C_24
REMARK   11  A    between atoms: C_26  and  O_27
REMARK   12  A    between atoms: O_27  and  C_28
REMARK                            x       y       z     vdW  Elec       q    Type
REMARK                         _______ _______ _______ _____ _____    ______ ____
ROOT
ATOM      1  C   UNL     1       0.715   3.173 -23.096  0.00  0.00    +0.181 A 
ATOM      2  O   UNL     1       1.608   4.108 -23.238  0.00  0.00    -0.451 OA
ATOM      3  C   UNL     1       2.858   3.856 -22.986  0.00  0.00    +0.147 A 
ATOM      4  C   UNL     1       3.751   4.791 -23.129  0.00  0.00    +0.096 A 
ATOM      5  C   UNL     1       5.001   4.539 -22.877  0.00  0.00    +0.169 A 
ATOM      6  C   UNL     1       5.359   3.353 -22.482  0.00  0.00    +0.204 A 
ATOM      7  C   UNL     1       4.467   2.419 -22.340  0.00  0.00    +0.177 A 
ATOM      8  C   UNL     1       3.216   2.670 -22.592  0.00  0.00    +0.113 A 
ATOM      9  C   UNL     1       2.324   1.735 -22.449  0.00  0.00    +0.238 A 
ATOM     10  O   UNL     1       2.681   0.550 -22.055  0.00  0.00    -0.283 OA
ATOM     11  C   UNL     1       1.073   1.987 -22.701  0.00  0.00    +0.211 A 
ENDROOT
BRANCH   1  15
ATOM     12  C   UNL     1      -3.035   3.926 -23.853  0.00  0.00    +0.162 A 
ATOM     13  C   UNL     1      -2.207   3.706 -24.829  0.00  0.00    +0.050 A 
ATOM     14  C   UNL     1      -0.956   3.455 -24.577  0.00  0.00    +0.015 A 
ATOM     15  C   UNL     1      -0.534   3.424 -23.348  0.00  0.00    +0.025 A 
ATOM     16  C   UNL     1      -1.364   3.644 -22.370  0.00  0.00    +0.061 A 
ATOM     17  C   UNL     1      -2.614   3.894 -22.623  0.00  0.00    +0.162 A 
BRANCH  12  19
ATOM     18  C   UNL     1      -4.805   3.814 -25.241  0.00  0.00    +0.277 C 
ATOM     19  O   UNL     1      -4.286   4.176 -24.105  0.00  0.00    -0.491 OA
ENDBRANCH  12  19
BRANCH  17  20
ATOM     20  O   UNL     1      -3.443   4.114 -21.646  0.00  0.00    -0.491 OA
ATOM     21  C   UNL     1      -3.127   3.764 -20.434  0.00  0.00    +0.277 C 
ENDBRANCH  17  20
ENDBRANCH   1  15
BRANCH   7  22
ATOM     22  O   UNL     1       4.824   1.233 -21.945  0.00  0.00    -0.503 OA
ATOM     23  H   UNL     1       4.732   0.991 -21.045  0.00  0.00    +0.292 HD
ENDBRANCH   7  22
BRANCH   6  24
ATOM     24  O   UNL     1       6.609   3.101 -22.230  0.00  0.00    -0.488 OA
ATOM     25  C   UNL     1       7.445   2.918 -23.209  0.00  0.00    +0.277 C 
ENDBRANCH   6  24
BRANCH   5  26
ATOM     26  O   UNL     1       5.893   5.473 -23.020  0.00  0.00    -0.491 OA
ATOM     27  C   UNL     1       6.063   6.358 -22.082  0.00  0.00    +0.277 C 
ENDBRANCH   5  26
BRANCH  11  28
ATOM     28  O   UNL     1       0.181   1.052 -22.558  0.00  0.00    -0.488 OA
ATOM     29  C   UNL     1      -0.462   0.934 -21.434  0.00  0.00    +0.277 C 
ENDBRANCH  11  28
TORSDOF 7
ENDMDL
MODEL 2
REMARK VINA RESULT:    -9.086      0.791      1.713
REMARK INTER + INTRA:         -10.979
REMARK INTER:                 -11.455
REMARK INTRA:                   0.475
REMARK UNBOUND:                 1.559
REMARK  Name = ZINC000005733763
REMARK  12 active torsions:
REMARK  status: ('A' for Active; 'I' for Inactive)
REMARK    1  A    between atoms: C_1  and  O_2
REMARK    2  A    between atoms: O_2  and  C_3
REMARK    3  A    between atoms: C_6  and  C_7
REMARK    4  A    between atoms: C_11  and  O_12
REMARK    5  A    between atoms: O_12  and  C_13
REMARK    6  A    between atoms: C_14  and  O_15
REMARK    7  A    between atoms: O_15  and  C_16
REMARK    8  A    between atoms: C_17  and  O_18
REMARK    9  A    between atoms: C_22  and  O_23
REMARK   10  A    between atoms: O_23  and  C_24
REMARK   11  A    between atoms: C_26  and  O_27
REMARK   12  A    between atoms: O_27  and  C_28
REMARK                            x       y       z     vdW  Elec       q    Type
REMARK                         _______ _______ _______ _____ _____    ______ ____
ROOT
ATOM      1  C   UNL     1       0.724   3.194 -23.081  0.00  0.00    +0.181 A 
ATOM      2  O   UNL     1       1.619   4.126 -23.225  0.00  0.00    -0.451 OA
ATOM      3  C   UNL     1       2.871   3.863 -22.997  0.00  0.00    +0.147 A 
ATOM      4  C   UNL     1       3.767   4.795 -23.141  0.00  0.00    +0.096 A 
ATOM      5  C   UNL     1       5.020   4.533 -22.913  0.00  0.00    +0.169 A 
ATOM      6  C   UNL     1       5.377   3.340 -22.542  0.00  0.00    +0.204 A 
ATOM      7  C   UNL     1       4.482   2.408 -22.398  0.00  0.00    +0.177 A 
ATOM      8  C   UNL     1       3.229   2.670 -22.626  0.00  0.00    +0.113 A 
ATOM      9  C   UNL     1       2.334   1.738 -22.482  0.00  0.00    +0.238 A 
ATOM     10  O   UNL     1       2.691   0.545 -22.110  0.00  0.00    -0.283 OA
ATOM     11  C   UNL     1       1.081   2.001 -22.710  0.00  0.00    +0.211 A 
ENDROOT
BRANCH   1  15
ATOM     12  C   UNL     1      -3.035   3.979 -23.762  0.00  0.00    +0.162 A 
ATOM     13  C   UNL     1      -2.464   4.423 -22.683  0.00  0.00    +0.050 A 
ATOM     14  C   UNL     1      -1.210   4.161 -22.456  0.00  0.00    +0.015 A 
ATOM     15  C   UNL     1      -0.529   3.455 -23.308  0.00  0.00    +0.025 A 
ATOM     16  C   UNL     1      -1.101   3.011 -24.388  0.00  0.00    +0.061 A 
ATOM     17  C   UNL     1      -2.354   3.273 -24.615  0.00  0.00    +0.162 A 
BRANCH  12  19
ATOM     18  C   UNL     1      -5.209   3.710 -23.240  0.00  0.00    +0.277 C 
ATOM     19  O   UNL     1      -4.288   4.240 -23.989  0.00  0.00    -0.491 OA
ENDBRANCH  12  19
BRANCH  17  20
ATOM     20  O   UNL     1      -2.925   2.828 -25.695  0.00  0.00    -0.491 OA
ATOM     21  C   UNL     1      -2.901   3.540 -26.783  0.00  0.00    +0.277 C 
ENDBRANCH  17  20
ENDBRANCH   1  15
BRANCH   7  22
ATOM     22  O   UNL     1       4.840   1.215 -22.026  0.00  0.00    -0.503 OA
ATOM     23  H   UNL     1       4.207   0.629 -21.661  0.00  0.00    +0.292 HD
ENDBRANCH   7  22
BRANCH   6  24
ATOM     24  O   UNL     1       6.630   3.078 -22.314  0.00  0.00    -0.488 OA
ATOM     25  C   UNL     1       7.459   2.952 -23.308  0.00  0.00    +0.277 C 
ENDBRANCH   6  24
BRANCH   5  26
ATOM     26  O   UNL     1       5.915   5.464 -23.057  0.00  0.00    -0.491 OA
ATOM     27  C   UNL     1       6.064   6.371 -22.136  0.00  0.00    +0.277 C 
ENDBRANCH   5  26
BRANCH  11  28
ATOM     28  O   UNL     1       0.186   1.069 -22.565  0.00  0.00    -0.488 OA
ATOM     29  C   UNL     1      -0.485   0.978 -21.455  0.00  0.00    +0.277 C 
ENDBRANCH  11  28
TORSDOF 7
ENDMDL
MODEL 3
REMARK VINA RESULT:    -8.789      1.634      7.715
REMARK INTER + INTRA:         -10.570
REMARK INTER:                 -10.892
REMARK INTRA:                   0.322
REMARK UNBOUND:                 1.559
REMARK  Name = ZINC000005733763
REMARK  12 active torsions:
REMARK  status: ('A' for Active; 'I' for Inactive)
REMARK    1  A    between atoms: C_1  and  O_2
REMARK    2  A    between atoms: O_2  and  C_3
REMARK    3  A    between atoms: C_6  and  C_7
REMARK    4  A    between atoms: C_11  and  O_12
REMARK    5  A    between atoms: O_12  and  C_13
REMARK    6  A    between atoms: C_14  and  O_15
REMARK    7  A    between atoms: O_15  and  C_16
REMARK    8  A    between atoms: C_17  and  O_18
REMARK    9  A    between atoms: C_22  and  O_23
REMARK   10  A    between atoms: O_23  and  C_24
REMARK   11  A    between atoms: C_26  and  O_27
REMARK   12  A    between atoms: O_27  and  C_28
REMARK                            x       y       z     vdW  Elec       q    Type
REMARK                         _______ _______ _______ _____ _____    ______ ____
ROOT
ATOM      1  C   UNL     1       0.635   2.659 -23.091  0.00  0.00    +0.181 A 
ATOM      2  O   UNL     1      -0.433   2.708 -22.353  0.00  0.00    -0.451 OA
ATOM      3  C   UNL     1      -1.562   3.096 -22.869  0.00  0.00    +0.147 A 
ATOM      4  C   UNL     1      -2.631   3.145 -22.131  0.00  0.00    +0.096 A 
ATOM      5  C   UNL     1      -3.760   3.533 -22.647  0.00  0.00    +0.169 A 
ATOM      6  C   UNL     1      -3.820   3.870 -23.901  0.00  0.00    +0.204 A 
ATOM      7  C   UNL     1      -2.751   3.821 -24.639  0.00  0.00    +0.177 A 
ATOM      8  C   UNL     1      -1.622   3.433 -24.123  0.00  0.00    +0.113 A 
ATOM      9  C   UNL     1      -0.553   3.384 -24.862  0.00  0.00    +0.238 A 
ATOM     10  O   UNL     1      -0.613   3.721 -26.115  0.00  0.00    -0.283 OA
ATOM     11  C   UNL     1       0.576   2.997 -24.345  0.00  0.00    +0.211 A 
ENDROOT
BRANCH   1  15
ATOM     12  C   UNL     1       4.022   1.497 -21.546  0.00  0.00    +0.162 A 
ATOM     13  C   UNL     1       3.019   0.672 -21.610  0.00  0.00    +0.050 A 
ATOM     14  C   UNL     1       1.890   1.059 -22.125  0.00  0.00    +0.015 A 
ATOM     15  C   UNL     1       1.764   2.272 -22.576  0.00  0.00    +0.025 A 
ATOM     16  C   UNL     1       2.767   3.097 -22.512  0.00  0.00    +0.061 A 
ATOM     17  C   UNL     1       3.896   2.709 -21.997  0.00  0.00    +0.162 A 
BRANCH  12  19
ATOM     18  C   UNL     1       5.283  -0.111 -20.598  0.00  0.00    +0.277 C 
ATOM     19  O   UNL     1       5.150   1.109 -21.030  0.00  0.00    -0.491 OA
ENDBRANCH  12  19
BRANCH  17  20
ATOM     20  O   UNL     1       4.898   3.534 -21.933  0.00  0.00    -0.491 OA
ATOM     21  C   UNL     1       5.172   4.304 -22.944  0.00  0.00    +0.277 C 
ENDBRANCH  17  20
ENDBRANCH   1  15
BRANCH   7  22
ATOM     22  O   UNL     1      -2.811   4.158 -25.893  0.00  0.00    -0.503 OA
ATOM     23  H   UNL     1      -3.224   3.589 -26.512  0.00  0.00    +0.292 HD
ENDBRANCH   7  22
BRANCH   6  24
ATOM     24  O   UNL     1      -4.948   4.257 -24.417  0.00  0.00    -0.488 OA
ATOM     25  C   UNL     1      -5.555   3.509 -25.290  0.00  0.00    +0.277 C 
ENDBRANCH   6  24
BRANCH   5  26
ATOM     26  O   UNL     1      -4.828   3.582 -21.909  0.00  0.00    -0.491 OA
ATOM     27  C   UNL     1      -5.315   2.491 -21.394  0.00  0.00    +0.277 C 
ENDBRANCH   5  26
BRANCH  11  28
ATOM     28  O   UNL     1       1.644   2.947 -25.084  0.00  0.00    -0.488 OA
ATOM     29  C   UNL     1       1.905   1.879 -25.779  0.00  0.00    +0.277 C 
ENDBRANCH  11  28
TORSDOF 7
ENDMDL
MODEL 4
REMARK VINA RESULT:    -8.663      1.533      7.275
REMARK INTER + INTRA:         -10.396
REMARK INTER:                 -10.661
REMARK INTRA:                   0.265
REMARK UNBOUND:                 1.559
REMARK  Name = ZINC000005733763
REMARK  12 active torsions:
REMARK  status: ('A' for Active; 'I' for Inactive)
REMARK    1  A    between atoms: C_1  and  O_2
REMARK    2  A    between atoms: O_2  and  C_3
REMARK    3  A    between atoms: C_6  and  C_7
REMARK    4  A    between atoms: C_11  and  O_12
REMARK    5  A    between atoms: O_12  and  C_13
REMARK    6  A    between atoms: C_14  and  O_15
REMARK    7  A    between atoms: O_15  and  C_16
REMARK    8  A    between atoms: C_17  and  O_18
REMARK    9  A    between atoms: C_22  and  O_23
REMARK   10  A    between atoms: O_23  and  C_24
REMARK   11  A    between atoms: C_26  and  O_27
REMARK   12  A    between atoms: O_27  and  C_28
REMARK                            x       y       z     vdW  Elec       q    Type
REMARK                         _______ _______ _______ _____ _____    ______ ____
ROOT
ATOM      1  C   UNL     1       3.267   3.444 -22.962  0.00  0.00    +0.181 A 
ATOM      2  O   UNL     1       2.333   3.915 -23.733  0.00  0.00    -0.451 OA
ATOM      3  C   UNL     1       1.107   3.506 -23.593  0.00  0.00    +0.147 A 
ATOM      4  C   UNL     1       0.172   3.977 -24.364  0.00  0.00    +0.096 A 
ATOM      5  C   UNL     1      -1.054   3.567 -24.224  0.00  0.00    +0.169 A 
ATOM      6  C   UNL     1      -1.345   2.687 -23.313  0.00  0.00    +0.204 A 
ATOM      7  C   UNL     1      -0.411   2.216 -22.542  0.00  0.00    +0.177 A 
ATOM      8  C   UNL     1       0.816   2.625 -22.682  0.00  0.00    +0.113 A 
ATOM      9  C   UNL     1       1.750   2.154 -21.910  0.00  0.00    +0.238 A 
ATOM     10  O   UNL     1       1.459   1.274 -21.000  0.00  0.00    -0.283 OA
ATOM     11  C   UNL     1       2.976   2.564 -22.051  0.00  0.00    +0.211 A 
ENDROOT
BRANCH   1  15
ATOM     12  C   UNL     1       6.945   4.670 -23.381  0.00  0.00    +0.162 A 
ATOM     13  C   UNL     1       6.575   3.536 -23.897  0.00  0.00    +0.050 A 
ATOM     14  C   UNL     1       5.349   3.127 -23.757  0.00  0.00    +0.015 A 
ATOM     15  C   UNL     1       4.493   3.853 -23.101  0.00  0.00    +0.025 A 
ATOM     16  C   UNL     1       4.863   4.988 -22.585  0.00  0.00    +0.061 A 
ATOM     17  C   UNL     1       6.089   5.396 -22.725  0.00  0.00    +0.162 A 
BRANCH  12  19
ATOM     18  C   UNL     1       8.660   5.273 -24.710  0.00  0.00    +0.277 C 
ATOM     19  O   UNL     1       8.171   5.078 -23.521  0.00  0.00    -0.491 OA
ENDBRANCH  12  19
BRANCH  17  20
ATOM     20  O   UNL     1       6.459   6.530 -22.208  0.00  0.00    -0.491 OA
ATOM     21  C   UNL     1       5.569   7.345 -21.724  0.00  0.00    +0.277 C 
ENDBRANCH  17  20
ENDBRANCH   1  15
BRANCH   7  22
ATOM     22  O   UNL     1      -0.702   1.336 -21.631  0.00  0.00    -0.503 OA
ATOM     23  H   UNL     1      -1.489   1.423 -21.129  0.00  0.00    +0.292 HD
ENDBRANCH   7  22
BRANCH   6  24
ATOM     24  O   UNL     1      -2.571   2.277 -23.173  0.00  0.00    -0.488 OA
ATOM     25  C   UNL     1      -3.379   2.906 -22.371  0.00  0.00    +0.277 C 
ENDBRANCH   6  24
BRANCH   5  26
ATOM     26  O   UNL     1      -1.988   4.038 -24.995  0.00  0.00    -0.491 OA
ATOM     27  C   UNL     1      -2.236   3.469 -26.138  0.00  0.00    +0.277 C 
ENDBRANCH   5  26
BRANCH  11  28
ATOM     28  O   UNL     1       3.910   2.092 -21.279  0.00  0.00    -0.488 OA
ATOM     29  C   UNL     1       4.261   0.843 -21.372  0.00  0.00    +0.277 C 
ENDBRANCH  11  28
TORSDOF 7
ENDMDL
MODEL 5
REMARK VINA RESULT:    -8.659      1.799      3.066
REMARK INTER + INTRA:         -10.390
REMARK INTER:                 -10.392
REMARK INTRA:                   0.002
REMARK UNBOUND:                 1.559
REMARK  Name = ZINC000005733763
REMARK  12 active torsions:
REMARK  status: ('A' for Active; 'I' for Inactive)
REMARK    1  A    between atoms: C_1  and  O_2
REMARK    2  A    between atoms: O_2  and  C_3
REMARK    3  A    between atoms: C_6  and  C_7
REMARK    4  A    between atoms: C_11  and  O_12
REMARK    5  A    between atoms: O_12  and  C_13
REMARK    6  A    between atoms: C_14  and  O_15
REMARK    7  A    between atoms: O_15  and  C_16
REMARK    8  A    between atoms: C_17  and  O_18
REMARK    9  A    between atoms: C_22  and  O_23
REMARK   10  A    between atoms: O_23  and  C_24
REMARK   11  A    between atoms: C_26  and  O_27
REMARK   12  A    between atoms: O_27  and  C_28
REMARK                            x       y       z     vdW  Elec       q    Type
REMARK                         _______ _______ _______ _____ _____    ______ ____
ROOT
ATOM      1  C   UNL     1       2.353   4.321 -23.473  0.00  0.00    +0.181 A 
ATOM      2  O   UNL     1       2.501   5.513 -22.975  0.00  0.00    -0.451 OA
ATOM      3  C   UNL     1       3.682   5.932 -22.633  0.00  0.00    +0.147 A 
ATOM      4  C   UNL     1       3.831   7.124 -22.135  0.00  0.00    +0.096 A 
ATOM      5  C   UNL     1       5.013   7.543 -21.792  0.00  0.00    +0.169 A 
ATOM      6  C   UNL     1       6.047   6.770 -21.948  0.00  0.00    +0.204 A 
ATOM      7  C   UNL     1       5.899   5.579 -22.446  0.00  0.00    +0.177 A 
ATOM      8  C   UNL     1       4.716   5.159 -22.788  0.00  0.00    +0.113 A 
ATOM      9  C   UNL     1       4.569   3.967 -23.286  0.00  0.00    +0.238 A 
ATOM     10  O   UNL     1       5.602   3.195 -23.442  0.00  0.00    -0.283 OA
ATOM     11  C   UNL     1       3.387   3.549 -23.629  0.00  0.00    +0.211 A 
ENDROOT
BRANCH   1  15
ATOM     12  C   UNL     1      -1.192   3.063 -24.502  0.00  0.00    +0.162 A 
ATOM     13  C   UNL     1      -0.445   3.680 -25.368  0.00  0.00    +0.050 A 
ATOM     14  C   UNL     1       0.737   4.100 -25.025  0.00  0.00    +0.015 A 
ATOM     15  C   UNL     1       1.172   3.902 -23.816  0.00  0.00    +0.025 A 
ATOM     16  C   UNL     1       0.424   3.284 -22.950  0.00  0.00    +0.061 A 
ATOM     17  C   UNL     1      -0.758   2.865 -23.293  0.00  0.00    +0.162 A 
BRANCH  12  19
ATOM     18  C   UNL     1      -3.087   3.328 -25.690  0.00  0.00    +0.277 C 
ATOM     19  O   UNL     1      -2.373   2.643 -24.846  0.00  0.00    -0.491 OA
ENDBRANCH  12  19
BRANCH  17  20
ATOM     20  O   UNL     1      -1.505   2.247 -22.427  0.00  0.00    -0.491 OA
ATOM     21  C   UNL     1      -1.924   2.872 -21.366  0.00  0.00    +0.277 C 
ENDBRANCH  17  20
ENDBRANCH   1  15
BRANCH   7  22
ATOM     22  O   UNL     1       6.933   4.806 -22.601  0.00  0.00    -0.503 OA
ATOM     23  H   UNL     1       6.827   3.951 -22.968  0.00  0.00    +0.292 HD
ENDBRANCH   7  22
BRANCH   6  24
ATOM     24  O   UNL     1       7.228   7.189 -21.606  0.00  0.00    -0.488 OA
ATOM     25  C   UNL     1       7.651   7.020 -20.387  0.00  0.00    +0.277 C 
ENDBRANCH   6  24
BRANCH   5  26
ATOM     26  O   UNL     1       5.160   8.734 -21.295  0.00  0.00    -0.491 OA
ATOM     27  C   UNL     1       4.219   9.255 -20.564  0.00  0.00    +0.277 C 
ENDBRANCH   5  26
BRANCH  11  28
ATOM     28  O   UNL     1       3.240   2.357 -24.126  0.00  0.00    -0.488 OA
ATOM     29  C   UNL     1       3.376   1.313 -23.363  0.00  0.00    +0.277 C 
ENDBRANCH  11  28
TORSDOF 7
ENDMDL
MODEL 6
REMARK VINA RESULT:    -8.167      1.690      7.623
REMARK INTER + INTRA:          -9.711
REMARK INTER:                 -10.157
REMARK INTRA:                   0.446
REMARK UNBOUND:                 1.559
REMARK  Name = ZINC000005733763
REMARK  12 active torsions:
REMARK  status: ('A' for Active; 'I' for Inactive)
REMARK    1  A    between atoms: C_1  and  O_2
REMARK    2  A    between atoms: O_2  and  C_3
REMARK    3  A    between atoms: C_6  and  C_7
REMARK    4  A    between atoms: C_11  and  O_12
REMARK    5  A    between atoms: O_12  and  C_13
REMARK    6  A    between atoms: C_14  and  O_15
REMARK    7  A    between atoms: O_15  and  C_16
REMARK    8  A    between atoms: C_17  and  O_18
REMARK    9  A    between atoms: C_22  and  O_23
REMARK   10  A    between atoms: O_23  and  C_24
REMARK   11  A    between atoms: C_26  and  O_27
REMARK   12  A    between atoms: O_27  and  C_28
REMARK                            x       y       z     vdW  Elec       q    Type
REMARK                         _______ _______ _______ _____ _____    ______ ____
ROOT
ATOM      1  C   UNL     1       4.020   3.547 -22.902  0.00  0.00    +0.181 A 
ATOM      2  O   UNL     1       2.996   4.034 -23.536  0.00  0.00    -0.451 OA
ATOM      3  C   UNL     1       1.811   3.538 -23.334  0.00  0.00    +0.147 A 
ATOM      4  C   UNL     1       0.786   4.025 -23.968  0.00  0.00    +0.096 A 
ATOM      5  C   UNL     1      -0.399   3.530 -23.766  0.00  0.00    +0.169 A 
ATOM      6  C   UNL     1      -0.559   2.547 -22.930  0.00  0.00    +0.204 A 
ATOM      7  C   UNL     1       0.466   2.061 -22.295  0.00  0.00    +0.177 A 
ATOM      8  C   UNL     1       1.652   2.556 -22.497  0.00  0.00    +0.113 A 
ATOM      9  C   UNL     1       2.676   2.068 -21.863  0.00  0.00    +0.238 A 
ATOM     10  O   UNL     1       2.516   1.087 -21.027  0.00  0.00    -0.283 OA
ATOM     11  C   UNL     1       3.861   2.565 -22.065  0.00  0.00    +0.211 A 
ENDROOT
BRANCH   1  15
ATOM     12  C   UNL     1       7.575   5.033 -23.505  0.00  0.00    +0.162 A 
ATOM     13  C   UNL     1       6.769   5.600 -22.658  0.00  0.00    +0.050 A 
ATOM     14  C   UNL     1       5.583   5.104 -22.457  0.00  0.00    +0.015 A 
ATOM     15  C   UNL     1       5.205   4.042 -23.103  0.00  0.00    +0.025 A 
ATOM     16  C   UNL     1       6.012   3.475 -23.951  0.00  0.00    +0.061 A 
ATOM     17  C   UNL     1       7.196   3.971 -24.152  0.00  0.00    +0.162 A 
BRANCH  12  19
ATOM     18  C   UNL     1       8.889   6.745 -24.149  0.00  0.00    +0.277 C 
ATOM     19  O   UNL     1       8.760   5.529 -23.706  0.00  0.00    -0.491 OA
ENDBRANCH  12  19
BRANCH  17  20
ATOM     20  O   UNL     1       8.002   3.404 -24.999  0.00  0.00    -0.491 OA
ATOM     21  C   UNL     1       8.916   2.580 -24.577  0.00  0.00    +0.277 C 
ENDBRANCH  17  20
ENDBRANCH   1  15
BRANCH   7  22
ATOM     22  O   UNL     1       0.306   1.078 -21.459  0.00  0.00    -0.503 OA
ATOM     23  H   UNL     1       0.117   0.218 -21.778  0.00  0.00    +0.292 HD
ENDBRANCH   7  22
BRANCH   6  24
ATOM     24  O   UNL     1      -1.743   2.052 -22.727  0.00  0.00    -0.488 OA
ATOM     25  C   UNL     1      -2.499   2.537 -21.787  0.00  0.00    +0.277 C 
ENDBRANCH   6  24
BRANCH   5  26
ATOM     26  O   UNL     1      -1.423   4.017 -24.400  0.00  0.00    -0.491 OA
ATOM     27  C   UNL     1      -1.736   3.562 -25.578  0.00  0.00    +0.277 C 
ENDBRANCH   5  26
BRANCH  11  28
ATOM     28  O   UNL     1       4.885   2.077 -21.431  0.00  0.00    -0.488 OA
ATOM     29  C   UNL     1       5.313   0.881 -21.710  0.00  0.00    +0.277 C 
ENDBRANCH  11  28
TORSDOF 7
ENDMDL
MODEL 7
REMARK VINA RESULT:    -7.717      3.233      7.461
REMARK INTER + INTRA:          -9.090
REMARK INTER:                  -9.058
REMARK INTRA:                  -0.032
REMARK UNBOUND:                 1.559
REMARK  Name = ZINC000005733763
REMARK  12 active torsions:
REMARK  status: ('A' for Active; 'I' for Inactive)
REMARK    1  A    between atoms: C_1  and  O_2
REMARK    2  A    between atoms: O_2  and  C_3
REMARK    3  A    between atoms: C_6  and  C_7
REMARK    4  A    between atoms: C_11  and  O_12
REMARK    5  A    between atoms: O_12  and  C_13
REMARK    6  A    between atoms: C_14  and  O_15
REMARK    7  A    between atoms: O_15  and  C_16
REMARK    8  A    between atoms: C_17  and  O_18
REMARK    9  A    between atoms: C_22  and  O_23
REMARK   10  A    between atoms: O_23  and  C_24
REMARK   11  A    between atoms: C_26  and  O_27
REMARK   12  A    between atoms: O_27  and  C_28
REMARK                            x       y       z     vdW  Elec       q    Type
REMARK                         _______ _______ _______ _____ _____    ______ ____
ROOT
ATOM      1  C   UNL     1       4.578   7.041 -22.156  0.00  0.00    +0.181 A 
ATOM      2  O   UNL     1       3.477   6.482 -22.563  0.00  0.00    -0.451 OA
ATOM      3  C   UNL     1       3.492   5.258 -22.998  0.00  0.00    +0.147 A 
ATOM      4  C   UNL     1       2.391   4.698 -23.406  0.00  0.00    +0.096 A 
ATOM      5  C   UNL     1       2.407   3.474 -23.841  0.00  0.00    +0.169 A 
ATOM      6  C   UNL     1       3.522   2.807 -23.868  0.00  0.00    +0.204 A 
ATOM      7  C   UNL     1       4.623   3.366 -23.461  0.00  0.00    +0.177 A 
ATOM      8  C   UNL     1       4.608   4.591 -23.026  0.00  0.00    +0.113 A 
ATOM      9  C   UNL     1       5.710   5.149 -22.618  0.00  0.00    +0.238 A 
ATOM     10  O   UNL     1       6.825   4.483 -22.646  0.00  0.00    -0.283 OA
ATOM     11  C   UNL     1       5.694   6.374 -22.184  0.00  0.00    +0.211 A 
ENDROOT
BRANCH   1  15
ATOM     12  C   UNL     1       4.534  10.715 -20.850  0.00  0.00    +0.162 A 
ATOM     13  C   UNL     1       4.125   9.748 -20.084  0.00  0.00    +0.050 A 
ATOM     14  C   UNL     1       4.139   8.523 -20.520  0.00  0.00    +0.015 A 
ATOM     15  C   UNL     1       4.563   8.265 -21.721  0.00  0.00    +0.025 A 
ATOM     16  C   UNL     1       4.973   9.233 -22.487  0.00  0.00    +0.061 A 
ATOM     17  C   UNL     1       4.958  10.457 -22.051  0.00  0.00    +0.162 A 
BRANCH  12  19
ATOM     18  C   UNL     1       3.482  12.388 -19.770  0.00  0.00    +0.277 C 
ATOM     19  O   UNL     1       4.519  11.939 -20.414  0.00  0.00    -0.491 OA
ENDBRANCH  12  19
BRANCH  17  20
ATOM     20  O   UNL     1       5.368  11.424 -22.817  0.00  0.00    -0.491 OA
ATOM     21  C   UNL     1       5.336  11.288 -24.110  0.00  0.00    +0.277 C 
ENDBRANCH  17  20
ENDBRANCH   1  15
BRANCH   7  22
ATOM     22  O   UNL     1       5.739   2.699 -23.488  0.00  0.00    -0.503 OA
ATOM     23  H   UNL     1       6.074   2.313 -22.703  0.00  0.00    +0.292 HD
ENDBRANCH   7  22
BRANCH   6  24
ATOM     24  O   UNL     1       3.538   1.582 -24.303  0.00  0.00    -0.488 OA
ATOM     25  C   UNL     1       3.271   0.601 -23.492  0.00  0.00    +0.277 C 
ENDBRANCH   6  24
BRANCH   5  26
ATOM     26  O   UNL     1       1.306   2.915 -24.248  0.00  0.00    -0.491 OA
ATOM     27  C   UNL     1       0.279   2.844 -23.452  0.00  0.00    +0.277 C 
ENDBRANCH   5  26
BRANCH  11  28
ATOM     28  O   UNL     1       6.795   6.932 -21.776  0.00  0.00    -0.488 OA
ATOM     29  C   UNL     1       7.223   6.718 -20.567  0.00  0.00    +0.277 C 
ENDBRANCH  11  28
TORSDOF 7
ENDMDL
MODEL 8
REMARK VINA RESULT:    -7.302      1.668      7.488
REMARK INTER + INTRA:          -8.517
REMARK INTER:                  -8.633
REMARK INTRA:                   0.115
REMARK UNBOUND:                 1.559
REMARK  Name = ZINC000005733763
REMARK  12 active torsions:
REMARK  status: ('A' for Active; 'I' for Inactive)
REMARK    1  A    between atoms: C_1  and  O_2
REMARK    2  A    between atoms: O_2  and  C_3
REMARK    3  A    between atoms: C_6  and  C_7
REMARK    4  A    between atoms: C_11  and  O_12
REMARK    5  A    between atoms: O_12  and  C_13
REMARK    6  A    between atoms: C_14  and  O_15
REMARK    7  A    between atoms: O_15  and  C_16
REMARK    8  A    between atoms: C_17  and  O_18
REMARK    9  A    between atoms: C_22  and  O_23
REMARK   10  A    between atoms: O_23  and  C_24
REMARK   11  A    between atoms: C_26  and  O_27
REMARK   12  A    between atoms: O_27  and  C_28
REMARK                            x       y       z     vdW  Elec       q    Type
REMARK                         _______ _______ _______ _____ _____    ______ ____
ROOT
ATOM      1  C   UNL     1       1.132   3.336 -23.476  0.00  0.00    +0.181 A 
ATOM      2  O   UNL     1       0.443   3.226 -22.379  0.00  0.00    -0.451 OA
ATOM      3  C   UNL     1      -0.848   3.087 -22.433  0.00  0.00    +0.147 A 
ATOM      4  C   UNL     1      -1.537   2.978 -21.335  0.00  0.00    +0.096 A 
ATOM      5  C   UNL     1      -2.828   2.839 -21.390  0.00  0.00    +0.169 A 
ATOM      6  C   UNL     1      -3.431   2.809 -22.541  0.00  0.00    +0.204 A 
ATOM      7  C   UNL     1      -2.743   2.918 -23.638  0.00  0.00    +0.177 A 
ATOM      8  C   UNL     1      -1.451   3.057 -23.584  0.00  0.00    +0.113 A 
ATOM      9  C   UNL     1      -0.763   3.166 -24.682  0.00  0.00    +0.238 A 
ATOM     10  O   UNL     1      -1.365   3.137 -25.833  0.00  0.00    -0.283 OA
ATOM     11  C   UNL     1       0.529   3.306 -24.627  0.00  0.00    +0.211 A 
ENDROOT
BRANCH   1  15
ATOM     12  C   UNL     1       5.006   3.752 -23.316  0.00  0.00    +0.162 A 
ATOM     13  C   UNL     1       4.489   2.637 -23.738  0.00  0.00    +0.050 A 
ATOM     14  C   UNL     1       3.197   2.498 -23.792  0.00  0.00    +0.015 A 
ATOM     15  C   UNL     1       2.422   3.475 -23.422  0.00  0.00    +0.025 A 
ATOM     16  C   UNL     1       2.940   4.590 -22.999  0.00  0.00    +0.061 A 
ATOM     17  C   UNL     1       4.231   4.728 -22.946  0.00  0.00    +0.162 A 
BRANCH  12  19
ATOM     18  C   UNL     1       7.067   3.066 -23.911  0.00  0.00    +0.277 C 
ATOM     19  O   UNL     1       6.297   3.890 -23.262  0.00  0.00    -0.491 OA
ENDBRANCH  12  19
BRANCH  17  20
ATOM     20  O   UNL     1       4.748   5.844 -22.524  0.00  0.00    -0.491 OA
ATOM     21  C   UNL     1       3.988   6.881 -22.331  0.00  0.00    +0.277 C 
ENDBRANCH  17  20
ENDBRANCH   1  15
BRANCH   7  22
ATOM     22  O   UNL     1      -3.346   2.888 -24.790  0.00  0.00    -0.503 OA
ATOM     23  H   UNL     1      -3.413   3.669 -25.304  0.00  0.00    +0.292 HD
ENDBRANCH   7  22
BRANCH   6  24
ATOM     24  O   UNL     1      -4.722   2.670 -22.596  0.00  0.00    -0.488 OA
ATOM     25  C   UNL     1      -5.475   3.692 -22.876  0.00  0.00    +0.277 C 
ENDBRANCH   6  24
BRANCH   5  26
ATOM     26  O   UNL     1      -3.516   2.730 -20.293  0.00  0.00    -0.491 OA
ATOM     27  C   UNL     1      -3.455   3.665 -19.391  0.00  0.00    +0.277 C 
ENDBRANCH   5  26
BRANCH  11  28
ATOM     28  O   UNL     1       1.217   3.415 -25.725  0.00  0.00    -0.488 OA
ATOM     29  C   UNL     1       1.357   4.577 -26.291  0.00  0.00    +0.277 C 
ENDBRANCH  11  28
TORSDOF 7
ENDMDL
MODEL 9
REMARK VINA RESULT:    -6.887      1.950      2.920
REMARK INTER + INTRA:          -7.945
REMARK INTER:                  -9.504
REMARK INTRA:                   1.559
REMARK UNBOUND:                 1.559
REMARK  Name = ZINC000005733763
REMARK  12 active torsions:
REMARK  status: ('A' for Active; 'I' for Inactive)
REMARK    1  A    between atoms: C_1  and  O_2
REMARK    2  A    between atoms: O_2  and  C_3
REMARK    3  A    between atoms: C_6  and  C_7
REMARK    4  A    between atoms: C_11  and  O_12
REMARK    5  A    between atoms: O_12  and  C_13
REMARK    6  A    between atoms: C_14  and  O_15
REMARK    7  A    between atoms: O_15  and  C_16
REMARK    8  A    between atoms: C_17  and  O_18
REMARK    9  A    between atoms: C_22  and  O_23
REMARK   10  A    between atoms: O_23  and  C_24
REMARK   11  A    between atoms: C_26  and  O_27
REMARK   12  A    between atoms: O_27  and  C_28
REMARK                            x       y       z     vdW  Elec       q    Type
REMARK                         _______ _______ _______ _____ _____    ______ ____
ROOT
ATOM      1  C   UNL     1      -0.218   2.648 -23.136  0.00  0.00    +0.181 A 
ATOM      2  O   UNL     1       0.549   2.315 -22.141  0.00  0.00    -0.451 OA
ATOM      3  C   UNL     1       1.814   2.093 -22.343  0.00  0.00    +0.147 A 
ATOM      4  C   UNL     1       2.582   1.759 -21.348  0.00  0.00    +0.096 A 
ATOM      5  C   UNL     1       3.847   1.538 -21.549  0.00  0.00    +0.169 A 
ATOM      6  C   UNL     1       4.345   1.650 -22.745  0.00  0.00    +0.204 A 
ATOM      7  C   UNL     1       3.577   1.983 -23.740  0.00  0.00    +0.177 A 
ATOM      8  C   UNL     1       2.311   2.205 -23.539  0.00  0.00    +0.113 A 
ATOM      9  C   UNL     1       1.544   2.539 -24.534  0.00  0.00    +0.238 A 
ATOM     10  O   UNL     1       2.042   2.651 -25.729  0.00  0.00    -0.283 OA
ATOM     11  C   UNL     1       0.279   2.760 -24.332  0.00  0.00    +0.211 A 
ENDROOT
BRANCH   1  15
ATOM     12  C   UNL     1      -4.014   3.313 -22.535  0.00  0.00    +0.162 A 
ATOM     13  C   UNL     1      -3.621   2.730 -23.628  0.00  0.00    +0.050 A 
ATOM     14  C   UNL     1      -2.355   2.508 -23.829  0.00  0.00    +0.015 A 
ATOM     15  C   UNL     1      -1.483   2.870 -22.935  0.00  0.00    +0.025 A 
ATOM     16  C   UNL     1      -1.876   3.453 -21.842  0.00  0.00    +0.061 A 
ATOM     17  C   UNL     1      -3.141   3.675 -21.642  0.00  0.00    +0.162 A 
BRANCH  12  19
ATOM     18  C   UNL     1      -5.999   2.660 -21.696  0.00  0.00    +0.277 C 
ATOM     19  O   UNL     1      -5.279   3.534 -22.335  0.00  0.00    -0.491 OA
ENDBRANCH  12  19
BRANCH  17  20
ATOM     20  O   UNL     1      -3.534   4.258 -20.549  0.00  0.00    -0.491 OA
ATOM     21  C   UNL     1      -3.222   3.750 -19.392  0.00  0.00    +0.277 C 
ENDBRANCH  17  20
ENDBRANCH   1  15
BRANCH   7  22
ATOM     22  O   UNL     1       4.075   2.095 -24.935  0.00  0.00    -0.503 OA
ATOM     23  H   UNL     1       3.523   1.983 -25.684  0.00  0.00    +0.292 HD
ENDBRANCH   7  22
BRANCH   6  24
ATOM     24  O   UNL     1       5.609   1.428 -22.946  0.00  0.00    -0.488 OA
ATOM     25  C   UNL     1       6.472   2.389 -22.786  0.00  0.00    +0.277 C 
ENDBRANCH   6  24
BRANCH   5  26
ATOM     26  O   UNL     1       4.615   1.204 -20.555  0.00  0.00    -0.491 OA
ATOM     27  C   UNL     1       4.925  -0.044 -20.363  0.00  0.00    +0.277 C 
ENDBRANCH   5  26
BRANCH  11  28
ATOM     28  O   UNL     1      -0.488   3.094 -25.327  0.00  0.00    -0.488 OA
ATOM     29  C   UNL     1      -0.677   4.349 -25.609  0.00  0.00    +0.277 C 
ENDBRANCH  11  28
TORSDOF 7
ENDMDL
