MODEL 1
REMARK VINA RESULT:    -9.974      0.000      0.000
REMARK INTER + INTRA:         -10.215
REMARK INTER:                 -11.162
REMARK INTRA:                   0.947
REMARK UNBOUND:                 0.926
REMARK  Name = ZINC000096316354
REMARK  4 active torsions:
REMARK  status: ('A' for Active; 'I' for Inactive)
REMARK    1  A    between atoms: C_1  and  O_2
REMARK    2  A    between atoms: O_2  and  C_3
REMARK    3  A    between atoms: C_7  and  O_8
REMARK    4  A    between atoms: O_8  and  C_9
REMARK                            x       y       z     vdW  Elec       q    Type
REMARK                         _______ _______ _______ _____ _____    ______ ____
ROOT
ATOM      1  C   UNL     1      -2.773   3.713 -25.319  0.00  0.00    +0.159 C 
ATOM      2  C   UNL     1      -1.635   3.360 -24.929  0.00  0.00    +0.158 C 
ATOM      3  O   UNL     1      -0.171   3.204 -25.278  0.00  0.00    -0.452 OA
ATOM      4  C   UNL     1       0.655   2.651 -24.151  0.00  0.00    +0.174 A 
ATOM      5  C   UNL     1       1.807   2.294 -23.760  0.00  0.00    +0.162 A 
ATOM      6  C   UNL     1       1.959   1.852 -22.583  0.00  0.00    +0.050 A 
ATOM      7  C   UNL     1       0.981   1.766 -21.807  0.00  0.00    +0.008 A 
ATOM      8  C   UNL     1      -0.157   2.119 -22.197  0.00  0.00    -0.038 A 
ATOM      9  C   UNL     1      -1.159   2.034 -21.409  0.00  0.00    +0.058 C 
ATOM     10  C   UNL     1      -2.295   2.387 -21.798  0.00  0.00    +0.088 C 
ATOM     11  C   UNL     1      -2.449   2.829 -22.975  0.00  0.00    +0.051 C 
ATOM     12  C   UNL     1      -3.601   3.185 -23.365  0.00  0.00    -0.017 C 
ATOM     13  N   UNL     1      -3.629   2.761 -22.141  0.00  0.00    -0.300 N 
ATOM     14  C   UNL     1      -4.587   2.656 -21.322  0.00  0.00    +0.328 C 
ATOM     15  O   UNL     1      -4.392   2.213 -20.164  0.00  0.00    -0.279 OA
ATOM     16  C   UNL     1      -3.836   3.259 -23.446  0.00  0.00    +0.109 C 
ATOM     17  C   UNL     1      -2.713   3.344 -24.299  0.00  0.00    +0.039 C 
ATOM     18  C   UNL     1      -0.332   2.563 -23.364  0.00  0.00    +0.016 A 
ATOM     19  C   UNL     1      -1.469   2.914 -23.748  0.00  0.00    +0.070 C 
ATOM     20  C   UNL     1      -3.757   3.623 -24.528  0.00  0.00    +0.045 C 
ENDROOT
BRANCH   1  22
ATOM     21  C   UNL     1      -3.340   3.389 -27.386  0.00  0.00    +0.277 C 
ATOM     22  O   UNL     1      -2.934   4.152 -26.481  0.00  0.00    -0.492 OA
ENDBRANCH   1  22
BRANCH   5  23
ATOM     23  O   UNL     1       2.789   2.379 -24.534  0.00  0.00    -0.491 OA
ATOM     24  C   UNL     1       3.954   2.309 -24.079  0.00  0.00    +0.277 C 
ENDBRANCH   5  23
TORSDOF 2
ENDMDL
MODEL 2
REMARK VINA RESULT:    -8.973      1.565      4.771
REMARK INTER + INTRA:          -9.097
REMARK INTER:                 -10.465
REMARK INTRA:                   1.368
REMARK UNBOUND:                 0.926
REMARK  Name = ZINC000096316354
REMARK  4 active torsions:
REMARK  status: ('A' for Active; 'I' for Inactive)
REMARK    1  A    between atoms: C_1  and  O_2
REMARK    2  A    between atoms: O_2  and  C_3
REMARK    3  A    between atoms: C_7  and  O_8
REMARK    4  A    between atoms: O_8  and  C_9
REMARK                            x       y       z     vdW  Elec       q    Type
REMARK                         _______ _______ _______ _____ _____    ______ ____
ROOT
ATOM      1  C   UNL     1      -1.966   3.572 -25.819  0.00  0.00    +0.159 C 
ATOM      2  C   UNL     1      -2.701   3.481 -24.807  0.00  0.00    +0.158 C 
ATOM      3  O   UNL     1      -4.107   3.565 -24.255  0.00  0.00    -0.452 OA
ATOM      4  C   UNL     1      -4.185   3.298 -22.778  0.00  0.00    +0.174 A 
ATOM      5  C   UNL     1      -4.932   3.207 -21.757  0.00  0.00    +0.162 A 
ATOM      6  C   UNL     1      -4.422   2.927 -20.632  0.00  0.00    +0.050 A 
ATOM      7  C   UNL     1      -3.189   2.741 -20.524  0.00  0.00    +0.008 A 
ATOM      8  C   UNL     1      -2.454   2.833 -21.535  0.00  0.00    -0.038 A 
ATOM      9  C   UNL     1      -1.194   2.644 -21.430  0.00  0.00    +0.058 C 
ATOM     10  C   UNL     1      -0.460   2.735 -22.440  0.00  0.00    +0.088 C 
ATOM     11  C   UNL     1      -0.968   3.015 -23.565  0.00  0.00    +0.051 C 
ATOM     12  C   UNL     1      -0.221   3.106 -24.585  0.00  0.00    -0.017 C 
ATOM     13  N   UNL     1       0.464   2.815 -23.525  0.00  0.00    -0.300 N 
ATOM     14  C   UNL     1       1.703   2.619 -23.367  0.00  0.00    +0.328 C 
ATOM     15  O   UNL     1       2.168   2.344 -22.233  0.00  0.00    -0.279 OA
ATOM     16  C   UNL     1      -0.070   3.125 -24.795  0.00  0.00    +0.109 C 
ATOM     17  C   UNL     1      -1.464   3.329 -24.886  0.00  0.00    +0.039 C 
ATOM     18  C   UNL     1      -2.939   3.110 -22.665  0.00  0.00    +0.016 A 
ATOM     19  C   UNL     1      -2.201   3.200 -23.670  0.00  0.00    +0.070 C 
ATOM     20  C   UNL     1      -0.721   3.383 -25.700  0.00  0.00    +0.045 C 
ENDROOT
BRANCH   1  22
ATOM     21  C   UNL     1      -3.550   3.338 -27.280  0.00  0.00    +0.277 C 
ATOM     22  O   UNL     1      -2.460   3.848 -26.935  0.00  0.00    -0.492 OA
ENDBRANCH   1  22
BRANCH   5  23
ATOM     23  O   UNL     1      -6.167   3.392 -21.861  0.00  0.00    -0.491 OA
ATOM     24  C   UNL     1      -6.957   2.426 -21.760  0.00  0.00    +0.277 C 
ENDBRANCH   5  23
TORSDOF 2
ENDMDL
MODEL 3
REMARK VINA RESULT:    -8.677      1.913      4.749
REMARK INTER + INTRA:          -8.766
REMARK INTER:                  -9.831
REMARK INTRA:                   1.065
REMARK UNBOUND:                 0.926
REMARK  Name = ZINC000096316354
REMARK  4 active torsions:
REMARK  status: ('A' for Active; 'I' for Inactive)
REMARK    1  A    between atoms: C_1  and  O_2
REMARK    2  A    between atoms: O_2  and  C_3
REMARK    3  A    between atoms: C_7  and  O_8
REMARK    4  A    between atoms: O_8  and  C_9
REMARK                            x       y       z     vdW  Elec       q    Type
REMARK                         _______ _______ _______ _____ _____    ______ ____
ROOT
ATOM      1  C   UNL     1       0.730   2.947 -24.728  0.00  0.00    +0.159 C 
ATOM      2  C   UNL     1      -0.464   3.023 -24.353  0.00  0.00    +0.158 C 
ATOM      3  O   UNL     1      -1.887   3.372 -24.729  0.00  0.00    -0.452 OA
ATOM      4  C   UNL     1      -2.866   3.179 -23.605  0.00  0.00    +0.174 A 
ATOM      5  C   UNL     1      -4.074   3.258 -23.229  0.00  0.00    +0.162 A 
ATOM      6  C   UNL     1      -4.382   2.937 -22.043  0.00  0.00    +0.050 A 
ATOM      7  C   UNL     1      -3.504   2.544 -21.244  0.00  0.00    +0.008 A 
ATOM      8  C   UNL     1      -2.310   2.467 -21.619  0.00  0.00    -0.038 A 
ATOM      9  C   UNL     1      -1.407   2.067 -20.807  0.00  0.00    +0.058 C 
ATOM     10  C   UNL     1      -0.215   1.990 -21.182  0.00  0.00    +0.088 C 
ATOM     11  C   UNL     1       0.095   2.311 -22.367  0.00  0.00    +0.051 C 
ATOM     12  C   UNL     1       1.302   2.232 -22.742  0.00  0.00    -0.017 C 
ATOM     13  N   UNL     1       1.169   1.867 -21.506  0.00  0.00    -0.300 N 
ATOM     14  C   UNL     1       2.022   1.465 -20.664  0.00  0.00    +0.328 C 
ATOM     15  O   UNL     1       1.673   1.156 -19.498  0.00  0.00    -0.279 OA
ATOM     16  C   UNL     1       1.549   2.217 -22.821  0.00  0.00    +0.109 C 
ATOM     17  C   UNL     1       0.535   2.657 -23.699  0.00  0.00    +0.039 C 
ATOM     18  C   UNL     1      -1.980   2.782 -22.795  0.00  0.00    +0.016 A 
ATOM     19  C   UNL     1      -0.788   2.704 -23.163  0.00  0.00    +0.070 C 
ATOM     20  C   UNL     1       1.613   2.549 -23.914  0.00  0.00    +0.045 C 
ENDROOT
BRANCH   1  22
ATOM     21  C   UNL     1       1.166   4.469 -26.210  0.00  0.00    +0.277 C 
ATOM     22  O   UNL     1       1.045   3.262 -25.898  0.00  0.00    -0.492 OA
ENDBRANCH   1  22
BRANCH   5  23
ATOM     23  O   UNL     1      -4.958   3.651 -24.026  0.00  0.00    -0.491 OA
ATOM     24  C   UNL     1      -4.790   4.706 -24.679  0.00  0.00    +0.277 C 
ENDBRANCH   5  23
TORSDOF 2
ENDMDL
MODEL 4
REMARK VINA RESULT:    -8.287      2.578      5.656
REMARK INTER + INTRA:          -8.331
REMARK INTER:                  -9.411
REMARK INTRA:                   1.081
REMARK UNBOUND:                 0.926
REMARK  Name = ZINC000096316354
REMARK  4 active torsions:
REMARK  status: ('A' for Active; 'I' for Inactive)
REMARK    1  A    between atoms: C_1  and  O_2
REMARK    2  A    between atoms: O_2  and  C_3
REMARK    3  A    between atoms: C_7  and  O_8
REMARK    4  A    between atoms: O_8  and  C_9
REMARK                            x       y       z     vdW  Elec       q    Type
REMARK                         _______ _______ _______ _____ _____    ______ ____
ROOT
ATOM      1  C   UNL     1       2.659   5.195 -23.125  0.00  0.00    +0.159 C 
ATOM      2  C   UNL     1       1.455   4.914 -23.336  0.00  0.00    +0.158 C 
ATOM      3  O   UNL     1       0.094   5.420 -23.762  0.00  0.00    -0.452 OA
ATOM      4  C   UNL     1      -0.966   4.355 -23.762  0.00  0.00    +0.174 A 
ATOM      5  C   UNL     1      -2.184   4.074 -23.976  0.00  0.00    +0.162 A 
ATOM      6  C   UNL     1      -2.592   2.889 -23.799  0.00  0.00    +0.050 A 
ATOM      7  C   UNL     1      -1.804   1.997 -23.416  0.00  0.00    +0.008 A 
ATOM      8  C   UNL     1      -0.600   2.278 -23.205  0.00  0.00    -0.038 A 
ATOM      9  C   UNL     1       0.211   1.370 -22.814  0.00  0.00    +0.058 C 
ATOM     10  C   UNL     1       1.412   1.651 -22.603  0.00  0.00    +0.088 C 
ATOM     11  C   UNL     1       1.823   2.836 -22.779  0.00  0.00    +0.051 C 
ATOM     12  C   UNL     1       3.040   3.115 -22.565  0.00  0.00    -0.017 C 
ATOM     13  N   UNL     1       2.798   1.864 -22.335  0.00  0.00    -0.300 N 
ATOM     14  C   UNL     1       3.557   0.930 -21.949  0.00  0.00    +0.328 C 
ATOM     15  O   UNL     1       3.111  -0.232 -21.787  0.00  0.00    -0.279 OA
ATOM     16  C   UNL     1       3.289   3.175 -22.522  0.00  0.00    +0.109 C 
ATOM     17  C   UNL     1       2.375   4.160 -22.955  0.00  0.00    +0.039 C 
ATOM     18  C   UNL     1      -0.171   3.451 -23.374  0.00  0.00    +0.016 A 
ATOM     19  C   UNL     1       1.031   3.726 -23.163  0.00  0.00    +0.070 C 
ATOM     20  C   UNL     1       3.450   4.287 -22.738  0.00  0.00    +0.045 C 
ENDROOT
BRANCH   1  22
ATOM     21  C   UNL     1       3.692   6.949 -22.379  0.00  0.00    +0.277 C 
ATOM     22  O   UNL     1       3.073   6.364 -23.297  0.00  0.00    -0.492 OA
ENDBRANCH   1  22
BRANCH   5  23
ATOM     23  O   UNL     1      -2.978   4.965 -24.359  0.00  0.00    -0.491 OA
ATOM     24  C   UNL     1      -3.932   4.671 -25.115  0.00  0.00    +0.277 C 
ENDBRANCH   5  23
TORSDOF 2
ENDMDL
MODEL 5
REMARK VINA RESULT:    -8.086      2.696      6.167
REMARK INTER + INTRA:          -8.106
REMARK INTER:                  -9.033
REMARK INTRA:                   0.927
REMARK UNBOUND:                 0.926
REMARK  Name = ZINC000096316354
REMARK  4 active torsions:
REMARK  status: ('A' for Active; 'I' for Inactive)
REMARK    1  A    between atoms: C_1  and  O_2
REMARK    2  A    between atoms: O_2  and  C_3
REMARK    3  A    between atoms: C_7  and  O_8
REMARK    4  A    between atoms: O_8  and  C_9
REMARK                            x       y       z     vdW  Elec       q    Type
REMARK                         _______ _______ _______ _____ _____    ______ ____
ROOT
ATOM      1  C   UNL     1       3.062   1.413 -24.313  0.00  0.00    +0.159 C 
ATOM      2  C   UNL     1       1.947   1.978 -24.213  0.00  0.00    +0.158 C 
ATOM      3  O   UNL     1       0.449   1.860 -24.391  0.00  0.00    -0.452 OA
ATOM      4  C   UNL     1      -0.297   3.110 -24.015  0.00  0.00    +0.174 A 
ATOM      5  C   UNL     1      -1.426   3.678 -23.916  0.00  0.00    +0.162 A 
ATOM      6  C   UNL     1      -1.490   4.872 -23.498  0.00  0.00    +0.050 A 
ATOM      7  C   UNL     1      -0.449   5.491 -23.185  0.00  0.00    +0.008 A 
ATOM      8  C   UNL     1       0.666   4.925 -23.284  0.00  0.00    -0.038 A 
ATOM      9  C   UNL     1       1.733   5.552 -22.966  0.00  0.00    +0.058 C 
ATOM     10  C   UNL     1       2.846   4.988 -23.065  0.00  0.00    +0.088 C 
ATOM     11  C   UNL     1       2.912   3.794 -23.482  0.00  0.00    +0.051 C 
ATOM     12  C   UNL     1       4.040   3.227 -23.582  0.00  0.00    -0.017 C 
ATOM     13  N   UNL     1       4.161   4.439 -23.141  0.00  0.00    -0.300 N 
ATOM     14  C   UNL     1       5.185   5.103 -22.813  0.00  0.00    +0.328 C 
ATOM     15  O   UNL     1       5.077   6.285 -22.403  0.00  0.00    -0.279 OA
ATOM     16  C   UNL     1       4.271   3.109 -23.603  0.00  0.00    +0.109 C 
ATOM     17  C   UNL     1       3.078   2.436 -23.949  0.00  0.00    +0.039 C 
ATOM     18  C   UNL     1       0.754   3.737 -23.698  0.00  0.00    +0.016 A 
ATOM     19  C   UNL     1       1.868   3.178 -23.795  0.00  0.00    +0.070 C 
ATOM     20  C   UNL     1       4.110   2.046 -23.994  0.00  0.00    +0.045 C 
ENDROOT
BRANCH   1  22
ATOM     21  C   UNL     1       2.980  -0.016 -25.942  0.00  0.00    +0.277 C 
ATOM     22  O   UNL     1       3.136   0.233 -24.725  0.00  0.00    -0.492 OA
ENDBRANCH   1  22
BRANCH   5  23
ATOM     23  O   UNL     1      -2.471   3.062 -24.228  0.00  0.00    -0.491 OA
ATOM     24  C   UNL     1      -2.906   3.119 -25.402  0.00  0.00    +0.277 C 
ENDBRANCH   5  23
TORSDOF 2
ENDMDL
