MODEL 1
REMARK VINA RESULT:   -10.969      0.000      0.000
REMARK INTER + INTRA:         -12.066
REMARK INTER:                 -11.953
REMARK INTRA:                  -0.113
REMARK UNBOUND:                -0.135
REMARK  Name = COc1ccc2c3c1O[C@@]1(C)[C@@H](O)[C@H](Cl)C=C4[C@@H](C2)N(C)CC[C@@]431 ZINC000100393471
REMARK  5 active torsions:
REMARK  status: ('A' for Active; 'I' for Inactive)
REMARK    1  A    between atoms: C_1  and  O_2
REMARK    2  A    between atoms: O_2  and  C_3
REMARK    3  A    between atoms: C_10  and  C_11
REMARK    4  A    between atoms: C_12  and  O_13
REMARK    5  A    between atoms: N_20  and  C_21
REMARK                            x       y       z     vdW  Elec       q    Type
REMARK                         _______ _______ _______ _____ _____    ______ ____
ROOT
ATOM      1  C   UNL     1       1.613   2.248 -23.784  0.00  0.00    +0.162 A 
ATOM      2  C   UNL     1       1.903   1.777 -22.644  0.00  0.00    +0.050 A 
ATOM      3  C   UNL     1       1.021   1.659 -21.762  0.00  0.00    +0.008 A 
ATOM      4  C   UNL     1      -0.160   2.010 -22.007  0.00  0.00    -0.034 A 
ATOM      5  C   UNL     1      -0.469   2.482 -23.136  0.00  0.00    +0.016 A 
ATOM      6  C   UNL     1      -1.647   2.831 -23.377  0.00  0.00    +0.072 C 
ATOM      7  C   UNL     1      -2.951   3.261 -23.766  0.00  0.00    +0.071 C 
ATOM      8  C   UNL     1      -3.966   3.139 -22.790  0.00  0.00    +0.133 C 
ATOM      9  N   UNL     1      -3.605   2.610 -21.532  0.00  0.00    +0.239 N 
ATOM     10  H   UNL     1      -4.297   2.499 -20.790  0.00  0.00    +0.204 HD
ATOM     11  C   UNL     1      -4.444   2.469 -20.613  0.00  0.00    +0.191 C 
ATOM     12  C   UNL     1      -2.237   2.242 -21.357  0.00  0.00    +0.096 C 
ATOM     13  C   UNL     1      -2.531   2.714 -22.496  0.00  0.00    -0.010 C 
ATOM     14  C   UNL     1      -3.722   3.067 -22.742  0.00  0.00    +0.000 C 
ATOM     15  C   UNL     1      -4.019   3.535 -23.866  0.00  0.00    +0.136 C 
ATOM     16 CL   UNL     1      -5.198   3.883 -24.105  0.00  0.00    -0.115 Cl
ATOM     17  C   UNL     1      -3.131   3.656 -24.761  0.00  0.00    +0.180 C 
ATOM     18  C   UNL     1      -1.953   3.307 -24.520  0.00  0.00    +0.149 C 
ATOM     19  C   UNL     1      -1.964   3.730 -25.700  0.00  0.00    +0.060 C 
ATOM     20  O   UNL     1      -0.538   3.176 -25.038  0.00  0.00    -0.478 OA
ATOM     21  C   UNL     1      -1.060   1.892 -21.112  0.00  0.00    +0.094 C 
ATOM     22  C   UNL     1       0.419   2.602 -24.029  0.00  0.00    +0.167 A 
ENDROOT
BRANCH   1  24
ATOM     23  C   UNL     1       3.703   2.201 -24.367  0.00  0.00    +0.277 C 
ATOM     24  O   UNL     1       2.497   2.365 -24.664  0.00  0.00    -0.491 OA
ENDBRANCH   1  24
BRANCH  17  25
ATOM     25  O   UNL     1      -3.432   4.124 -25.885  0.00  0.00    -0.386 OA
ATOM     26  H   UNL     1      -4.397   4.169 -25.969  0.00  0.00    +0.210 HD
ENDBRANCH  17  25
TORSDOF 2
ENDMDL
MODEL 2
REMARK VINA RESULT:   -10.882      1.876      3.088
REMARK INTER + INTRA:         -11.972
REMARK INTER:                 -11.822
REMARK INTRA:                  -0.150
REMARK UNBOUND:                -0.135
REMARK  Name = COc1ccc2c3c1O[C@@]1(C)[C@@H](O)[C@H](Cl)C=C4[C@@H](C2)N(C)CC[C@@]431 ZINC000100393471
REMARK  5 active torsions:
REMARK  status: ('A' for Active; 'I' for Inactive)
REMARK    1  A    between atoms: C_1  and  O_2
REMARK    2  A    between atoms: O_2  and  C_3
REMARK    3  A    between atoms: C_10  and  C_11
REMARK    4  A    between atoms: C_12  and  O_13
REMARK    5  A    between atoms: N_20  and  C_21
REMARK                            x       y       z     vdW  Elec       q    Type
REMARK                         _______ _______ _______ _____ _____    ______ ____
ROOT
ATOM      1  C   UNL     1       1.330   3.060 -23.268  0.00  0.00    +0.162 A 
ATOM      2  C   UNL     1       1.560   3.187 -24.507  0.00  0.00    +0.050 A 
ATOM      3  C   UNL     1       0.616   3.333 -25.318  0.00  0.00    +0.008 A 
ATOM      4  C   UNL     1      -0.570   3.353 -24.901  0.00  0.00    -0.034 A 
ATOM      5  C   UNL     1      -0.819   3.228 -23.670  0.00  0.00    +0.016 A 
ATOM      6  C   UNL     1      -2.002   3.249 -23.258  0.00  0.00    +0.072 C 
ATOM      7  C   UNL     1      -3.303   3.257 -22.673  0.00  0.00    +0.071 C 
ATOM      8  C   UNL     1      -4.388   3.419 -23.564  0.00  0.00    +0.133 C 
ATOM      9  N   UNL     1      -4.092   3.557 -24.937  0.00  0.00    +0.239 N 
ATOM     10  H   UNL     1      -4.835   3.678 -25.626  0.00  0.00    +0.204 HD
ATOM     11  C   UNL     1      -4.995   3.705 -25.792  0.00  0.00    +0.191 C 
ATOM     12  C   UNL     1      -2.713   3.521 -25.306  0.00  0.00    +0.096 C 
ATOM     13  C   UNL     1      -2.947   3.394 -24.067  0.00  0.00    -0.010 C 
ATOM     14  C   UNL     1      -4.143   3.415 -23.648  0.00  0.00    +0.000 C 
ATOM     15  C   UNL     1      -4.381   3.290 -22.424  0.00  0.00    +0.136 C 
ATOM     16 CL   UNL     1      -5.564   3.311 -22.013  0.00  0.00    -0.115 Cl
ATOM     17  C   UNL     1      -3.430   3.143 -21.600  0.00  0.00    +0.180 C 
ATOM     18  C   UNL     1      -2.247   3.122 -22.014  0.00  0.00    +0.149 C 
ATOM     19  C   UNL     1      -2.193   2.978 -20.768  0.00  0.00    +0.060 C 
ATOM     20  O   UNL     1      -0.783   2.999 -21.658  0.00  0.00    -0.478 OA
ATOM     21  C   UNL     1      -1.533   3.501 -25.722  0.00  0.00    +0.094 C 
ATOM     22  C   UNL     1       0.132   3.081 -22.849  0.00  0.00    +0.167 A 
ENDROOT
BRANCH   1  24
ATOM     23  C   UNL     1       2.572   1.772 -22.040  0.00  0.00    +0.277 C 
ATOM     24  O   UNL     1       2.276   2.915 -22.460  0.00  0.00    -0.491 OA
ENDBRANCH   1  24
BRANCH  17  25
ATOM     25  O   UNL     1      -3.672   3.018 -20.376  0.00  0.00    -0.386 OA
ATOM     26  H   UNL     1      -4.601   2.770 -20.254  0.00  0.00    +0.210 HD
ENDBRANCH  17  25
TORSDOF 2
ENDMDL
MODEL 3
REMARK VINA RESULT:   -10.730      2.377      4.946
REMARK INTER + INTRA:         -11.806
REMARK INTER:                 -11.694
REMARK INTRA:                  -0.112
REMARK UNBOUND:                -0.135
REMARK  Name = COc1ccc2c3c1O[C@@]1(C)[C@@H](O)[C@H](Cl)C=C4[C@@H](C2)N(C)CC[C@@]431 ZINC000100393471
REMARK  5 active torsions:
REMARK  status: ('A' for Active; 'I' for Inactive)
REMARK    1  A    between atoms: C_1  and  O_2
REMARK    2  A    between atoms: O_2  and  C_3
REMARK    3  A    between atoms: C_10  and  C_11
REMARK    4  A    between atoms: C_12  and  O_13
REMARK    5  A    between atoms: N_20  and  C_21
REMARK                            x       y       z     vdW  Elec       q    Type
REMARK                         _______ _______ _______ _____ _____    ______ ____
ROOT
ATOM      1  C   UNL     1      -3.464   3.253 -23.121  0.00  0.00    +0.162 A 
ATOM      2  C   UNL     1      -3.723   2.778 -21.975  0.00  0.00    +0.050 A 
ATOM      3  C   UNL     1      -2.816   2.263 -21.281  0.00  0.00    +0.008 A 
ATOM      4  C   UNL     1      -1.640   2.217 -21.720  0.00  0.00    -0.034 A 
ATOM      5  C   UNL     1      -1.363   2.686 -22.859  0.00  0.00    +0.016 A 
ATOM      6  C   UNL     1      -0.189   2.638 -23.295  0.00  0.00    +0.072 C 
ATOM      7  C   UNL     1       1.105   2.641 -23.895  0.00  0.00    +0.071 C 
ATOM      8  C   UNL     1       2.149   2.067 -23.134  0.00  0.00    +0.133 C 
ATOM      9  N   UNL     1       1.821   1.547 -21.862  0.00  0.00    +0.239 N 
ATOM     10  H   UNL     1       2.534   1.121 -21.269  0.00  0.00    +0.204 HD
ATOM     11  C   UNL     1       2.686   1.022 -21.124  0.00  0.00    +0.191 C 
ATOM     12  C   UNL     1       0.456   1.649 -21.456  0.00  0.00    +0.096 C 
ATOM     13  C   UNL     1       0.719   2.124 -22.602  0.00  0.00    -0.010 C 
ATOM     14  C   UNL     1       1.906   2.077 -23.044  0.00  0.00    +0.000 C 
ATOM     15  C   UNL     1       2.172   2.545 -24.176  0.00  0.00    +0.136 C 
ATOM     16 CL   UNL     1       3.345   2.497 -24.610  0.00  0.00    -0.115 Cl
ATOM     17  C   UNL     1       1.259   3.066 -24.883  0.00  0.00    +0.180 C 
ATOM     18  C   UNL     1       0.085   3.113 -24.446  0.00  0.00    +0.149 C 
ATOM     19  C   UNL     1       0.065   3.644 -25.582  0.00  0.00    +0.060 C 
ATOM     20  O   UNL     1      -1.345   3.534 -24.698  0.00  0.00    -0.478 OA
ATOM     21  C   UNL     1      -0.715   1.695 -21.017  0.00  0.00    +0.094 C 
ATOM     22  C   UNL     1      -2.276   3.206 -23.563  0.00  0.00    +0.167 A 
ENDROOT
BRANCH   1  24
ATOM     23  C   UNL     1      -5.556   3.760 -23.400  0.00  0.00    +0.277 C 
ATOM     24  O   UNL     1      -4.373   3.767 -23.813  0.00  0.00    -0.491 OA
ENDBRANCH   1  24
BRANCH  17  25
ATOM     25  O   UNL     1       1.529   3.533 -26.015  0.00  0.00    -0.386 OA
ATOM     26  H   UNL     1       2.421   3.256 -26.274  0.00  0.00    +0.210 HD
ENDBRANCH  17  25
TORSDOF 2
ENDMDL
MODEL 4
REMARK VINA RESULT:   -10.653      2.637      5.607
REMARK INTER + INTRA:         -11.722
REMARK INTER:                 -11.649
REMARK INTRA:                  -0.072
REMARK UNBOUND:                -0.135
REMARK  Name = COc1ccc2c3c1O[C@@]1(C)[C@@H](O)[C@H](Cl)C=C4[C@@H](C2)N(C)CC[C@@]431 ZINC000100393471
REMARK  5 active torsions:
REMARK  status: ('A' for Active; 'I' for Inactive)
REMARK    1  A    between atoms: C_1  and  O_2
REMARK    2  A    between atoms: O_2  and  C_3
REMARK    3  A    between atoms: C_10  and  C_11
REMARK    4  A    between atoms: C_12  and  O_13
REMARK    5  A    between atoms: N_20  and  C_21
REMARK                            x       y       z     vdW  Elec       q    Type
REMARK                         _______ _______ _______ _____ _____    ______ ____
ROOT
ATOM      1  C   UNL     1      -4.628   3.724 -23.071  0.00  0.00    +0.162 A 
ATOM      2  C   UNL     1      -4.804   4.174 -24.243  0.00  0.00    +0.050 A 
ATOM      3  C   UNL     1      -3.862   4.183 -25.069  0.00  0.00    +0.008 A 
ATOM      4  C   UNL     1      -2.733   3.743 -24.736  0.00  0.00    -0.034 A 
ATOM      5  C   UNL     1      -2.538   3.291 -23.574  0.00  0.00    +0.016 A 
ATOM      6  C   UNL     1      -1.412   2.854 -23.245  0.00  0.00    +0.072 C 
ATOM      7  C   UNL     1      -0.177   2.331 -22.757  0.00  0.00    +0.071 C 
ATOM      8  C   UNL     1       0.904   2.329 -23.667  0.00  0.00    +0.133 C 
ATOM      9  N   UNL     1       0.669   2.838 -24.963  0.00  0.00    +0.239 N 
ATOM     10  H   UNL     1       1.413   2.861 -25.662  0.00  0.00    +0.204 HD
ATOM     11  C   UNL     1       1.573   2.871 -25.830  0.00  0.00    +0.191 C 
ATOM     12  C   UNL     1      -0.648   3.313 -25.240  0.00  0.00    +0.096 C 
ATOM     13  C   UNL     1      -0.468   2.862 -24.069  0.00  0.00    -0.010 C 
ATOM     14  C   UNL     1       0.671   2.419 -23.734  0.00  0.00    +0.000 C 
ATOM     15  C   UNL     1       0.855   1.972 -22.578  0.00  0.00    +0.136 C 
ATOM     16 CL   UNL     1       1.982   1.535 -22.251  0.00  0.00    -0.115 Cl
ATOM     17  C   UNL     1      -0.094   1.961 -21.739  0.00  0.00    +0.180 C 
ATOM     18  C   UNL     1      -1.221   2.398 -22.069  0.00  0.00    +0.149 C 
ATOM     19  C   UNL     1      -1.320   2.021 -20.877  0.00  0.00    +0.060 C 
ATOM     20  O   UNL     1      -2.648   2.668 -21.650  0.00  0.00    -0.478 OA
ATOM     21  C   UNL     1      -1.773   3.751 -25.573  0.00  0.00    +0.094 C 
ATOM     22  C   UNL     1      -3.487   3.281 -22.737  0.00  0.00    +0.167 A 
ENDROOT
BRANCH   1  24
ATOM     23  C   UNL     1      -5.964   2.633 -21.753  0.00  0.00    +0.277 C 
ATOM     24  O   UNL     1      -5.572   3.717 -22.248  0.00  0.00    -0.491 OA
ENDBRANCH   1  24
BRANCH  17  25
ATOM     25  O   UNL     1       0.094   1.513 -20.583  0.00  0.00    -0.386 OA
ATOM     26  H   UNL     1       0.602   0.688 -20.635  0.00  0.00    +0.210 HD
ENDBRANCH  17  25
TORSDOF 2
ENDMDL
MODEL 5
REMARK VINA RESULT:   -10.146      1.461      2.329
REMARK INTER + INTRA:         -11.170
REMARK INTER:                 -11.038
REMARK INTRA:                  -0.133
REMARK UNBOUND:                -0.135
REMARK  Name = COc1ccc2c3c1O[C@@]1(C)[C@@H](O)[C@H](Cl)C=C4[C@@H](C2)N(C)CC[C@@]431 ZINC000100393471
REMARK  5 active torsions:
REMARK  status: ('A' for Active; 'I' for Inactive)
REMARK    1  A    between atoms: C_1  and  O_2
REMARK    2  A    between atoms: O_2  and  C_3
REMARK    3  A    between atoms: C_10  and  C_11
REMARK    4  A    between atoms: C_12  and  O_13
REMARK    5  A    between atoms: N_20  and  C_21
REMARK                            x       y       z     vdW  Elec       q    Type
REMARK                         _______ _______ _______ _____ _____    ______ ____
ROOT
ATOM      1  C   UNL     1       3.643   1.748 -22.466  0.00  0.00    +0.162 A 
ATOM      2  C   UNL     1       3.506   1.271 -21.300  0.00  0.00    +0.050 A 
ATOM      3  C   UNL     1       2.374   1.217 -20.766  0.00  0.00    +0.008 A 
ATOM      4  C   UNL     1       1.366   1.637 -21.388  0.00  0.00    -0.034 A 
ATOM      5  C   UNL     1       1.483   2.115 -22.550  0.00  0.00    +0.016 A 
ATOM      6  C   UNL     1       0.477   2.532 -23.168  0.00  0.00    +0.072 C 
ATOM      7  C   UNL     1      -0.592   3.037 -23.966  0.00  0.00    +0.071 C 
ATOM      8  C   UNL     1      -1.881   2.988 -23.388  0.00  0.00    +0.133 C 
ATOM      9  N   UNL     1      -1.995   2.451 -22.087  0.00  0.00    +0.239 N 
ATOM     10  H   UNL     1      -2.900   2.390 -21.621  0.00  0.00    +0.204 HD
ATOM     11  C   UNL     1      -3.100   2.371 -21.504  0.00  0.00    +0.191 C 
ATOM     12  C   UNL     1      -0.790   2.002 -21.468  0.00  0.00    +0.096 C 
ATOM     13  C   UNL     1      -0.656   2.479 -22.635  0.00  0.00    -0.010 C 
ATOM     14  C   UNL     1      -1.672   2.902 -23.261  0.00  0.00    +0.000 C 
ATOM     15  C   UNL     1      -1.546   3.375 -24.415  0.00  0.00    +0.136 C 
ATOM     16 CL   UNL     1      -2.553   3.792 -25.031  0.00  0.00    -0.115 Cl
ATOM     17  C   UNL     1      -0.404   3.432 -24.960  0.00  0.00    +0.180 C 
ATOM     18  C   UNL     1       0.602   3.014 -24.342  0.00  0.00    +0.149 C 
ATOM     19  C   UNL     1       1.012   3.426 -25.454  0.00  0.00    +0.060 C 
ATOM     20  O   UNL     1       2.097   2.792 -24.358  0.00  0.00    -0.478 OA
ATOM     21  C   UNL     1       0.214   1.583 -20.847  0.00  0.00    +0.094 C 
ATOM     22  C   UNL     1       2.624   2.171 -23.093  0.00  0.00    +0.167 A 
ENDROOT
BRANCH   1  24
ATOM     23  C   UNL     1       5.663   2.542 -22.513  0.00  0.00    +0.277 C 
ATOM     24  O   UNL     1       4.776   1.801 -22.999  0.00  0.00    -0.491 OA
ENDBRANCH   1  24
BRANCH  17  25
ATOM     25  O   UNL     1      -0.282   3.906 -26.115  0.00  0.00    -0.386 OA
ATOM     26  H   UNL     1       0.635   3.803 -26.411  0.00  0.00    +0.210 HD
ENDBRANCH  17  25
TORSDOF 2
ENDMDL
MODEL 6
REMARK VINA RESULT:   -10.044      3.491      6.424
REMARK INTER + INTRA:         -11.060
REMARK INTER:                 -10.941
REMARK INTRA:                  -0.119
REMARK UNBOUND:                -0.135
REMARK  Name = COc1ccc2c3c1O[C@@]1(C)[C@@H](O)[C@H](Cl)C=C4[C@@H](C2)N(C)CC[C@@]431 ZINC000100393471
REMARK  5 active torsions:
REMARK  status: ('A' for Active; 'I' for Inactive)
REMARK    1  A    between atoms: C_1  and  O_2
REMARK    2  A    between atoms: O_2  and  C_3
REMARK    3  A    between atoms: C_10  and  C_11
REMARK    4  A    between atoms: C_12  and  O_13
REMARK    5  A    between atoms: N_20  and  C_21
REMARK                            x       y       z     vdW  Elec       q    Type
REMARK                         _______ _______ _______ _____ _____    ______ ____
ROOT
ATOM      1  C   UNL     1      -1.245   3.280 -23.393  0.00  0.00    +0.162 A 
ATOM      2  C   UNL     1      -1.327   4.521 -23.634  0.00  0.00    +0.050 A 
ATOM      3  C   UNL     1      -0.299   5.238 -23.631  0.00  0.00    +0.008 A 
ATOM      4  C   UNL     1       0.822   4.725 -23.389  0.00  0.00    -0.034 A 
ATOM      5  C   UNL     1       0.924   3.490 -23.147  0.00  0.00    +0.016 A 
ATOM      6  C   UNL     1       2.042   2.982 -22.906  0.00  0.00    +0.072 C 
ATOM      7  C   UNL     1       3.258   2.292 -22.618  0.00  0.00    +0.071 C 
ATOM      8  C   UNL     1       4.434   3.076 -22.608  0.00  0.00    +0.133 C 
ATOM      9  N   UNL     1       4.303   4.456 -22.881  0.00  0.00    +0.239 N 
ATOM     10  H   UNL     1       5.118   5.070 -22.887  0.00  0.00    +0.204 HD
ATOM     11  C   UNL     1       5.295   5.220 -22.892  0.00  0.00    +0.191 C 
ATOM     12  C   UNL     1       2.986   4.938 -23.143  0.00  0.00    +0.096 C 
ATOM     13  C   UNL     1       3.071   3.697 -22.902  0.00  0.00    -0.010 C 
ATOM     14  C   UNL     1       4.202   3.180 -22.658  0.00  0.00    +0.000 C 
ATOM     15  C   UNL     1       4.293   1.954 -22.419  0.00  0.00    +0.136 C 
ATOM     16 CL   UNL     1       5.412   1.447 -22.178  0.00  0.00    -0.115 Cl
ATOM     17  C   UNL     1       3.257   1.224 -22.420  0.00  0.00    +0.180 C 
ATOM     18  C   UNL     1       2.138   1.734 -22.662  0.00  0.00    +0.149 C 
ATOM     19  C   UNL     1       1.938   0.512 -22.462  0.00  0.00    +0.060 C 
ATOM     20  O   UNL     1       0.651   1.511 -22.816  0.00  0.00    -0.478 OA
ATOM     21  C   UNL     1       1.869   5.451 -23.385  0.00  0.00    +0.094 C 
ATOM     22  C   UNL     1      -0.112   2.764 -23.149  0.00  0.00    +0.167 A 
ENDROOT
BRANCH   1  24
ATOM     23  C   UNL     1      -3.343   3.004 -22.910  0.00  0.00    +0.277 C 
ATOM     24  O   UNL     1      -2.274   2.566 -23.397  0.00  0.00    -0.491 OA
ENDBRANCH   1  24
BRANCH  17  25
ATOM     25  O   UNL     1       3.352  -0.003 -22.181  0.00  0.00    -0.386 OA
ATOM     26  H   UNL     1       4.189  -0.179 -21.723  0.00  0.00    +0.210 HD
ENDBRANCH  17  25
TORSDOF 2
ENDMDL
MODEL 7
REMARK VINA RESULT:    -9.792      2.943      5.803
REMARK INTER + INTRA:         -10.786
REMARK INTER:                 -10.662
REMARK INTRA:                  -0.124
REMARK UNBOUND:                -0.135
REMARK  Name = COc1ccc2c3c1O[C@@]1(C)[C@@H](O)[C@H](Cl)C=C4[C@@H](C2)N(C)CC[C@@]431 ZINC000100393471
REMARK  5 active torsions:
REMARK  status: ('A' for Active; 'I' for Inactive)
REMARK    1  A    between atoms: C_1  and  O_2
REMARK    2  A    between atoms: O_2  and  C_3
REMARK    3  A    between atoms: C_10  and  C_11
REMARK    4  A    between atoms: C_12  and  O_13
REMARK    5  A    between atoms: N_20  and  C_21
REMARK                            x       y       z     vdW  Elec       q    Type
REMARK                         _______ _______ _______ _____ _____    ______ ____
ROOT
ATOM      1  C   UNL     1      -2.470   3.092 -24.498  0.00  0.00    +0.162 A 
ATOM      2  C   UNL     1      -2.127   3.563 -25.623  0.00  0.00    +0.050 A 
ATOM      3  C   UNL     1      -0.915   3.676 -25.921  0.00  0.00    +0.008 A 
ATOM      4  C   UNL     1      -0.032   3.320 -25.101  0.00  0.00    -0.034 A 
ATOM      5  C   UNL     1      -0.355   2.849 -23.976  0.00  0.00    +0.016 A 
ATOM      6  C   UNL     1       0.528   2.495 -23.161  0.00  0.00    +0.072 C 
ATOM      7  C   UNL     1       1.441   2.060 -22.154  0.00  0.00    +0.071 C 
ATOM      8  C   UNL     1       2.815   2.176 -22.463  0.00  0.00    +0.133 C 
ATOM      9  N   UNL     1       3.158   2.706 -23.727  0.00  0.00    +0.239 N 
ATOM     10  H   UNL     1       4.135   2.812 -24.004  0.00  0.00    +0.204 HD
ATOM     11  C   UNL     1       4.352   2.842 -24.079  0.00  0.00    +0.191 C 
ATOM     12  C   UNL     1       2.080   3.079 -24.584  0.00  0.00    +0.096 C 
ATOM     13  C   UNL     1       1.740   2.607 -23.458  0.00  0.00    -0.010 C 
ATOM     14  C   UNL     1       2.631   2.249 -22.631  0.00  0.00    +0.000 C 
ATOM     15  C   UNL     1       2.302   1.782 -21.516  0.00  0.00    +0.136 C 
ATOM     16 CL   UNL     1       3.185   1.429 -20.702  0.00  0.00    -0.115 Cl
ATOM     17  C   UNL     1       1.078   1.665 -21.209  0.00  0.00    +0.180 C 
ATOM     18  C   UNL     1       0.196   2.019 -22.025  0.00  0.00    +0.149 C 
ATOM     19  C   UNL     1      -0.406   1.597 -21.009  0.00  0.00    +0.060 C 
ATOM     20  O   UNL     1      -1.282   2.157 -22.313  0.00  0.00    -0.478 OA
ATOM     21  C   UNL     1       1.201   3.434 -25.402  0.00  0.00    +0.094 C 
ATOM     22  C   UNL     1      -1.577   2.733 -23.671  0.00  0.00    +0.167 A 
ENDROOT
BRANCH   1  24
ATOM     23  C   UNL     1      -4.455   3.958 -24.339  0.00  0.00    +0.277 C 
ATOM     24  O   UNL     1      -3.683   2.980 -24.202  0.00  0.00    -0.491 OA
ENDBRANCH   1  24
BRANCH  17  25
ATOM     25  O   UNL     1       0.752   1.197 -20.092  0.00  0.00    -0.386 OA
ATOM     26  H   UNL     1       1.341   1.553 -19.409  0.00  0.00    +0.210 HD
ENDBRANCH  17  25
TORSDOF 2
ENDMDL
MODEL 8
REMARK VINA RESULT:    -9.422      2.451      5.091
REMARK INTER + INTRA:         -10.384
REMARK INTER:                 -10.259
REMARK INTRA:                  -0.125
REMARK UNBOUND:                -0.135
REMARK  Name = COc1ccc2c3c1O[C@@]1(C)[C@@H](O)[C@H](Cl)C=C4[C@@H](C2)N(C)CC[C@@]431 ZINC000100393471
REMARK  5 active torsions:
REMARK  status: ('A' for Active; 'I' for Inactive)
REMARK    1  A    between atoms: C_1  and  O_2
REMARK    2  A    between atoms: O_2  and  C_3
REMARK    3  A    between atoms: C_10  and  C_11
REMARK    4  A    between atoms: C_12  and  O_13
REMARK    5  A    between atoms: N_20  and  C_21
REMARK                            x       y       z     vdW  Elec       q    Type
REMARK                         _______ _______ _______ _____ _____    ______ ____
ROOT
ATOM      1  C   UNL     1      -2.648   3.199 -24.263  0.00  0.00    +0.162 A 
ATOM      2  C   UNL     1      -3.275   2.977 -23.185  0.00  0.00    +0.050 A 
ATOM      3  C   UNL     1      -2.670   2.553 -22.173  0.00  0.00    +0.008 A 
ATOM      4  C   UNL     1      -1.432   2.346 -22.225  0.00  0.00    -0.034 A 
ATOM      5  C   UNL     1      -0.790   2.561 -23.290  0.00  0.00    +0.016 A 
ATOM      6  C   UNL     1       0.445   2.353 -23.338  0.00  0.00    +0.072 C 
ATOM      7  C   UNL     1       1.847   2.155 -23.514  0.00  0.00    +0.071 C 
ATOM      8  C   UNL     1       2.556   1.677 -22.388  0.00  0.00    +0.133 C 
ATOM      9  N   UNL     1       1.822   1.442 -21.204  0.00  0.00    +0.239 N 
ATOM     10  H   UNL     1       2.282   1.097 -20.361  0.00  0.00    +0.204 HD
ATOM     11  C   UNL     1       2.374   1.018 -20.163  0.00  0.00    +0.191 C 
ATOM     12  C   UNL     1       0.421   1.709 -21.251  0.00  0.00    +0.096 C 
ATOM     13  C   UNL     1       1.052   1.930 -22.327  0.00  0.00    -0.010 C 
ATOM     14  C   UNL     1       2.300   1.720 -22.379  0.00  0.00    +0.000 C 
ATOM     15  C   UNL     1       2.930   1.937 -23.441  0.00  0.00    +0.136 C 
ATOM     16 CL   UNL     1       4.163   1.729 -23.488  0.00  0.00    -0.115 Cl
ATOM     17  C   UNL     1       2.323   2.365 -24.467  0.00  0.00    +0.180 C 
ATOM     18  C   UNL     1       1.088   2.572 -24.417  0.00  0.00    +0.149 C 
ATOM     19  C   UNL     1       1.453   2.868 -25.581  0.00  0.00    +0.060 C 
ATOM     20  O   UNL     1      -0.151   3.025 -25.155  0.00  0.00    -0.478 OA
ATOM     21  C   UNL     1      -0.813   1.915 -21.198  0.00  0.00    +0.094 C 
ATOM     22  C   UNL     1      -1.397   2.989 -24.314  0.00  0.00    +0.167 A 
ENDROOT
BRANCH   1  24
ATOM     23  C   UNL     1      -3.971   4.648 -25.191  0.00  0.00    +0.277 C 
ATOM     24  O   UNL     1      -3.256   3.622 -25.274  0.00  0.00    -0.491 OA
ENDBRANCH   1  24
BRANCH  17  25
ATOM     25  O   UNL     1       2.956   2.580 -25.528  0.00  0.00    -0.386 OA
ATOM     26  H   UNL     1       2.568   2.059 -26.247  0.00  0.00    +0.210 HD
ENDBRANCH  17  25
TORSDOF 2
ENDMDL
MODEL 9
REMARK VINA RESULT:    -8.883      2.846      4.092
REMARK INTER + INTRA:          -9.797
REMARK INTER:                  -9.662
REMARK INTRA:                  -0.135
REMARK UNBOUND:                -0.135
REMARK  Name = COc1ccc2c3c1O[C@@]1(C)[C@@H](O)[C@H](Cl)C=C4[C@@H](C2)N(C)CC[C@@]431 ZINC000100393471
REMARK  5 active torsions:
REMARK  status: ('A' for Active; 'I' for Inactive)
REMARK    1  A    between atoms: C_1  and  O_2
REMARK    2  A    between atoms: O_2  and  C_3
REMARK    3  A    between atoms: C_10  and  C_11
REMARK    4  A    between atoms: C_12  and  O_13
REMARK    5  A    between atoms: N_20  and  C_21
REMARK                            x       y       z     vdW  Elec       q    Type
REMARK                         _______ _______ _______ _____ _____    ______ ____
ROOT
ATOM      1  C   UNL     1       5.502   2.945 -22.913  0.00  0.00    +0.162 A 
ATOM      2  C   UNL     1       5.690   1.765 -22.490  0.00  0.00    +0.050 A 
ATOM      3  C   UNL     1       4.718   1.047 -22.160  0.00  0.00    +0.008 A 
ATOM      4  C   UNL     1       3.548   1.497 -22.248  0.00  0.00    -0.034 A 
ATOM      5  C   UNL     1       3.341   2.669 -22.667  0.00  0.00    +0.016 A 
ATOM      6  C   UNL     1       2.174   3.115 -22.753  0.00  0.00    +0.072 C 
ATOM      7  C   UNL     1       0.894   3.729 -22.895  0.00  0.00    +0.071 C 
ATOM      8  C   UNL     1      -0.221   2.942 -22.529  0.00  0.00    +0.133 C 
ATOM      9  N   UNL     1       0.027   1.632 -22.062  0.00  0.00    +0.239 N 
ATOM     10  H   UNL     1      -0.740   1.019 -21.785  0.00  0.00    +0.204 HD
ATOM     11  C   UNL     1      -0.905   0.870 -21.719  0.00  0.00    +0.191 C 
ATOM     12  C   UNL     1       1.391   1.218 -22.001  0.00  0.00    +0.096 C 
ATOM     13  C   UNL     1       1.200   2.398 -22.423  0.00  0.00    -0.010 C 
ATOM     14  C   UNL     1       0.020   2.851 -22.512  0.00  0.00    +0.000 C 
ATOM     15  C   UNL     1      -0.175   4.016 -22.929  0.00  0.00    +0.136 C 
ATOM     16 CL   UNL     1      -1.342   4.460 -23.015  0.00  0.00    -0.115 Cl
ATOM     17  C   UNL     1       0.804   4.747 -23.264  0.00  0.00    +0.180 C 
ATOM     18  C   UNL     1       1.971   4.300 -23.177  0.00  0.00    +0.149 C 
ATOM     19  C   UNL     1       2.069   5.471 -23.616  0.00  0.00    +0.060 C 
ATOM     20  O   UNL     1       3.447   4.564 -23.374  0.00  0.00    -0.478 OA
ATOM     21  C   UNL     1       2.557   0.769 -21.913  0.00  0.00    +0.094 C 
ATOM     22  C   UNL     1       4.320   3.397 -23.001  0.00  0.00    +0.167 A 
ENDROOT
BRANCH   1  24
ATOM     23  C   UNL     1       7.275   4.074 -22.369  0.00  0.00    +0.277 C 
ATOM     24  O   UNL     1       6.476   3.661 -23.243  0.00  0.00    -0.491 OA
ENDBRANCH   1  24
BRANCH  17  25
ATOM     25  O   UNL     1       0.605   5.912 -23.681  0.00  0.00    -0.386 OA
ATOM     26  H   UNL     1      -0.344   6.109 -23.648  0.00  0.00    +0.210 HD
ENDBRANCH  17  25
TORSDOF 2
ENDMDL
