MODEL 1
REMARK VINA RESULT:    -9.641      0.000      0.000
REMARK INTER + INTRA:         -11.260
REMARK INTER:                 -12.134
REMARK INTRA:                   0.873
REMARK UNBOUND:                 2.045
REMARK  Name = ZINC000005430812
REMARK  13 active torsions:
REMARK  status: ('A' for Active; 'I' for Inactive)
REMARK    1  A    between atoms: C_1  and  O_2
REMARK    2  A    between atoms: O_2  and  C_3
REMARK    3  A    between atoms: C_4  and  O_5
REMARK    4  A    between atoms: C_11  and  O_12
REMARK    5  A    between atoms: C_13  and  C_14
REMARK    6  A    between atoms: C_14  and  C_15
REMARK    7  A    between atoms: C_16  and  C_17
REMARK    8  A    between atoms: C_16  and  C_18
REMARK    9  A    between atoms: C_19  and  O_20
REMARK   10  A    between atoms: C_25  and  C_26
REMARK   11  A    between atoms: C_26  and  C_27
REMARK   12  A    between atoms: C_28  and  C_29
REMARK   13  A    between atoms: C_28  and  C_30
REMARK                            x       y       z     vdW  Elec       q    Type
REMARK                         _______ _______ _______ _____ _____    ______ ____
ROOT
ATOM      1  C   UNL     1      -3.028   2.676 -22.427  0.00  0.00    +0.166 A 
ATOM      2  C   UNL     1      -2.951   1.910 -21.378  0.00  0.00    +0.162 A 
ATOM      3  C   UNL     1      -1.790   1.530 -20.933  0.00  0.00    +0.096 A 
ATOM      4  C   UNL     1      -0.705   1.916 -21.537  0.00  0.00    +0.143 A 
ATOM      5  O   UNL     1       0.456   1.537 -21.092  0.00  0.00    -0.454 OA
ATOM      6  C   UNL     1       1.541   1.923 -21.696  0.00  0.00    +0.146 A 
ATOM      7  C   UNL     1       2.702   1.543 -21.251  0.00  0.00    +0.093 A 
ATOM      8  C   UNL     1       3.787   1.929 -21.855  0.00  0.00    +0.127 A 
ATOM      9  C   UNL     1       3.711   2.695 -22.903  0.00  0.00    +0.040 A 
ATOM     10  C   UNL     1       2.550   3.074 -23.347  0.00  0.00    +0.138 A 
ATOM     11  C   UNL     1       1.464   2.688 -22.744  0.00  0.00    +0.106 A 
ATOM     12  C   UNL     1       0.303   3.067 -23.188  0.00  0.00    +0.204 A 
ATOM     13  O   UNL     1       0.227   3.833 -24.237  0.00  0.00    -0.286 OA
ATOM     14  C   UNL     1      -0.782   2.682 -22.585  0.00  0.00    +0.072 A 
ATOM     15  C   UNL     1      -1.943   3.061 -23.030  0.00  0.00    +0.016 A 
ENDROOT
BRANCH   8  16
ATOM     16  O   UNL     1       4.948   1.550 -21.410  0.00  0.00    -0.506 OA
ATOM     17  H   UNL     1       5.002   0.901 -20.736  0.00  0.00    +0.292 HD
ENDBRANCH   8  16
BRANCH  10  18
ATOM     18  O   UNL     1       2.474   3.839 -24.396  0.00  0.00    -0.506 OA
ATOM     19  H   UNL     1       2.111   3.507 -25.193  0.00  0.00    +0.292 HD
ENDBRANCH  10  18
BRANCH   2  20
ATOM     20  O   UNL     1      -4.036   1.524 -20.775  0.00  0.00    -0.503 OA
ATOM     21  H   UNL     1      -4.403   0.683 -20.963  0.00  0.00    +0.292 HD
ENDBRANCH   2  20
BRANCH   1  23
ATOM     22  C   UNL     1      -4.992   3.726 -22.101  0.00  0.00    +0.277 C 
ATOM     23  O   UNL     1      -4.188   3.055 -22.871  0.00  0.00    -0.491 OA
ENDBRANCH   1  23
BRANCH   9  24
ATOM     24  C   UNL     1       4.795   3.081 -23.506  0.00  0.00    +0.069 C 
BRANCH  24  25
ATOM     25  C   UNL     1       5.318   4.238 -23.225  0.00  0.00    -0.023 C 
ATOM     26  C   UNL     1       6.610   4.365 -23.146  0.00  0.00    -0.079 C 
ATOM     27  C   UNL     1       7.378   3.336 -23.348  0.00  0.00    +0.038 C 
ATOM     28  C   UNL     1       7.132   5.521 -22.865  0.00  0.00    +0.038 C 
ENDBRANCH  24  25
ENDBRANCH   9  24
BRANCH  15  29
ATOM     29  C   UNL     1      -2.019   3.826 -24.078  0.00  0.00    +0.067 C 
BRANCH  29  30
ATOM     30  C   UNL     1      -2.293   3.312 -25.240  0.00  0.00    -0.023 C 
ATOM     31  C   UNL     1      -3.252   3.811 -25.962  0.00  0.00    -0.079 C 
ATOM     32  C   UNL     1      -3.937   4.824 -25.522  0.00  0.00    +0.038 C 
ATOM     33  C   UNL     1      -3.526   3.297 -27.124  0.00  0.00    +0.038 C 
ENDBRANCH  29  30
ENDBRANCH  15  29
TORSDOF 8
ENDMDL
MODEL 2
REMARK VINA RESULT:    -9.534      2.069      7.990
REMARK INTER + INTRA:         -11.112
REMARK INTER:                 -11.916
REMARK INTRA:                   0.804
REMARK UNBOUND:                 2.045
REMARK  Name = ZINC000005430812
REMARK  13 active torsions:
REMARK  status: ('A' for Active; 'I' for Inactive)
REMARK    1  A    between atoms: C_1  and  O_2
REMARK    2  A    between atoms: O_2  and  C_3
REMARK    3  A    between atoms: C_4  and  O_5
REMARK    4  A    between atoms: C_11  and  O_12
REMARK    5  A    between atoms: C_13  and  C_14
REMARK    6  A    between atoms: C_14  and  C_15
REMARK    7  A    between atoms: C_16  and  C_17
REMARK    8  A    between atoms: C_16  and  C_18
REMARK    9  A    between atoms: C_19  and  O_20
REMARK   10  A    between atoms: C_25  and  C_26
REMARK   11  A    between atoms: C_26  and  C_27
REMARK   12  A    between atoms: C_28  and  C_29
REMARK   13  A    between atoms: C_28  and  C_30
REMARK                            x       y       z     vdW  Elec       q    Type
REMARK                         _______ _______ _______ _____ _____    ______ ____
ROOT
ATOM      1  C   UNL     1       6.288   4.244 -22.870  0.00  0.00    +0.166 A 
ATOM      2  C   UNL     1       6.403   2.952 -22.965  0.00  0.00    +0.162 A 
ATOM      3  C   UNL     1       5.343   2.212 -23.097  0.00  0.00    +0.096 A 
ATOM      4  C   UNL     1       4.166   2.764 -23.133  0.00  0.00    +0.143 A 
ATOM      5  O   UNL     1       3.105   2.024 -23.264  0.00  0.00    -0.454 OA
ATOM      6  C   UNL     1       1.928   2.577 -23.299  0.00  0.00    +0.146 A 
ATOM      7  C   UNL     1       0.868   1.837 -23.431  0.00  0.00    +0.093 A 
ATOM      8  C   UNL     1      -0.309   2.388 -23.466  0.00  0.00    +0.127 A 
ATOM      9  C   UNL     1      -0.425   3.680 -23.371  0.00  0.00    +0.040 A 
ATOM     10  C   UNL     1       0.636   4.419 -23.240  0.00  0.00    +0.138 A 
ATOM     11  C   UNL     1       1.813   3.868 -23.204  0.00  0.00    +0.106 A 
ATOM     12  C   UNL     1       2.874   4.607 -23.073  0.00  0.00    +0.204 A 
ATOM     13  O   UNL     1       2.758   5.899 -22.977  0.00  0.00    -0.286 OA
ATOM     14  C   UNL     1       4.051   4.055 -23.037  0.00  0.00    +0.072 A 
ATOM     15  C   UNL     1       5.112   4.796 -22.905  0.00  0.00    +0.016 A 
ENDROOT
BRANCH   8  16
ATOM     16  O   UNL     1      -1.370   1.649 -23.598  0.00  0.00    -0.506 OA
ATOM     17  H   UNL     1      -2.064   1.922 -24.166  0.00  0.00    +0.292 HD
ENDBRANCH   8  16
BRANCH  10  18
ATOM     18  O   UNL     1       0.520   5.711 -23.144  0.00  0.00    -0.506 OA
ATOM     19  H   UNL     1       0.079   6.192 -23.816  0.00  0.00    +0.292 HD
ENDBRANCH  10  18
BRANCH   2  20
ATOM     20  O   UNL     1       7.580   2.401 -22.930  0.00  0.00    -0.503 OA
ATOM     21  H   UNL     1       8.087   2.428 -22.142  0.00  0.00    +0.292 HD
ENDBRANCH   2  20
BRANCH   1  23
ATOM     22  C   UNL     1       8.102   5.229 -23.769  0.00  0.00    +0.277 C 
ATOM     23  O   UNL     1       7.349   4.983 -22.739  0.00  0.00    -0.491 OA
ENDBRANCH   1  23
BRANCH   9  24
ATOM     24  C   UNL     1      -1.601   4.232 -23.406  0.00  0.00    +0.069 C 
BRANCH  24  25
ATOM     25  C   UNL     1      -2.210   4.391 -24.545  0.00  0.00    -0.023 C 
ATOM     26  C   UNL     1      -3.481   4.137 -24.642  0.00  0.00    -0.079 C 
ATOM     27  C   UNL     1      -4.143   3.724 -23.603  0.00  0.00    +0.038 C 
ATOM     28  C   UNL     1      -4.089   4.296 -25.780  0.00  0.00    +0.038 C 
ENDBRANCH  24  25
ENDBRANCH   9  24
BRANCH  15  29
ATOM     29  C   UNL     1       4.996   6.086 -22.810  0.00  0.00    +0.067 C 
BRANCH  29  30
ATOM     30  C   UNL     1       5.634   6.728 -21.877  0.00  0.00    -0.023 C 
ATOM     31  C   UNL     1       5.282   7.940 -21.564  0.00  0.00    -0.079 C 
ATOM     32  C   UNL     1       4.292   8.509 -22.185  0.00  0.00    +0.038 C 
ATOM     33  C   UNL     1       5.920   8.583 -20.632  0.00  0.00    +0.038 C 
ENDBRANCH  29  30
ENDBRANCH  15  29
TORSDOF 8
ENDMDL
MODEL 3
REMARK VINA RESULT:    -9.521      2.776      8.450
REMARK INTER + INTRA:         -11.094
REMARK INTER:                 -11.471
REMARK INTRA:                   0.377
REMARK UNBOUND:                 2.045
REMARK  Name = ZINC000005430812
REMARK  13 active torsions:
REMARK  status: ('A' for Active; 'I' for Inactive)
REMARK    1  A    between atoms: C_1  and  O_2
REMARK    2  A    between atoms: O_2  and  C_3
REMARK    3  A    between atoms: C_4  and  O_5
REMARK    4  A    between atoms: C_11  and  O_12
REMARK    5  A    between atoms: C_13  and  C_14
REMARK    6  A    between atoms: C_14  and  C_15
REMARK    7  A    between atoms: C_16  and  C_17
REMARK    8  A    between atoms: C_16  and  C_18
REMARK    9  A    between atoms: C_19  and  O_20
REMARK   10  A    between atoms: C_25  and  C_26
REMARK   11  A    between atoms: C_26  and  C_27
REMARK   12  A    between atoms: C_28  and  C_29
REMARK   13  A    between atoms: C_28  and  C_30
REMARK                            x       y       z     vdW  Elec       q    Type
REMARK                         _______ _______ _______ _____ _____    ______ ____
ROOT
ATOM      1  C   UNL     1       7.290   5.913 -21.636  0.00  0.00    +0.166 A 
ATOM      2  C   UNL     1       7.813   4.765 -21.954  0.00  0.00    +0.162 A 
ATOM      3  C   UNL     1       7.089   3.861 -22.544  0.00  0.00    +0.096 A 
ATOM      4  C   UNL     1       5.840   4.104 -22.816  0.00  0.00    +0.143 A 
ATOM      5  O   UNL     1       5.116   3.199 -23.405  0.00  0.00    -0.454 OA
ATOM      6  C   UNL     1       3.868   3.443 -23.677  0.00  0.00    +0.146 A 
ATOM      7  C   UNL     1       3.144   2.539 -24.266  0.00  0.00    +0.093 A 
ATOM      8  C   UNL     1       1.896   2.782 -24.538  0.00  0.00    +0.127 A 
ATOM      9  C   UNL     1       1.372   3.929 -24.220  0.00  0.00    +0.040 A 
ATOM     10  C   UNL     1       2.097   4.832 -23.631  0.00  0.00    +0.138 A 
ATOM     11  C   UNL     1       3.345   4.590 -23.359  0.00  0.00    +0.106 A 
ATOM     12  C   UNL     1       4.070   5.493 -22.769  0.00  0.00    +0.204 A 
ATOM     13  O   UNL     1       3.547   6.640 -22.451  0.00  0.00    -0.286 OA
ATOM     14  C   UNL     1       5.318   5.251 -22.497  0.00  0.00    +0.072 A 
ATOM     15  C   UNL     1       6.042   6.155 -21.908  0.00  0.00    +0.016 A 
ENDROOT
BRANCH   8  16
ATOM     16  O   UNL     1       1.171   1.878 -25.128  0.00  0.00    -0.506 OA
ATOM     17  H   UNL     1       1.123   1.012 -24.773  0.00  0.00    +0.292 HD
ENDBRANCH   8  16
BRANCH  10  18
ATOM     18  O   UNL     1       1.574   5.979 -23.313  0.00  0.00    -0.506 OA
ATOM     19  H   UNL     1       0.675   6.154 -23.509  0.00  0.00    +0.292 HD
ENDBRANCH  10  18
BRANCH   2  20
ATOM     20  O   UNL     1       9.061   4.522 -21.682  0.00  0.00    -0.503 OA
ATOM     21  H   UNL     1       9.536   3.889 -22.184  0.00  0.00    +0.292 HD
ENDBRANCH   2  20
BRANCH   1  23
ATOM     22  C   UNL     1       8.275   6.714 -19.777  0.00  0.00    +0.277 C 
ATOM     23  O   UNL     1       8.015   6.816 -21.047  0.00  0.00    -0.491 OA
ENDBRANCH   1  23
BRANCH   9  24
ATOM     24  C   UNL     1       0.125   4.172 -24.492  0.00  0.00    +0.069 C 
BRANCH  24  25
ATOM     25  C   UNL     1      -0.798   3.877 -23.624  0.00  0.00    -0.023 C 
ATOM     26  C   UNL     1      -1.967   3.478 -24.030  0.00  0.00    -0.079 C 
ATOM     27  C   UNL     1      -2.213   3.373 -25.301  0.00  0.00    +0.038 C 
ATOM     28  C   UNL     1      -2.889   3.183 -23.162  0.00  0.00    +0.038 C 
ENDBRANCH  24  25
ENDBRANCH   9  24
BRANCH  15  29
ATOM     29  C   UNL     1       5.519   7.301 -21.590  0.00  0.00    +0.067 C 
BRANCH  29  30
ATOM     30  C   UNL     1       6.047   8.403 -22.036  0.00  0.00    -0.023 C 
ATOM     31  C   UNL     1       5.657   9.549 -21.564  0.00  0.00    -0.079 C 
ATOM     32  C   UNL     1       4.738   9.594 -20.645  0.00  0.00    +0.038 C 
ATOM     33  C   UNL     1       6.184  10.650 -22.009  0.00  0.00    +0.038 C 
ENDBRANCH  29  30
ENDBRANCH  15  29
TORSDOF 8
ENDMDL
MODEL 4
REMARK VINA RESULT:    -9.449      1.977      3.778
REMARK INTER + INTRA:         -10.995
REMARK INTER:                 -11.819
REMARK INTRA:                   0.824
REMARK UNBOUND:                 2.045
REMARK  Name = ZINC000005430812
REMARK  13 active torsions:
REMARK  status: ('A' for Active; 'I' for Inactive)
REMARK    1  A    between atoms: C_1  and  O_2
REMARK    2  A    between atoms: O_2  and  C_3
REMARK    3  A    between atoms: C_4  and  O_5
REMARK    4  A    between atoms: C_11  and  O_12
REMARK    5  A    between atoms: C_13  and  C_14
REMARK    6  A    between atoms: C_14  and  C_15
REMARK    7  A    between atoms: C_16  and  C_17
REMARK    8  A    between atoms: C_16  and  C_18
REMARK    9  A    between atoms: C_19  and  O_20
REMARK   10  A    between atoms: C_25  and  C_26
REMARK   11  A    between atoms: C_26  and  C_27
REMARK   12  A    between atoms: C_28  and  C_29
REMARK   13  A    between atoms: C_28  and  C_30
REMARK                            x       y       z     vdW  Elec       q    Type
REMARK                         _______ _______ _______ _____ _____    ______ ____
ROOT
ATOM      1  C   UNL     1      -3.510   4.137 -24.486  0.00  0.00    +0.166 A 
ATOM      2  C   UNL     1      -3.265   4.132 -25.764  0.00  0.00    +0.162 A 
ATOM      3  C   UNL     1      -2.104   3.746 -26.203  0.00  0.00    +0.096 A 
ATOM      4  C   UNL     1      -1.186   3.366 -25.363  0.00  0.00    +0.143 A 
ATOM      5  O   UNL     1      -0.024   2.980 -25.802  0.00  0.00    -0.454 OA
ATOM      6  C   UNL     1       0.893   2.600 -24.963  0.00  0.00    +0.146 A 
ATOM      7  C   UNL     1       2.054   2.214 -25.402  0.00  0.00    +0.093 A 
ATOM      8  C   UNL     1       2.972   1.833 -24.563  0.00  0.00    +0.127 A 
ATOM      9  C   UNL     1       2.729   1.838 -23.286  0.00  0.00    +0.040 A 
ATOM     10  C   UNL     1       1.567   2.223 -22.848  0.00  0.00    +0.138 A 
ATOM     11  C   UNL     1       0.649   2.604 -23.686  0.00  0.00    +0.106 A 
ATOM     12  C   UNL     1      -0.513   2.990 -23.248  0.00  0.00    +0.204 A 
ATOM     13  O   UNL     1      -0.756   2.994 -21.971  0.00  0.00    -0.286 OA
ATOM     14  C   UNL     1      -1.430   3.371 -24.087  0.00  0.00    +0.072 A 
ATOM     15  C   UNL     1      -2.592   3.756 -23.648  0.00  0.00    +0.016 A 
ENDROOT
BRANCH   8  16
ATOM     16  O   UNL     1       4.134   1.448 -25.001  0.00  0.00    -0.506 OA
ATOM     17  H   UNL     1       4.188   0.824 -25.699  0.00  0.00    +0.292 HD
ENDBRANCH   8  16
BRANCH  10  18
ATOM     18  O   UNL     1       1.323   2.228 -21.571  0.00  0.00    -0.506 OA
ATOM     19  H   UNL     1       1.825   1.684 -20.996  0.00  0.00    +0.292 HD
ENDBRANCH  10  18
BRANCH   2  20
ATOM     20  O   UNL     1      -4.183   4.513 -26.602  0.00  0.00    -0.503 OA
ATOM     21  H   UNL     1      -4.437   5.414 -26.641  0.00  0.00    +0.292 HD
ENDBRANCH   2  20
BRANCH   1  23
ATOM     22  C   UNL     1      -5.710   3.755 -24.199  0.00  0.00    +0.277 C 
ATOM     23  O   UNL     1      -4.670   4.522 -24.048  0.00  0.00    -0.491 OA
ENDBRANCH   1  23
BRANCH   9  24
ATOM     24  C   UNL     1       3.645   1.457 -22.448  0.00  0.00    +0.069 C 
BRANCH  24  25
ATOM     25  C   UNL     1       4.501   2.321 -21.985  0.00  0.00    -0.023 C 
ATOM     26  C   UNL     1       5.269   2.002 -20.985  0.00  0.00    -0.079 C 
ATOM     27  C   UNL     1       5.183   0.821 -20.450  0.00  0.00    +0.038 C 
ATOM     28  C   UNL     1       6.125   2.865 -20.523  0.00  0.00    +0.038 C 
ENDBRANCH  24  25
ENDBRANCH   9  24
BRANCH  15  29
ATOM     29  C   UNL     1      -2.836   3.761 -22.371  0.00  0.00    +0.067 C 
BRANCH  29  30
ATOM     30  C   UNL     1      -3.574   2.827 -21.848  0.00  0.00    -0.023 C 
ATOM     31  C   UNL     1      -3.771   2.799 -20.563  0.00  0.00    -0.079 C 
ATOM     32  C   UNL     1      -3.230   3.704 -19.802  0.00  0.00    +0.038 C 
ATOM     33  C   UNL     1      -4.508   1.866 -20.038  0.00  0.00    +0.038 C 
ENDBRANCH  29  30
ENDBRANCH  15  29
TORSDOF 8
ENDMDL
MODEL 5
REMARK VINA RESULT:    -9.421      1.301      7.490
REMARK INTER + INTRA:         -10.956
REMARK INTER:                 -12.167
REMARK INTRA:                   1.211
REMARK UNBOUND:                 2.045
REMARK  Name = ZINC000005430812
REMARK  13 active torsions:
REMARK  status: ('A' for Active; 'I' for Inactive)
REMARK    1  A    between atoms: C_1  and  O_2
REMARK    2  A    between atoms: O_2  and  C_3
REMARK    3  A    between atoms: C_4  and  O_5
REMARK    4  A    between atoms: C_11  and  O_12
REMARK    5  A    between atoms: C_13  and  C_14
REMARK    6  A    between atoms: C_14  and  C_15
REMARK    7  A    between atoms: C_16  and  C_17
REMARK    8  A    between atoms: C_16  and  C_18
REMARK    9  A    between atoms: C_19  and  O_20
REMARK   10  A    between atoms: C_25  and  C_26
REMARK   11  A    between atoms: C_26  and  C_27
REMARK   12  A    between atoms: C_28  and  C_29
REMARK   13  A    between atoms: C_28  and  C_30
REMARK                            x       y       z     vdW  Elec       q    Type
REMARK                         _______ _______ _______ _____ _____    ______ ____
ROOT
ATOM      1  C   UNL     1       4.968   2.186 -22.039  0.00  0.00    +0.166 A 
ATOM      2  C   UNL     1       4.714   1.108 -21.357  0.00  0.00    +0.162 A 
ATOM      3  C   UNL     1       3.483   0.760 -21.124  0.00  0.00    +0.096 A 
ATOM      4  C   UNL     1       2.505   1.491 -21.574  0.00  0.00    +0.143 A 
ATOM      5  O   UNL     1       1.274   1.143 -21.341  0.00  0.00    -0.454 OA
ATOM      6  C   UNL     1       0.298   1.875 -21.790  0.00  0.00    +0.146 A 
ATOM      7  C   UNL     1      -0.933   1.527 -21.558  0.00  0.00    +0.093 A 
ATOM      8  C   UNL     1      -1.911   2.257 -22.006  0.00  0.00    +0.127 A 
ATOM      9  C   UNL     1      -1.657   3.335 -22.688  0.00  0.00    +0.040 A 
ATOM     10  C   UNL     1      -0.426   3.682 -22.920  0.00  0.00    +0.138 A 
ATOM     11  C   UNL     1       0.551   2.952 -22.471  0.00  0.00    +0.106 A 
ATOM     12  C   UNL     1       1.782   3.299 -22.703  0.00  0.00    +0.204 A 
ATOM     13  O   UNL     1       2.036   4.377 -23.385  0.00  0.00    -0.286 OA
ATOM     14  C   UNL     1       2.760   2.569 -22.255  0.00  0.00    +0.072 A 
ATOM     15  C   UNL     1       3.991   2.916 -22.487  0.00  0.00    +0.016 A 
ENDROOT
BRANCH   8  16
ATOM     16  O   UNL     1      -3.142   1.910 -21.774  0.00  0.00    -0.506 OA
ATOM     17  H   UNL     1      -3.774   2.559 -21.533  0.00  0.00    +0.292 HD
ENDBRANCH   8  16
BRANCH  10  18
ATOM     18  O   UNL     1      -0.173   4.760 -23.601  0.00  0.00    -0.506 OA
ATOM     19  H   UNL     1      -0.246   5.600 -23.193  0.00  0.00    +0.292 HD
ENDBRANCH  10  18
BRANCH   2  20
ATOM     20  O   UNL     1       5.691   0.377 -20.908  0.00  0.00    -0.503 OA
ATOM     21  H   UNL     1       5.978  -0.371 -21.393  0.00  0.00    +0.292 HD
ENDBRANCH   2  20
BRANCH   1  23
ATOM     22  C   UNL     1       6.887   1.917 -23.185  0.00  0.00    +0.277 C 
ATOM     23  O   UNL     1       6.198   2.533 -22.271  0.00  0.00    -0.491 OA
ENDBRANCH   1  23
BRANCH   9  24
ATOM     24  C   UNL     1      -2.634   4.066 -23.137  0.00  0.00    +0.069 C 
BRANCH  24  25
ATOM     25  C   UNL     1      -3.073   3.889 -24.349  0.00  0.00    -0.023 C 
ATOM     26  C   UNL     1      -4.350   3.777 -24.566  0.00  0.00    -0.079 C 
ATOM     27  C   UNL     1      -5.187   3.841 -23.574  0.00  0.00    +0.038 C 
ATOM     28  C   UNL     1      -4.789   3.601 -25.777  0.00  0.00    +0.038 C 
ENDBRANCH  24  25
ENDBRANCH   9  24
BRANCH  15  29
ATOM     29  C   UNL     1       4.244   3.994 -23.168  0.00  0.00    +0.067 C 
BRANCH  29  30
ATOM     30  C   UNL     1       5.238   4.759 -22.827  0.00  0.00    -0.023 C 
ATOM     31  C   UNL     1       5.015   5.982 -22.444  0.00  0.00    -0.079 C 
ATOM     32  C   UNL     1       3.799   6.438 -22.402  0.00  0.00    +0.038 C 
ATOM     33  C   UNL     1       6.008   6.748 -22.102  0.00  0.00    +0.038 C 
ENDBRANCH  29  30
ENDBRANCH  15  29
TORSDOF 8
ENDMDL
MODEL 6
REMARK VINA RESULT:    -8.965      1.927      8.059
REMARK INTER + INTRA:         -10.327
REMARK INTER:                 -12.008
REMARK INTRA:                   1.682
REMARK UNBOUND:                 2.045
REMARK  Name = ZINC000005430812
REMARK  13 active torsions:
REMARK  status: ('A' for Active; 'I' for Inactive)
REMARK    1  A    between atoms: C_1  and  O_2
REMARK    2  A    between atoms: O_2  and  C_3
REMARK    3  A    between atoms: C_4  and  O_5
REMARK    4  A    between atoms: C_11  and  O_12
REMARK    5  A    between atoms: C_13  and  C_14
REMARK    6  A    between atoms: C_14  and  C_15
REMARK    7  A    between atoms: C_16  and  C_17
REMARK    8  A    between atoms: C_16  and  C_18
REMARK    9  A    between atoms: C_19  and  O_20
REMARK   10  A    between atoms: C_25  and  C_26
REMARK   11  A    between atoms: C_26  and  C_27
REMARK   12  A    between atoms: C_28  and  C_29
REMARK   13  A    between atoms: C_28  and  C_30
REMARK                            x       y       z     vdW  Elec       q    Type
REMARK                         _______ _______ _______ _____ _____    ______ ____
ROOT
ATOM      1  C   UNL     1       5.300   3.444 -22.895  0.00  0.00    +0.166 A 
ATOM      2  C   UNL     1       5.299   4.743 -22.973  0.00  0.00    +0.162 A 
ATOM      3  C   UNL     1       4.178   5.385 -23.116  0.00  0.00    +0.096 A 
ATOM      4  C   UNL     1       3.057   4.729 -23.180  0.00  0.00    +0.143 A 
ATOM      5  O   UNL     1       1.936   5.371 -23.323  0.00  0.00    -0.454 OA
ATOM      6  C   UNL     1       0.815   4.714 -23.387  0.00  0.00    +0.146 A 
ATOM      7  C   UNL     1      -0.306   5.357 -23.529  0.00  0.00    +0.093 A 
ATOM      8  C   UNL     1      -1.427   4.701 -23.594  0.00  0.00    +0.127 A 
ATOM      9  C   UNL     1      -1.426   3.403 -23.515  0.00  0.00    +0.040 A 
ATOM     10  C   UNL     1      -0.305   2.762 -23.373  0.00  0.00    +0.138 A 
ATOM     11  C   UNL     1       0.816   3.417 -23.309  0.00  0.00    +0.106 A 
ATOM     12  C   UNL     1       1.938   2.776 -23.166  0.00  0.00    +0.204 A 
ATOM     13  O   UNL     1       1.938   1.478 -23.088  0.00  0.00    -0.286 OA
ATOM     14  C   UNL     1       3.059   3.431 -23.102  0.00  0.00    +0.072 A 
ATOM     15  C   UNL     1       4.180   2.789 -22.959  0.00  0.00    +0.016 A 
ENDROOT
BRANCH   8  16
ATOM     16  O   UNL     1      -2.548   5.343 -23.736  0.00  0.00    -0.506 OA
ATOM     17  H   UNL     1      -2.623   6.227 -23.435  0.00  0.00    +0.292 HD
ENDBRANCH   8  16
BRANCH  10  18
ATOM     18  O   UNL     1      -0.304   1.464 -23.295  0.00  0.00    -0.506 OA
ATOM     19  H   UNL     1       0.174   0.957 -23.921  0.00  0.00    +0.292 HD
ENDBRANCH  10  18
BRANCH   2  20
ATOM     20  O   UNL     1       6.420   5.398 -22.909  0.00  0.00    -0.503 OA
ATOM     21  H   UNL     1       6.540   6.174 -23.421  0.00  0.00    +0.292 HD
ENDBRANCH   2  20
BRANCH   1  23
ATOM     22  C   UNL     1       7.412   3.037 -23.561  0.00  0.00    +0.277 C 
ATOM     23  O   UNL     1       6.421   2.803 -22.753  0.00  0.00    -0.491 OA
ENDBRANCH   1  23
BRANCH   9  24
ATOM     24  C   UNL     1      -2.546   2.747 -23.580  0.00  0.00    +0.069 C 
BRANCH  24  25
ATOM     25  C   UNL     1      -3.249   2.555 -22.502  0.00  0.00    -0.023 C 
ATOM     26  C   UNL     1      -4.478   2.975 -22.445  0.00  0.00    -0.079 C 
ATOM     27  C   UNL     1      -5.005   3.586 -23.464  0.00  0.00    +0.038 C 
ATOM     28  C   UNL     1      -5.181   2.783 -21.368  0.00  0.00    +0.038 C 
ENDBRANCH  24  25
ENDBRANCH   9  24
BRANCH  15  29
ATOM     29  C   UNL     1       4.180   1.492 -22.881  0.00  0.00    +0.067 C 
BRANCH  29  30
ATOM     30  C   UNL     1       5.082   0.884 -22.167  0.00  0.00    -0.023 C 
ATOM     31  C   UNL     1       4.752   0.328 -21.039  0.00  0.00    -0.079 C 
ATOM     32  C   UNL     1       3.520   0.380 -20.626  0.00  0.00    +0.038 C 
ATOM     33  C   UNL     1       5.652  -0.279 -20.325  0.00  0.00    +0.038 C 
ENDBRANCH  29  30
ENDBRANCH  15  29
TORSDOF 8
ENDMDL
MODEL 7
REMARK VINA RESULT:    -8.628      3.836      6.989
REMARK INTER + INTRA:          -9.862
REMARK INTER:                 -10.209
REMARK INTRA:                   0.347
REMARK UNBOUND:                 2.045
REMARK  Name = ZINC000005430812
REMARK  13 active torsions:
REMARK  status: ('A' for Active; 'I' for Inactive)
REMARK    1  A    between atoms: C_1  and  O_2
REMARK    2  A    between atoms: O_2  and  C_3
REMARK    3  A    between atoms: C_4  and  O_5
REMARK    4  A    between atoms: C_11  and  O_12
REMARK    5  A    between atoms: C_13  and  C_14
REMARK    6  A    between atoms: C_14  and  C_15
REMARK    7  A    between atoms: C_16  and  C_17
REMARK    8  A    between atoms: C_16  and  C_18
REMARK    9  A    between atoms: C_19  and  O_20
REMARK   10  A    between atoms: C_25  and  C_26
REMARK   11  A    between atoms: C_26  and  C_27
REMARK   12  A    between atoms: C_28  and  C_29
REMARK   13  A    between atoms: C_28  and  C_30
REMARK                            x       y       z     vdW  Elec       q    Type
REMARK                         _______ _______ _______ _____ _____    ______ ____
ROOT
ATOM      1  C   UNL     1       4.429   2.399 -22.811  0.00  0.00    +0.166 A 
ATOM      2  C   UNL     1       5.655   2.084 -22.514  0.00  0.00    +0.162 A 
ATOM      3  C   UNL     1       6.509   3.014 -22.202  0.00  0.00    +0.096 A 
ATOM      4  C   UNL     1       6.135   4.260 -22.186  0.00  0.00    +0.143 A 
ATOM      5  O   UNL     1       6.988   5.190 -21.874  0.00  0.00    -0.454 OA
ATOM      6  C   UNL     1       6.614   6.435 -21.859  0.00  0.00    +0.146 A 
ATOM      7  C   UNL     1       7.467   7.365 -21.547  0.00  0.00    +0.093 A 
ATOM      8  C   UNL     1       7.094   8.610 -21.531  0.00  0.00    +0.127 A 
ATOM      9  C   UNL     1       5.868   8.926 -21.827  0.00  0.00    +0.040 A 
ATOM     10  C   UNL     1       5.016   7.995 -22.139  0.00  0.00    +0.138 A 
ATOM     11  C   UNL     1       5.389   6.750 -22.155  0.00  0.00    +0.106 A 
ATOM     12  C   UNL     1       4.536   5.819 -22.467  0.00  0.00    +0.204 A 
ATOM     13  O   UNL     1       3.310   6.135 -22.763  0.00  0.00    -0.286 OA
ATOM     14  C   UNL     1       4.909   4.574 -22.483  0.00  0.00    +0.072 A 
ATOM     15  C   UNL     1       4.056   3.644 -22.795  0.00  0.00    +0.016 A 
ENDROOT
BRANCH   8  16
ATOM     16  O   UNL     1       7.947   9.541 -21.219  0.00  0.00    -0.506 OA
ATOM     17  H   UNL     1       8.082  10.265 -21.798  0.00  0.00    +0.292 HD
ENDBRANCH   8  16
BRANCH  10  18
ATOM     18  O   UNL     1       3.790   8.311 -22.435  0.00  0.00    -0.506 OA
ATOM     19  H   UNL     1       3.084   7.764 -22.151  0.00  0.00    +0.292 HD
ENDBRANCH  10  18
BRANCH   2  20
ATOM     20  O   UNL     1       6.028   0.839 -22.530  0.00  0.00    -0.503 OA
ATOM     21  H   UNL     1       6.545   0.495 -21.828  0.00  0.00    +0.292 HD
ENDBRANCH   2  20
BRANCH   1  23
ATOM     22  C   UNL     1       3.048   0.732 -22.191  0.00  0.00    +0.277 C 
ATOM     23  O   UNL     1       3.577   1.469 -23.122  0.00  0.00    -0.491 OA
ENDBRANCH   1  23
BRANCH   9  24
ATOM     24  C   UNL     1       5.495  10.170 -21.811  0.00  0.00    +0.069 C 
BRANCH  24  25
ATOM     25  C   UNL     1       5.017  10.691 -20.719  0.00  0.00    -0.023 C 
ATOM     26  C   UNL     1       3.999  11.498 -20.777  0.00  0.00    -0.079 C 
ATOM     27  C   UNL     1       3.459  11.784 -21.923  0.00  0.00    +0.038 C 
ATOM     28  C   UNL     1       3.522  12.019 -19.685  0.00  0.00    +0.038 C 
ENDBRANCH  24  25
ENDBRANCH   9  24
BRANCH  15  29
ATOM     29  C   UNL     1       2.830   3.959 -23.091  0.00  0.00    +0.067 C 
BRANCH  29  30
ATOM     30  C   UNL     1       2.373   3.735 -24.287  0.00  0.00    -0.023 C 
ATOM     31  C   UNL     1       1.156   4.078 -24.593  0.00  0.00    -0.079 C 
ATOM     32  C   UNL     1       0.398   4.645 -23.702  0.00  0.00    +0.038 C 
ATOM     33  C   UNL     1       0.698   3.855 -25.788  0.00  0.00    +0.038 C 
ENDBRANCH  29  30
ENDBRANCH  15  29
TORSDOF 8
ENDMDL
