MODEL 1
REMARK VINA RESULT:   -12.759      0.000      0.000
REMARK INTER + INTRA:         -13.132
REMARK INTER:                 -13.132
REMARK INTRA:                   0.000
REMARK UNBOUND:                 0.000
REMARK  Name = C[C@]1(O)CC[C@H]2[C@@H]3CC(=O)C4=CC(=O)CC[C@]4(C)[C@H]3CC[C@@]21C    ZINC000118913917
REMARK  4 active torsions:
REMARK  status: ('A' for Active; 'I' for Inactive)
REMARK    1  A    between atoms: C_1  and  C_2
REMARK    2  A    between atoms: C_2  and  O_3
REMARK    3  A    between atoms: C_17  and  C_18
REMARK    4  A    between atoms: C_22  and  C_23
REMARK                            x       y       z     vdW  Elec       q    Type
REMARK                         _______ _______ _______ _____ _____    ______ ____
ROOT
ATOM      1  C   UNL     1      -5.194   4.043 -24.092  0.00  0.00    +0.042 C 
ATOM      2  C   UNL     1      -4.957   3.526 -22.926  0.00  0.00    +0.069 C 
ATOM      3  C   UNL     1      -5.043   3.063 -21.712  0.00  0.00    +0.035 C 
ATOM      4  C   UNL     1      -3.862   2.651 -21.351  0.00  0.00    +0.007 C 
ATOM      5  C   UNL     1      -3.044   2.859 -22.343  0.00  0.00    +0.002 C 
ATOM      6  C   UNL     1      -1.774   2.627 -22.486  0.00  0.00    +0.004 C 
ATOM      7  C   UNL     1      -1.096   2.086 -21.513  0.00  0.00    +0.083 C 
ATOM      8  C   UNL     1       0.175   1.855 -21.660  0.00  0.00    +0.160 C 
ATOM      9  C   UNL     1       0.772   2.163 -22.776  0.00  0.00    +0.004 C 
ATOM     10  C   UNL     1       2.042   1.931 -22.921  0.00  0.00    +0.053 C 
ATOM     11  C   UNL     1       2.640   2.239 -24.038  0.00  0.00    +0.157 C 
ATOM     12  C   UNL     1       1.959   2.779 -25.008  0.00  0.00    +0.080 C 
ATOM     13  C   UNL     1       0.688   3.011 -24.862  0.00  0.00    +0.019 C 
ATOM     14  O   UNL     1       3.911   2.007 -24.183  0.00  0.00    -0.293 OA
ATOM     15  C   UNL     1       0.092   2.703 -23.746  0.00  0.00    -0.000 C 
ATOM     16  C   UNL     1      -0.586   3.243 -24.716  0.00  0.00    +0.016 C 
ATOM     17  O   UNL     1       0.855   1.314 -20.689  0.00  0.00    -0.292 OA
ATOM     18  C   UNL     1      -1.180   2.934 -23.600  0.00  0.00    +0.003 C 
ATOM     19  C   UNL     1      -1.858   3.474 -24.570  0.00  0.00    +0.005 C 
ATOM     20  C   UNL     1      -3.125   3.707 -24.431  0.00  0.00    +0.010 C 
ATOM     21  C   UNL     1      -3.716   3.399 -23.318  0.00  0.00    -0.000 C 
ATOM     22  C   UNL     1      -4.435   3.923 -24.224  0.00  0.00    +0.014 C 
ENDROOT
BRANCH   2  23
ATOM     23  O   UNL     1      -6.227   3.747 -22.754  0.00  0.00    -0.388 OA
ATOM     24  H   UNL     1      -6.382   4.060 -21.849  0.00  0.00    +0.210 HD
ENDBRANCH   2  23
TORSDOF 1
ENDMDL
MODEL 2
REMARK VINA RESULT:   -12.601      1.094      2.635
REMARK INTER + INTRA:         -12.970
REMARK INTER:                 -12.970
REMARK INTRA:                   0.000
REMARK UNBOUND:                 0.000
REMARK  Name = C[C@]1(O)CC[C@H]2[C@@H]3CC(=O)C4=CC(=O)CC[C@]4(C)[C@H]3CC[C@@]21C    ZINC000118913917
REMARK  4 active torsions:
REMARK  status: ('A' for Active; 'I' for Inactive)
REMARK    1  A    between atoms: C_1  and  C_2
REMARK    2  A    between atoms: C_2  and  O_3
REMARK    3  A    between atoms: C_17  and  C_18
REMARK    4  A    between atoms: C_22  and  C_23
REMARK                            x       y       z     vdW  Elec       q    Type
REMARK                         _______ _______ _______ _____ _____    ______ ____
ROOT
ATOM      1  C   UNL     1      -4.916   2.894 -21.382  0.00  0.00    +0.042 C 
ATOM      2  C   UNL     1      -4.675   3.381 -22.560  0.00  0.00    +0.069 C 
ATOM      3  C   UNL     1      -4.756   3.946 -23.729  0.00  0.00    +0.035 C 
ATOM      4  C   UNL     1      -3.577   3.905 -24.282  0.00  0.00    +0.007 C 
ATOM      5  C   UNL     1      -2.766   3.314 -23.452  0.00  0.00    +0.002 C 
ATOM      6  C   UNL     1      -1.501   3.029 -23.527  0.00  0.00    +0.004 C 
ATOM      7  C   UNL     1      -0.821   3.353 -24.591  0.00  0.00    +0.083 C 
ATOM      8  C   UNL     1       0.445   3.065 -24.662  0.00  0.00    +0.160 C 
ATOM      9  C   UNL     1       1.035   2.457 -23.673  0.00  0.00    +0.004 C 
ATOM     10  C   UNL     1       2.301   2.171 -23.746  0.00  0.00    +0.053 C 
ATOM     11  C   UNL     1       2.892   1.561 -22.758  0.00  0.00    +0.157 C 
ATOM     12  C   UNL     1       2.209   1.239 -21.696  0.00  0.00    +0.080 C 
ATOM     13  C   UNL     1       0.943   1.526 -21.623  0.00  0.00    +0.019 C 
ATOM     14  O   UNL     1       4.158   1.275 -22.831  0.00  0.00    -0.293 OA
ATOM     15  C   UNL     1       0.353   2.135 -22.612  0.00  0.00    -0.000 C 
ATOM     16  C   UNL     1      -0.326   1.812 -21.550  0.00  0.00    +0.016 C 
ATOM     17  O   UNL     1       1.127   3.388 -25.724  0.00  0.00    -0.292 OA
ATOM     18  C   UNL     1      -0.914   2.421 -22.540  0.00  0.00    +0.003 C 
ATOM     19  C   UNL     1      -1.593   2.099 -21.478  0.00  0.00    +0.005 C 
ATOM     20  C   UNL     1      -2.856   2.382 -21.400  0.00  0.00    +0.010 C 
ATOM     21  C   UNL     1      -3.440   2.989 -22.387  0.00  0.00    -0.000 C 
ATOM     22  C   UNL     1      -4.160   2.702 -21.380  0.00  0.00    +0.014 C 
ENDROOT
BRANCH   2  23
ATOM     23  O   UNL     1      -5.940   3.679 -22.513  0.00  0.00    -0.388 OA
ATOM     24  H   UNL     1      -6.421   3.156 -23.175  0.00  0.00    +0.210 HD
ENDBRANCH   2  23
TORSDOF 1
ENDMDL
MODEL 3
REMARK VINA RESULT:   -11.916      1.135      6.282
REMARK INTER + INTRA:         -12.264
REMARK INTER:                 -12.264
REMARK INTRA:                   0.000
REMARK UNBOUND:                 0.000
REMARK  Name = C[C@]1(O)CC[C@H]2[C@@H]3CC(=O)C4=CC(=O)CC[C@]4(C)[C@H]3CC[C@@]21C    ZINC000118913917
REMARK  4 active torsions:
REMARK  status: ('A' for Active; 'I' for Inactive)
REMARK    1  A    between atoms: C_1  and  C_2
REMARK    2  A    between atoms: C_2  and  O_3
REMARK    3  A    between atoms: C_17  and  C_18
REMARK    4  A    between atoms: C_22  and  C_23
REMARK                            x       y       z     vdW  Elec       q    Type
REMARK                         _______ _______ _______ _____ _____    ______ ____
ROOT
ATOM      1  C   UNL     1       2.809   1.357 -21.808  0.00  0.00    +0.042 C 
ATOM      2  C   UNL     1       2.624   1.892 -22.976  0.00  0.00    +0.069 C 
ATOM      3  C   UNL     1       2.763   2.372 -24.177  0.00  0.00    +0.035 C 
ATOM      4  C   UNL     1       1.599   2.793 -24.583  0.00  0.00    +0.007 C 
ATOM      5  C   UNL     1       0.739   2.573 -23.631  0.00  0.00    +0.002 C 
ATOM      6  C   UNL     1      -0.535   2.806 -23.539  0.00  0.00    +0.004 C 
ATOM      7  C   UNL     1      -1.170   3.363 -24.533  0.00  0.00    +0.083 C 
ATOM      8  C   UNL     1      -2.446   3.595 -24.437  0.00  0.00    +0.160 C 
ATOM      9  C   UNL     1      -3.090   3.273 -23.353  0.00  0.00    +0.004 C 
ATOM     10  C   UNL     1      -4.366   3.505 -23.259  0.00  0.00    +0.053 C 
ATOM     11  C   UNL     1      -5.012   3.183 -22.174  0.00  0.00    +0.157 C 
ATOM     12  C   UNL     1      -4.374   2.626 -21.183  0.00  0.00    +0.080 C 
ATOM     13  C   UNL     1      -3.098   2.394 -21.277  0.00  0.00    +0.019 C 
ATOM     14  O   UNL     1      -6.287   3.416 -22.080  0.00  0.00    -0.293 OA
ATOM     15  C   UNL     1      -2.454   2.716 -22.362  0.00  0.00    -0.000 C 
ATOM     16  C   UNL     1      -1.820   2.161 -21.371  0.00  0.00    +0.016 C 
ATOM     17  O   UNL     1      -3.082   4.151 -25.429  0.00  0.00    -0.292 OA
ATOM     18  C   UNL     1      -1.177   2.484 -22.457  0.00  0.00    +0.003 C 
ATOM     19  C   UNL     1      -0.543   1.928 -21.466  0.00  0.00    +0.005 C 
ATOM     20  C   UNL     1       0.729   1.694 -21.554  0.00  0.00    +0.010 C 
ATOM     21  C   UNL     1       1.368   2.016 -22.636  0.00  0.00    -0.000 C 
ATOM     22  C   UNL     1       2.045   1.477 -21.707  0.00  0.00    +0.014 C 
ENDROOT
BRANCH   2  23
ATOM     23  O   UNL     1       3.900   1.670 -23.096  0.00  0.00    -0.388 OA
ATOM     24  H   UNL     1       4.375   2.115 -22.376  0.00  0.00    +0.210 HD
ENDBRANCH   2  23
TORSDOF 1
ENDMDL
MODEL 4
REMARK VINA RESULT:   -11.000      1.954      2.979
REMARK INTER + INTRA:         -11.321
REMARK INTER:                 -11.321
REMARK INTRA:                   0.000
REMARK UNBOUND:                 0.000
REMARK  Name = C[C@]1(O)CC[C@H]2[C@@H]3CC(=O)C4=CC(=O)CC[C@]4(C)[C@H]3CC[C@@]21C    ZINC000118913917
REMARK  4 active torsions:
REMARK  status: ('A' for Active; 'I' for Inactive)
REMARK    1  A    between atoms: C_1  and  C_2
REMARK    2  A    between atoms: C_2  and  O_3
REMARK    3  A    between atoms: C_17  and  C_18
REMARK    4  A    between atoms: C_22  and  C_23
REMARK                            x       y       z     vdW  Elec       q    Type
REMARK                         _______ _______ _______ _____ _____    ______ ____
ROOT
ATOM      1  C   UNL     1      -2.238   4.505 -23.779  0.00  0.00    +0.042 C 
ATOM      2  C   UNL     1      -2.204   3.476 -22.991  0.00  0.00    +0.069 C 
ATOM      3  C   UNL     1      -2.500   2.470 -22.219  0.00  0.00    +0.035 C 
ATOM      4  C   UNL     1      -1.386   1.929 -21.814  0.00  0.00    +0.007 C 
ATOM      5  C   UNL     1      -0.401   2.601 -22.336  0.00  0.00    +0.002 C 
ATOM      6  C   UNL     1       0.888   2.467 -22.245  0.00  0.00    +0.004 C 
ATOM      7  C   UNL     1       1.395   1.511 -21.517  0.00  0.00    +0.083 C 
ATOM      8  C   UNL     1       2.686   1.380 -21.429  0.00  0.00    +0.160 C 
ATOM      9  C   UNL     1       3.472   2.201 -22.064  0.00  0.00    +0.004 C 
ATOM     10  C   UNL     1       4.762   2.068 -21.973  0.00  0.00    +0.053 C 
ATOM     11  C   UNL     1       5.550   2.889 -22.609  0.00  0.00    +0.157 C 
ATOM     12  C   UNL     1       5.040   3.843 -23.335  0.00  0.00    +0.080 C 
ATOM     13  C   UNL     1       3.749   3.976 -23.425  0.00  0.00    +0.019 C 
ATOM     14  O   UNL     1       6.840   2.757 -22.519  0.00  0.00    -0.293 OA
ATOM     15  C   UNL     1       2.963   3.154 -22.790  0.00  0.00    -0.000 C 
ATOM     16  C   UNL     1       2.456   4.108 -23.515  0.00  0.00    +0.016 C 
ATOM     17  O   UNL     1       3.194   0.426 -20.702  0.00  0.00    -0.292 OA
ATOM     18  C   UNL     1       1.671   3.286 -22.879  0.00  0.00    +0.003 C 
ATOM     19  C   UNL     1       1.165   4.240 -23.605  0.00  0.00    +0.005 C 
ATOM     20  C   UNL     1      -0.121   4.376 -23.699  0.00  0.00    +0.010 C 
ATOM     21  C   UNL     1      -0.901   3.557 -23.064  0.00  0.00    -0.000 C 
ATOM     22  C   UNL     1      -1.460   4.465 -23.755  0.00  0.00    +0.014 C 
ENDROOT
BRANCH   2  23
ATOM     23  O   UNL     1      -3.498   3.585 -23.064  0.00  0.00    -0.388 OA
ATOM     24  H   UNL     1      -3.783   3.457 -23.982  0.00  0.00    +0.210 HD
ENDBRANCH   2  23
TORSDOF 1
ENDMDL
MODEL 5
REMARK VINA RESULT:   -10.931      1.271      5.742
REMARK INTER + INTRA:         -11.251
REMARK INTER:                 -11.251
REMARK INTRA:                   0.000
REMARK UNBOUND:                 0.000
REMARK  Name = C[C@]1(O)CC[C@H]2[C@@H]3CC(=O)C4=CC(=O)CC[C@]4(C)[C@H]3CC[C@@]21C    ZINC000118913917
REMARK  4 active torsions:
REMARK  status: ('A' for Active; 'I' for Inactive)
REMARK    1  A    between atoms: C_1  and  C_2
REMARK    2  A    between atoms: C_2  and  O_3
REMARK    3  A    between atoms: C_17  and  C_18
REMARK    4  A    between atoms: C_22  and  C_23
REMARK                            x       y       z     vdW  Elec       q    Type
REMARK                         _______ _______ _______ _____ _____    ______ ____
ROOT
ATOM      1  C   UNL     1       3.516   2.159 -24.042  0.00  0.00    +0.042 C 
ATOM      2  C   UNL     1       3.018   1.805 -22.897  0.00  0.00    +0.069 C 
ATOM      3  C   UNL     1       2.830   1.357 -21.690  0.00  0.00    +0.035 C 
ATOM      4  C   UNL     1       1.572   1.512 -21.390  0.00  0.00    +0.007 C 
ATOM      5  C   UNL     1       0.980   2.057 -22.415  0.00  0.00    +0.002 C 
ATOM      6  C   UNL     1      -0.252   2.411 -22.620  0.00  0.00    +0.004 C 
ATOM      7  C   UNL     1      -1.147   2.231 -21.689  0.00  0.00    +0.083 C 
ATOM      8  C   UNL     1      -2.380   2.587 -21.899  0.00  0.00    +0.160 C 
ATOM      9  C   UNL     1      -2.722   3.123 -23.035  0.00  0.00    +0.004 C 
ATOM     10  C   UNL     1      -3.955   3.478 -23.242  0.00  0.00    +0.053 C 
ATOM     11  C   UNL     1      -4.299   4.015 -24.379  0.00  0.00    +0.157 C 
ATOM     12  C   UNL     1      -3.402   4.193 -25.307  0.00  0.00    +0.080 C 
ATOM     13  C   UNL     1      -2.169   3.838 -25.099  0.00  0.00    +0.019 C 
ATOM     14  O   UNL     1      -5.532   4.370 -24.587  0.00  0.00    -0.293 OA
ATOM     15  C   UNL     1      -1.827   3.302 -23.963  0.00  0.00    -0.000 C 
ATOM     16  C   UNL     1      -0.933   3.482 -24.891  0.00  0.00    +0.016 C 
ATOM     17  O   UNL     1      -3.275   2.408 -20.970  0.00  0.00    -0.292 OA
ATOM     18  C   UNL     1      -0.592   2.946 -23.754  0.00  0.00    +0.003 C 
ATOM     19  C   UNL     1       0.301   3.126 -24.683  0.00  0.00    +0.005 C 
ATOM     20  C   UNL     1       1.532   2.773 -24.481  0.00  0.00    +0.010 C 
ATOM     21  C   UNL     1       1.870   2.240 -23.348  0.00  0.00    -0.000 C 
ATOM     22  C   UNL     1       2.790   2.387 -24.211  0.00  0.00    +0.014 C 
ENDROOT
BRANCH   2  23
ATOM     23  O   UNL     1       4.244   1.440 -22.663  0.00  0.00    -0.388 OA
ATOM     24  H   UNL     1       4.630   1.064 -23.471  0.00  0.00    +0.210 HD
ENDBRANCH   2  23
TORSDOF 1
ENDMDL
MODEL 6
REMARK VINA RESULT:   -10.850      2.171      6.830
REMARK INTER + INTRA:         -11.167
REMARK INTER:                 -11.167
REMARK INTRA:                   0.000
REMARK UNBOUND:                 0.000
REMARK  Name = C[C@]1(O)CC[C@H]2[C@@H]3CC(=O)C4=CC(=O)CC[C@]4(C)[C@H]3CC[C@@]21C    ZINC000118913917
REMARK  4 active torsions:
REMARK  status: ('A' for Active; 'I' for Inactive)
REMARK    1  A    between atoms: C_1  and  C_2
REMARK    2  A    between atoms: C_2  and  O_3
REMARK    3  A    between atoms: C_17  and  C_18
REMARK    4  A    between atoms: C_22  and  C_23
REMARK                            x       y       z     vdW  Elec       q    Type
REMARK                         _______ _______ _______ _____ _____    ______ ____
ROOT
ATOM      1  C   UNL     1       4.884   0.744 -21.854  0.00  0.00    +0.042 C 
ATOM      2  C   UNL     1       4.885   1.883 -22.475  0.00  0.00    +0.069 C 
ATOM      3  C   UNL     1       5.212   2.971 -23.110  0.00  0.00    +0.035 C 
ATOM      4  C   UNL     1       4.125   3.651 -23.338  0.00  0.00    +0.007 C 
ATOM      5  C   UNL     1       3.123   2.982 -22.843  0.00  0.00    +0.002 C 
ATOM      6  C   UNL     1       1.848   3.224 -22.809  0.00  0.00    +0.004 C 
ATOM      7  C   UNL     1       1.376   4.316 -23.342  0.00  0.00    +0.083 C 
ATOM      8  C   UNL     1       0.099   4.555 -23.305  0.00  0.00    +0.160 C 
ATOM      9  C   UNL     1      -0.710   3.707 -22.738  0.00  0.00    +0.004 C 
ATOM     10  C   UNL     1      -1.987   3.948 -22.702  0.00  0.00    +0.053 C 
ATOM     11  C   UNL     1      -2.797   3.100 -22.134  0.00  0.00    +0.157 C 
ATOM     12  C   UNL     1      -2.322   2.010 -21.602  0.00  0.00    +0.080 C 
ATOM     13  C   UNL     1      -1.045   1.769 -21.638  0.00  0.00    +0.019 C 
ATOM     14  O   UNL     1      -4.074   3.341 -22.099  0.00  0.00    -0.293 OA
ATOM     15  C   UNL     1      -0.237   2.617 -22.206  0.00  0.00    -0.000 C 
ATOM     16  C   UNL     1       0.235   1.528 -21.674  0.00  0.00    +0.016 C 
ATOM     17  O   UNL     1      -0.374   5.646 -23.838  0.00  0.00    -0.292 OA
ATOM     18  C   UNL     1       1.042   2.377 -22.242  0.00  0.00    +0.003 C 
ATOM     19  C   UNL     1       1.513   1.287 -21.710  0.00  0.00    +0.005 C 
ATOM     20  C   UNL     1       2.785   1.042 -21.742  0.00  0.00    +0.010 C 
ATOM     21  C   UNL     1       3.588   1.889 -22.309  0.00  0.00    -0.000 C 
ATOM     22  C   UNL     1       4.112   0.846 -21.809  0.00  0.00    +0.014 C 
ENDROOT
BRANCH   2  23
ATOM     23  O   UNL     1       6.167   1.667 -22.525  0.00  0.00    -0.388 OA
ATOM     24  H   UNL     1       6.525   2.032 -23.350  0.00  0.00    +0.210 HD
ENDBRANCH   2  23
TORSDOF 1
ENDMDL
MODEL 7
REMARK VINA RESULT:   -10.347      2.053      6.463
REMARK INTER + INTRA:         -10.649
REMARK INTER:                 -10.649
REMARK INTRA:                   0.000
REMARK UNBOUND:                 0.000
REMARK  Name = C[C@]1(O)CC[C@H]2[C@@H]3CC(=O)C4=CC(=O)CC[C@]4(C)[C@H]3CC[C@@]21C    ZINC000118913917
REMARK  4 active torsions:
REMARK  status: ('A' for Active; 'I' for Inactive)
REMARK    1  A    between atoms: C_1  and  C_2
REMARK    2  A    between atoms: C_2  and  O_3
REMARK    3  A    between atoms: C_17  and  C_18
REMARK    4  A    between atoms: C_22  and  C_23
REMARK                            x       y       z     vdW  Elec       q    Type
REMARK                         _______ _______ _______ _____ _____    ______ ____
ROOT
ATOM      1  C   UNL     1       5.537   3.792 -23.073  0.00  0.00    +0.042 C 
ATOM      2  C   UNL     1       5.152   2.779 -22.360  0.00  0.00    +0.069 C 
ATOM      3  C   UNL     1       5.091   1.724 -21.600  0.00  0.00    +0.035 C 
ATOM      4  C   UNL     1       3.837   1.411 -21.440  0.00  0.00    +0.007 C 
ATOM      5  C   UNL     1       3.121   2.275 -22.101  0.00  0.00    +0.002 C 
ATOM      6  C   UNL     1       1.838   2.401 -22.260  0.00  0.00    +0.004 C 
ATOM      7  C   UNL     1       1.024   1.556 -21.691  0.00  0.00    +0.083 C 
ATOM      8  C   UNL     1      -0.260   1.686 -21.852  0.00  0.00    +0.160 C 
ATOM      9  C   UNL     1      -0.734   2.657 -22.579  0.00  0.00    +0.004 C 
ATOM     10  C   UNL     1      -2.017   2.784 -22.738  0.00  0.00    +0.053 C 
ATOM     11  C   UNL     1      -2.493   3.756 -23.466  0.00  0.00    +0.157 C 
ATOM     12  C   UNL     1      -1.676   4.598 -24.032  0.00  0.00    +0.080 C 
ATOM     13  C   UNL     1      -0.392   4.470 -23.872  0.00  0.00    +0.019 C 
ATOM     14  O   UNL     1      -3.776   3.884 -23.625  0.00  0.00    -0.293 OA
ATOM     15  C   UNL     1       0.081   3.499 -23.145  0.00  0.00    -0.000 C 
ATOM     16  C   UNL     1       0.894   4.341 -23.712  0.00  0.00    +0.016 C 
ATOM     17  O   UNL     1      -1.075   0.842 -21.285  0.00  0.00    -0.292 OA
ATOM     18  C   UNL     1       1.366   3.370 -22.985  0.00  0.00    +0.003 C 
ATOM     19  C   UNL     1       2.180   4.213 -23.552  0.00  0.00    +0.005 C 
ATOM     20  C   UNL     1       3.460   4.090 -23.396  0.00  0.00    +0.010 C 
ATOM     21  C   UNL     1       3.929   3.121 -22.672  0.00  0.00    -0.000 C 
ATOM     22  C   UNL     1       4.776   3.908 -23.197  0.00  0.00    +0.014 C 
ENDROOT
BRANCH   2  23
ATOM     23  O   UNL     1       6.431   2.628 -22.184  0.00  0.00    -0.388 OA
ATOM     24  H   UNL     1       6.675   2.937 -21.297  0.00  0.00    +0.210 HD
ENDBRANCH   2  23
TORSDOF 1
ENDMDL
MODEL 8
REMARK VINA RESULT:   -10.158      1.557      3.436
REMARK INTER + INTRA:         -10.455
REMARK INTER:                 -10.455
REMARK INTRA:                   0.000
REMARK UNBOUND:                 0.000
REMARK  Name = C[C@]1(O)CC[C@H]2[C@@H]3CC(=O)C4=CC(=O)CC[C@]4(C)[C@H]3CC[C@@]21C    ZINC000118913917
REMARK  4 active torsions:
REMARK  status: ('A' for Active; 'I' for Inactive)
REMARK    1  A    between atoms: C_1  and  C_2
REMARK    2  A    between atoms: C_2  and  O_3
REMARK    3  A    between atoms: C_17  and  C_18
REMARK    4  A    between atoms: C_22  and  C_23
REMARK                            x       y       z     vdW  Elec       q    Type
REMARK                         _______ _______ _______ _____ _____    ______ ____
ROOT
ATOM      1  C   UNL     1      -3.507   3.044 -22.860  0.00  0.00    +0.042 C 
ATOM      2  C   UNL     1      -2.808   3.353 -23.908  0.00  0.00    +0.069 C 
ATOM      3  C   UNL     1      -2.400   3.764 -25.073  0.00  0.00    +0.035 C 
ATOM      4  C   UNL     1      -1.115   3.564 -25.148  0.00  0.00    +0.007 C 
ATOM      5  C   UNL     1      -0.727   3.029 -24.026  0.00  0.00    +0.002 C 
ATOM      6  C   UNL     1       0.439   2.644 -23.603  0.00  0.00    +0.004 C 
ATOM      7  C   UNL     1       1.486   2.774 -24.369  0.00  0.00    +0.083 C 
ATOM      8  C   UNL     1       2.652   2.387 -23.942  0.00  0.00    +0.160 C 
ATOM      9  C   UNL     1       2.776   1.872 -22.753  0.00  0.00    +0.004 C 
ATOM     10  C   UNL     1       3.942   1.486 -22.328  0.00  0.00    +0.053 C 
ATOM     11  C   UNL     1       4.067   0.969 -21.138  0.00  0.00    +0.157 C 
ATOM     12  C   UNL     1       3.018   0.841 -20.376  0.00  0.00    +0.080 C 
ATOM     13  C   UNL     1       1.852   1.227 -20.801  0.00  0.00    +0.019 C 
ATOM     14  O   UNL     1       5.234   0.584 -20.714  0.00  0.00    -0.293 OA
ATOM     15  C   UNL     1       1.728   1.743 -21.990  0.00  0.00    -0.000 C 
ATOM     16  C   UNL     1       0.683   1.614 -21.227  0.00  0.00    +0.016 C 
ATOM     17  O   UNL     1       3.700   2.517 -24.706  0.00  0.00    -0.292 OA
ATOM     18  C   UNL     1       0.561   2.129 -22.416  0.00  0.00    +0.003 C 
ATOM     19  C   UNL     1      -0.485   2.000 -21.653  0.00  0.00    +0.005 C 
ATOM     20  C   UNL     1      -1.650   2.383 -22.072  0.00  0.00    +0.010 C 
ATOM     21  C   UNL     1      -1.770   2.897 -23.257  0.00  0.00    -0.000 C 
ATOM     22  C   UNL     1      -2.829   2.799 -22.563  0.00  0.00    +0.014 C 
ENDROOT
BRANCH   2  23
ATOM     23  O   UNL     1      -3.963   3.747 -24.358  0.00  0.00    -0.388 OA
ATOM     24  H   UNL     1      -3.831   4.317 -25.132  0.00  0.00    +0.210 HD
ENDBRANCH   2  23
TORSDOF 1
ENDMDL
