MODEL 1
REMARK VINA RESULT:    -6.902      0.000      0.000
REMARK INTER + INTRA:          -7.643
REMARK INTER:                  -7.704
REMARK INTRA:                   0.062
REMARK UNBOUND:                 0.066
REMARK  Name = ZINC000000073686
REMARK  4 active torsions:
REMARK  status: ('A' for Active; 'I' for Inactive)
REMARK    1  A    between atoms: C_1  and  N_2
REMARK    2  A    between atoms: N_2  and  C_3
REMARK    3  A    between atoms: N_2  and  C_4
REMARK    4  A    between atoms: C_4  and  C_5
REMARK                            x       y       z     vdW  Elec       q    Type
REMARK                         _______ _______ _______ _____ _____    ______ ____
ROOT
ATOM      1  C   UNL     1      -2.393   3.427 -24.385  0.00  0.00    +0.022 A 
ATOM      2  C   UNL     1      -2.990   3.937 -25.422  0.00  0.00    +0.092 A 
ATOM      3  N   UNL     1      -4.241   4.117 -25.119  0.00  0.00    -0.360 N 
ATOM      4  H   UNL     1      -4.933   4.490 -25.712  0.00  0.00    +0.165 HD
ATOM      5  C   UNL     1      -4.418   3.719 -23.894  0.00  0.00    +0.047 A 
ATOM      6  C   UNL     1      -5.471   3.689 -23.132  0.00  0.00    +0.026 A 
ATOM      7  C   UNL     1      -5.384   3.233 -21.919  0.00  0.00    +0.002 A 
ATOM      8  C   UNL     1      -4.243   2.807 -21.466  0.00  0.00    +0.001 A 
ATOM      9  C   UNL     1      -3.189   2.837 -22.226  0.00  0.00    +0.010 A 
ATOM     10  C   UNL     1      -3.276   3.293 -23.441  0.00  0.00    +0.008 A 
ENDROOT
BRANCH   1  11
ATOM     11  C   UNL     1      -1.136   3.109 -24.307  0.00  0.00    +0.169 C 
BRANCH  11  13
ATOM     12  C   UNL     1       0.681   4.039 -25.258  0.00  0.00    +0.190 C 
ATOM     13  N   UNL     1      -0.228   4.039 -24.329  0.00  0.00    +0.234 N 
ATOM     14  H   UNL     1       0.533   4.705 -24.458  0.00  0.00    +0.203 HD
ATOM     15  C   UNL     1      -0.228   4.970 -23.422  0.00  0.00    +0.190 C 
ENDBRANCH  11  13
ENDBRANCH   1  11
TORSDOF 2
ENDMDL
MODEL 2
REMARK VINA RESULT:    -6.729      1.746      3.424
REMARK INTER + INTRA:          -7.450
REMARK INTER:                  -7.585
REMARK INTRA:                   0.135
REMARK UNBOUND:                 0.066
REMARK  Name = ZINC000000073686
REMARK  4 active torsions:
REMARK  status: ('A' for Active; 'I' for Inactive)
REMARK    1  A    between atoms: C_1  and  N_2
REMARK    2  A    between atoms: N_2  and  C_3
REMARK    3  A    between atoms: N_2  and  C_4
REMARK    4  A    between atoms: C_4  and  C_5
REMARK                            x       y       z     vdW  Elec       q    Type
REMARK                         _______ _______ _______ _____ _____    ______ ____
ROOT
ATOM      1  C   UNL     1      -1.693   3.975 -23.639  0.00  0.00    +0.022 A 
ATOM      2  C   UNL     1      -0.623   3.748 -24.342  0.00  0.00    +0.092 A 
ATOM      3  N   UNL     1      -0.990   3.461 -25.554  0.00  0.00    -0.360 N 
ATOM      4  H   UNL     1      -0.391   3.245 -26.306  0.00  0.00    +0.165 HD
ATOM      5  C   UNL     1      -2.288   3.510 -25.602  0.00  0.00    +0.047 A 
ATOM      6  C   UNL     1      -3.132   3.307 -26.571  0.00  0.00    +0.026 A 
ATOM      7  C   UNL     1      -4.408   3.420 -26.357  0.00  0.00    +0.002 A 
ATOM      8  C   UNL     1      -4.843   3.737 -25.173  0.00  0.00    +0.001 A 
ATOM      9  C   UNL     1      -4.000   3.941 -24.205  0.00  0.00    +0.010 A 
ATOM     10  C   UNL     1      -2.723   3.827 -24.419  0.00  0.00    +0.008 A 
ENDROOT
BRANCH   1  11
ATOM     11  C   UNL     1      -1.727   4.292 -22.380  0.00  0.00    +0.169 C 
BRANCH  11  13
ATOM     12  C   UNL     1      -2.981   3.674 -20.614  0.00  0.00    +0.190 C 
ATOM     13  N   UNL     1      -2.065   3.402 -21.494  0.00  0.00    +0.234 N 
ATOM     14  H   UNL     1      -2.417   2.797 -20.753  0.00  0.00    +0.203 HD
ATOM     15  C   UNL     1      -1.485   2.238 -21.489  0.00  0.00    +0.190 C 
ENDBRANCH  11  13
ENDBRANCH   1  11
TORSDOF 2
ENDMDL
MODEL 3
REMARK VINA RESULT:    -6.592      1.617      2.344
REMARK INTER + INTRA:          -7.297
REMARK INTER:                  -7.361
REMARK INTRA:                   0.064
REMARK UNBOUND:                 0.066
REMARK  Name = ZINC000000073686
REMARK  4 active torsions:
REMARK  status: ('A' for Active; 'I' for Inactive)
REMARK    1  A    between atoms: C_1  and  N_2
REMARK    2  A    between atoms: N_2  and  C_3
REMARK    3  A    between atoms: N_2  and  C_4
REMARK    4  A    between atoms: C_4  and  C_5
REMARK                            x       y       z     vdW  Elec       q    Type
REMARK                         _______ _______ _______ _____ _____    ______ ____
ROOT
ATOM      1  C   UNL     1      -1.838   2.773 -22.805  0.00  0.00    +0.022 A 
ATOM      2  C   UNL     1      -1.864   2.417 -21.555  0.00  0.00    +0.092 A 
ATOM      3  N   UNL     1      -3.082   2.550 -21.122  0.00  0.00    -0.360 N 
ATOM      4  H   UNL     1      -3.398   2.354 -20.211  0.00  0.00    +0.165 HD
ATOM      5  C   UNL     1      -3.810   2.989 -22.106  0.00  0.00    +0.047 A 
ATOM      6  C   UNL     1      -5.075   3.282 -22.189  0.00  0.00    +0.026 A 
ATOM      7  C   UNL     1      -5.570   3.711 -23.311  0.00  0.00    +0.002 A 
ATOM      8  C   UNL     1      -4.802   3.849 -24.350  0.00  0.00    +0.001 A 
ATOM      9  C   UNL     1      -3.538   3.557 -24.267  0.00  0.00    +0.010 A 
ATOM     10  C   UNL     1      -3.042   3.127 -23.145  0.00  0.00    +0.008 A 
ENDROOT
BRANCH   1  11
ATOM     11  C   UNL     1      -0.794   2.775 -23.577  0.00  0.00    +0.169 C 
BRANCH  11  13
ATOM     12  C   UNL     1       1.391   3.161 -23.193  0.00  0.00    +0.190 C 
ATOM     13  N   UNL     1       0.180   3.606 -23.351  0.00  0.00    +0.234 N 
ATOM     14  H   UNL     1       1.026   4.147 -23.169  0.00  0.00    +0.203 HD
ATOM     15  C   UNL     1      -0.056   4.882 -23.281  0.00  0.00    +0.190 C 
ENDBRANCH  11  13
ENDBRANCH   1  11
TORSDOF 2
ENDMDL
MODEL 4
REMARK VINA RESULT:    -6.494      1.382      4.364
REMARK INTER + INTRA:          -7.188
REMARK INTER:                  -7.255
REMARK INTRA:                   0.067
REMARK UNBOUND:                 0.066
REMARK  Name = ZINC000000073686
REMARK  4 active torsions:
REMARK  status: ('A' for Active; 'I' for Inactive)
REMARK    1  A    between atoms: C_1  and  N_2
REMARK    2  A    between atoms: N_2  and  C_3
REMARK    3  A    between atoms: N_2  and  C_4
REMARK    4  A    between atoms: C_4  and  C_5
REMARK                            x       y       z     vdW  Elec       q    Type
REMARK                         _______ _______ _______ _____ _____    ______ ____
ROOT
ATOM      1  C   UNL     1      -2.924   3.704 -23.725  0.00  0.00    +0.022 A 
ATOM      2  C   UNL     1      -3.172   2.947 -24.753  0.00  0.00    +0.092 A 
ATOM      3  N   UNL     1      -2.082   2.851 -25.454  0.00  0.00    -0.360 N 
ATOM      4  H   UNL     1      -1.973   2.340 -26.289  0.00  0.00    +0.165 HD
ATOM      5  C   UNL     1      -1.160   3.549 -24.860  0.00  0.00    +0.047 A 
ATOM      6  C   UNL     1       0.087   3.773 -25.154  0.00  0.00    +0.026 A 
ATOM      7  C   UNL     1       0.813   4.523 -24.381  0.00  0.00    +0.002 A 
ATOM      8  C   UNL     1       0.292   5.050 -23.313  0.00  0.00    +0.001 A 
ATOM      9  C   UNL     1      -0.954   4.827 -23.019  0.00  0.00    +0.010 A 
ATOM     10  C   UNL     1      -1.681   4.076 -23.792  0.00  0.00    +0.008 A 
ENDROOT
BRANCH   1  11
ATOM     11  C   UNL     1      -3.770   4.031 -22.796  0.00  0.00    +0.169 C 
BRANCH  11  13
ATOM     12  C   UNL     1      -5.492   2.949 -21.828  0.00  0.00    +0.190 C 
ATOM     13  N   UNL     1      -4.213   3.127 -21.972  0.00  0.00    +0.234 N 
ATOM     14  H   UNL     1      -4.685   2.458 -21.365  0.00  0.00    +0.203 HD
ATOM     15  C   UNL     1      -3.375   2.401 -21.293  0.00  0.00    +0.190 C 
ENDBRANCH  11  13
ENDBRANCH   1  11
TORSDOF 2
ENDMDL
MODEL 5
REMARK VINA RESULT:    -6.443      1.854      2.844
REMARK INTER + INTRA:          -7.130
REMARK INTER:                  -7.310
REMARK INTRA:                   0.180
REMARK UNBOUND:                 0.066
REMARK  Name = ZINC000000073686
REMARK  4 active torsions:
REMARK  status: ('A' for Active; 'I' for Inactive)
REMARK    1  A    between atoms: C_1  and  N_2
REMARK    2  A    between atoms: N_2  and  C_3
REMARK    3  A    between atoms: N_2  and  C_4
REMARK    4  A    between atoms: C_4  and  C_5
REMARK                            x       y       z     vdW  Elec       q    Type
REMARK                         _______ _______ _______ _____ _____    ______ ____
ROOT
ATOM      1  C   UNL     1      -2.327   3.377 -22.182  0.00  0.00    +0.022 A 
ATOM      2  C   UNL     1      -3.117   2.994 -21.223  0.00  0.00    +0.092 A 
ATOM      3  N   UNL     1      -4.341   3.090 -21.647  0.00  0.00    -0.360 N 
ATOM      4  H   UNL     1      -5.152   2.867 -21.134  0.00  0.00    +0.165 HD
ATOM      5  C   UNL     1      -4.309   3.532 -22.869  0.00  0.00    +0.047 A 
ATOM      6  C   UNL     1      -5.252   3.796 -23.725  0.00  0.00    +0.026 A 
ATOM      7  C   UNL     1      -4.951   4.237 -24.909  0.00  0.00    +0.002 A 
ATOM      8  C   UNL     1      -3.706   4.414 -25.240  0.00  0.00    +0.001 A 
ATOM      9  C   UNL     1      -2.763   4.150 -24.385  0.00  0.00    +0.010 A 
ATOM     10  C   UNL     1      -3.064   3.709 -23.199  0.00  0.00    +0.008 A 
ENDROOT
BRANCH   1  11
ATOM     11  C   UNL     1      -1.029   3.419 -22.132  0.00  0.00    +0.169 C 
BRANCH  11  13
ATOM     12  C   UNL     1       0.472   2.447 -23.500  0.00  0.00    +0.190 C 
ATOM     13  N   UNL     1      -0.331   2.379 -22.481  0.00  0.00    +0.234 N 
ATOM     14  H   UNL     1       0.266   1.642 -22.854  0.00  0.00    +0.203 HD
ATOM     15  C   UNL     1      -0.437   1.270 -21.810  0.00  0.00    +0.190 C 
ENDBRANCH  11  13
ENDBRANCH   1  11
TORSDOF 2
ENDMDL
MODEL 6
REMARK VINA RESULT:    -6.127      2.300      4.200
REMARK INTER + INTRA:          -6.777
REMARK INTER:                  -6.902
REMARK INTRA:                   0.125
REMARK UNBOUND:                 0.066
REMARK  Name = ZINC000000073686
REMARK  4 active torsions:
REMARK  status: ('A' for Active; 'I' for Inactive)
REMARK    1  A    between atoms: C_1  and  N_2
REMARK    2  A    between atoms: N_2  and  C_3
REMARK    3  A    between atoms: N_2  and  C_4
REMARK    4  A    between atoms: C_4  and  C_5
REMARK                            x       y       z     vdW  Elec       q    Type
REMARK                         _______ _______ _______ _____ _____    ______ ____
ROOT
ATOM      1  C   UNL     1      -2.106   3.567 -22.973  0.00  0.00    +0.022 A 
ATOM      2  C   UNL     1      -3.018   3.087 -22.180  0.00  0.00    +0.092 A 
ATOM      3  N   UNL     1      -2.453   2.220 -21.395  0.00  0.00    -0.360 N 
ATOM      4  H   UNL     1      -2.901   1.697 -20.690  0.00  0.00    +0.165 HD
ATOM      5  C   UNL     1      -1.191   2.163 -21.702  0.00  0.00    +0.047 A 
ATOM      6  C   UNL     1      -0.209   1.461 -21.219  0.00  0.00    +0.026 A 
ATOM      7  C   UNL     1       0.987   1.590 -21.712  0.00  0.00    +0.002 A 
ATOM      8  C   UNL     1       1.201   2.423 -22.687  0.00  0.00    +0.001 A 
ATOM      9  C   UNL     1       0.219   3.125 -23.169  0.00  0.00    +0.010 A 
ATOM     10  C   UNL     1      -0.977   2.996 -22.677  0.00  0.00    +0.008 A 
ENDROOT
BRANCH   1  11
ATOM     11  C   UNL     1      -2.292   4.460 -23.898  0.00  0.00    +0.169 C 
BRANCH  11  13
ATOM     12  C   UNL     1      -4.156   4.618 -25.151  0.00  0.00    +0.190 C 
ATOM     13  N   UNL     1      -2.955   4.154 -24.973  0.00  0.00    +0.234 N 
ATOM     14  H   UNL     1      -3.576   3.991 -25.766  0.00  0.00    +0.203 HD
ATOM     15  C   UNL     1      -2.417   3.382 -25.871  0.00  0.00    +0.190 C 
ENDBRANCH  11  13
ENDBRANCH   1  11
TORSDOF 2
ENDMDL
MODEL 7
REMARK VINA RESULT:    -6.030      2.534      4.039
REMARK INTER + INTRA:          -6.669
REMARK INTER:                  -6.745
REMARK INTRA:                   0.076
REMARK UNBOUND:                 0.066
REMARK  Name = ZINC000000073686
REMARK  4 active torsions:
REMARK  status: ('A' for Active; 'I' for Inactive)
REMARK    1  A    between atoms: C_1  and  N_2
REMARK    2  A    between atoms: N_2  and  C_3
REMARK    3  A    between atoms: N_2  and  C_4
REMARK    4  A    between atoms: C_4  and  C_5
REMARK                            x       y       z     vdW  Elec       q    Type
REMARK                         _______ _______ _______ _____ _____    ______ ____
ROOT
ATOM      1  C   UNL     1       1.379   3.524 -24.033  0.00  0.00    +0.022 A 
ATOM      2  C   UNL     1       1.628   3.029 -25.209  0.00  0.00    +0.092 A 
ATOM      3  N   UNL     1       0.513   2.991 -25.875  0.00  0.00    -0.360 N 
ATOM      4  H   UNL     1       0.399   2.662 -26.797  0.00  0.00    +0.165 HD
ATOM      5  C   UNL     1      -0.426   3.463 -25.111  0.00  0.00    +0.047 A 
ATOM      6  C   UNL     1      -1.701   3.636 -25.304  0.00  0.00    +0.026 A 
ATOM      7  C   UNL     1      -2.440   4.138 -24.361  0.00  0.00    +0.002 A 
ATOM      8  C   UNL     1      -1.905   4.467 -23.223  0.00  0.00    +0.001 A 
ATOM      9  C   UNL     1      -0.631   4.295 -23.029  0.00  0.00    +0.010 A 
ATOM     10  C   UNL     1       0.109   3.793 -23.973  0.00  0.00    +0.008 A 
ENDROOT
BRANCH   1  11
ATOM     11  C   UNL     1       2.246   3.717 -23.086  0.00  0.00    +0.169 C 
BRANCH  11  13
ATOM     12  C   UNL     1       4.052   2.588 -22.354  0.00  0.00    +0.190 C 
ATOM     13  N   UNL     1       2.761   2.701 -22.460  0.00  0.00    +0.234 N 
ATOM     14  H   UNL     1       3.287   1.959 -21.999  0.00  0.00    +0.203 HD
ATOM     15  C   UNL     1       1.986   1.797 -21.939  0.00  0.00    +0.190 C 
ENDBRANCH  11  13
ENDBRANCH   1  11
TORSDOF 2
ENDMDL
MODEL 8
REMARK VINA RESULT:    -5.976      2.889      4.057
REMARK INTER + INTRA:          -6.609
REMARK INTER:                  -6.675
REMARK INTRA:                   0.066
REMARK UNBOUND:                 0.066
REMARK  Name = ZINC000000073686
REMARK  4 active torsions:
REMARK  status: ('A' for Active; 'I' for Inactive)
REMARK    1  A    between atoms: C_1  and  N_2
REMARK    2  A    between atoms: N_2  and  C_3
REMARK    3  A    between atoms: N_2  and  C_4
REMARK    4  A    between atoms: C_4  and  C_5
REMARK                            x       y       z     vdW  Elec       q    Type
REMARK                         _______ _______ _______ _____ _____    ______ ____
ROOT
ATOM      1  C   UNL     1       0.918   2.178 -22.897  0.00  0.00    +0.022 A 
ATOM      2  C   UNL     1       1.097   1.278 -21.976  0.00  0.00    +0.092 A 
ATOM      3  N   UNL     1       0.082   1.322 -21.167  0.00  0.00    -0.360 N 
ATOM      4  H   UNL     1      -0.053   0.753 -20.374  0.00  0.00    +0.165 HD
ATOM      5  C   UNL     1      -0.725   2.251 -21.587  0.00  0.00    +0.047 A 
ATOM      6  C   UNL     1      -1.865   2.683 -21.134  0.00  0.00    +0.026 A 
ATOM      7  C   UNL     1      -2.487   3.644 -21.749  0.00  0.00    +0.002 A 
ATOM      8  C   UNL     1      -1.970   4.172 -22.818  0.00  0.00    +0.001 A 
ATOM      9  C   UNL     1      -0.831   3.740 -23.271  0.00  0.00    +0.010 A 
ATOM     10  C   UNL     1      -0.208   2.779 -22.656  0.00  0.00    +0.008 A 
ENDROOT
BRANCH   1  11
ATOM     11  C   UNL     1       1.724   2.432 -23.884  0.00  0.00    +0.169 C 
BRANCH  11  13
ATOM     12  C   UNL     1       3.968   2.277 -23.985  0.00  0.00    +0.190 C 
ATOM     13  N   UNL     1       2.899   2.936 -23.650  0.00  0.00    +0.234 N 
ATOM     14  H   UNL     1       3.871   3.218 -23.523  0.00  0.00    +0.203 HD
ATOM     15  C   UNL     1       3.005   4.101 -23.082  0.00  0.00    +0.190 C 
ENDBRANCH  11  13
ENDBRANCH   1  11
TORSDOF 2
ENDMDL
MODEL 9
REMARK VINA RESULT:    -5.913      2.703      3.843
REMARK INTER + INTRA:          -6.538
REMARK INTER:                  -6.632
REMARK INTRA:                   0.094
REMARK UNBOUND:                 0.066
REMARK  Name = ZINC000000073686
REMARK  4 active torsions:
REMARK  status: ('A' for Active; 'I' for Inactive)
REMARK    1  A    between atoms: C_1  and  N_2
REMARK    2  A    between atoms: N_2  and  C_3
REMARK    3  A    between atoms: N_2  and  C_4
REMARK    4  A    between atoms: C_4  and  C_5
REMARK                            x       y       z     vdW  Elec       q    Type
REMARK                         _______ _______ _______ _____ _____    ______ ____
ROOT
ATOM      1  C   UNL     1       1.178   3.424 -23.513  0.00  0.00    +0.022 A 
ATOM      2  C   UNL     1       1.243   4.667 -23.890  0.00  0.00    +0.092 A 
ATOM      3  N   UNL     1       0.175   5.273 -23.465  0.00  0.00    -0.360 N 
ATOM      4  H   UNL     1      -0.046   6.223 -23.603  0.00  0.00    +0.165 HD
ATOM      5  C   UNL     1      -0.551   4.405 -22.826  0.00  0.00    +0.047 A 
ATOM      6  C   UNL     1      -1.697   4.507 -22.219  0.00  0.00    +0.026 A 
ATOM      7  C   UNL     1      -2.223   3.468 -21.644  0.00  0.00    +0.002 A 
ATOM      8  C   UNL     1      -1.604   2.325 -21.674  0.00  0.00    +0.001 A 
ATOM      9  C   UNL     1      -0.458   2.223 -22.279  0.00  0.00    +0.010 A 
ATOM     10  C   UNL     1       0.069   3.263 -22.856  0.00  0.00    +0.008 A 
ENDROOT
BRANCH   1  11
ATOM     11  C   UNL     1       2.065   2.506 -23.753  0.00  0.00    +0.169 C 
BRANCH  11  13
ATOM     12  C   UNL     1       4.301   2.769 -23.774  0.00  0.00    +0.190 C 
ATOM     13  N   UNL     1       3.203   2.522 -23.124  0.00  0.00    +0.234 N 
ATOM     14  H   UNL     1       4.152   2.564 -22.753  0.00  0.00    +0.203 HD
ATOM     15  C   UNL     1       3.243   2.293 -21.845  0.00  0.00    +0.190 C 
ENDBRANCH  11  13
ENDBRANCH   1  11
TORSDOF 2
ENDMDL
