MODEL 1
REMARK VINA RESULT:    -9.069      0.000      0.000
REMARK INTER + INTRA:         -16.825
REMARK INTER:                 -14.674
REMARK INTRA:                  -2.152
REMARK UNBOUND:                -1.130
REMARK  Name = CCCCCCCCCCCC1=C(O)C(=O)C=C(N[C@@H]2CCCC[C@H]2N)C1=O                  ZINC000100393419
REMARK  14 active torsions:
REMARK  status: ('A' for Active; 'I' for Inactive)
REMARK    1  A    between atoms: C_1  and  C_2
REMARK    2  A    between atoms: C_2  and  C_3
REMARK    3  A    between atoms: C_3  and  C_4
REMARK    4  A    between atoms: C_4  and  C_5
REMARK    5  A    between atoms: C_5  and  C_6
REMARK    6  A    between atoms: C_6  and  C_7
REMARK    7  A    between atoms: C_7  and  C_8
REMARK    8  A    between atoms: C_8  and  C_9
REMARK    9  A    between atoms: C_9  and  C_10
REMARK   10  A    between atoms: C_10  and  C_11
REMARK   11  A    between atoms: C_11  and  C_12
REMARK   12  A    between atoms: C_18  and  N_19
REMARK   13  A    between atoms: N_19  and  C_20
REMARK   14  A    between atoms: C_25  and  N_26
REMARK                            x       y       z     vdW  Elec       q    Type
REMARK                         _______ _______ _______ _____ _____    ______ ____
ROOT
ATOM      1  C   UNL     1       0.635   2.190 -22.876  0.00  0.00    -0.008 C 
ATOM      2  C   UNL     1       0.592   1.846 -21.624  0.00  0.00    +0.228 C 
ATOM      3  C   UNL     1       1.693   1.589 -20.982  0.00  0.00    +0.227 C 
ATOM      4  C   UNL     1       2.837   1.677 -21.593  0.00  0.00    +0.076 C 
ATOM      5  C   UNL     1       2.880   2.022 -22.845  0.00  0.00    +0.019 C 
ATOM      6  O   UNL     1       1.650   1.244 -19.729  0.00  0.00    -0.284 OA
ATOM      7  O   UNL     1      -0.552   1.757 -21.013  0.00  0.00    -0.284 OA
ATOM      8  C   UNL     1       1.780   2.279 -23.487  0.00  0.00    -0.112 C 
ATOM      9  O   UNL     1       1.823   2.623 -24.740  0.00  0.00    -0.828 OA
ENDROOT
BRANCH   5  10
ATOM     10  N   UNL     1       4.024   2.110 -23.456  0.00  0.00    -0.336 N 
ATOM     11  H   UNL     1       4.233   1.504 -24.202  0.00  0.00    +0.147 HD
BRANCH  10  12
ATOM     12  C   UNL     1       4.895   3.001 -23.082  0.00  0.00    +0.119 C 
ATOM     13  C   UNL     1       4.611   4.266 -23.177  0.00  0.00    +0.028 C 
ATOM     14  C   UNL     1       5.481   5.157 -22.803  0.00  0.00    +0.002 C 
ATOM     15  C   UNL     1       6.633   4.783 -22.333  0.00  0.00    +0.006 C 
ATOM     16  C   UNL     1       6.917   3.517 -22.238  0.00  0.00    +0.056 C 
ATOM     17  C   UNL     1       6.047   2.627 -22.612  0.00  0.00    +0.081 C 
BRANCH  17  18
ATOM     18  N   UNL     1       6.330   1.362 -22.516  0.00  0.00    +0.222 N 
ATOM     19  H   UNL     1       6.169   1.049 -21.559  0.00  0.00    +0.200 HD
ATOM     20  H   UNL     1       5.736   0.832 -23.153  0.00  0.00    +0.200 HD
ATOM     21  H   UNL     1       7.309   1.213 -22.762  0.00  0.00    +0.200 HD
ENDBRANCH  17  18
ENDBRANCH  10  12
ENDBRANCH   5  10
BRANCH   1  22
ATOM     22  C   UNL     1      -0.466   2.447 -23.518  0.00  0.00    +0.038 C 
BRANCH  22  23
ATOM     23  C   UNL     1      -0.954   3.652 -23.516  0.00  0.00    +0.005 C 
BRANCH  23  24
ATOM     24  C   UNL     1      -1.616   4.086 -24.547  0.00  0.00    +0.000 C 
BRANCH  24  25
ATOM     25  C   UNL     1      -2.398   3.282 -25.203  0.00  0.00    +0.000 C 
BRANCH  25  26
ATOM     26  C   UNL     1      -3.616   3.642 -25.481  0.00  0.00    +0.000 C 
BRANCH  26  27
ATOM     27  C   UNL     1      -4.303   4.331 -24.618  0.00  0.00    +0.000 C 
BRANCH  27  28
ATOM     28  C   UNL     1      -5.195   3.743 -23.879  0.00  0.00    -0.000 C 
BRANCH  28  29
ATOM     29  C   UNL     1      -5.050   3.710 -22.588  0.00  0.00    -0.000 C 
BRANCH  29  30
ATOM     30  C   UNL     1      -4.343   2.767 -22.037  0.00  0.00    -0.000 C 
BRANCH  30  32
ATOM     31  C   UNL     1      -3.190   4.010 -20.556  0.00  0.00    +0.004 C 
ATOM     32  C   UNL     1      -3.857   2.932 -20.843  0.00  0.00    -0.003 C 
ENDBRANCH  30  32
ENDBRANCH  29  30
ENDBRANCH  28  29
ENDBRANCH  27  28
ENDBRANCH  26  27
ENDBRANCH  25  26
ENDBRANCH  24  25
ENDBRANCH  23  24
ENDBRANCH  22  23
ENDBRANCH   1  22
TORSDOF 13
ENDMDL
MODEL 2
REMARK VINA RESULT:    -9.049      2.012      3.644
REMARK INTER + INTRA:         -16.792
REMARK INTER:                 -14.748
REMARK INTRA:                  -2.044
REMARK UNBOUND:                -1.130
REMARK  Name = CCCCCCCCCCCC1=C(O)C(=O)C=C(N[C@@H]2CCCC[C@H]2N)C1=O                  ZINC000100393419
REMARK  14 active torsions:
REMARK  status: ('A' for Active; 'I' for Inactive)
REMARK    1  A    between atoms: C_1  and  C_2
REMARK    2  A    between atoms: C_2  and  C_3
REMARK    3  A    between atoms: C_3  and  C_4
REMARK    4  A    between atoms: C_4  and  C_5
REMARK    5  A    between atoms: C_5  and  C_6
REMARK    6  A    between atoms: C_6  and  C_7
REMARK    7  A    between atoms: C_7  and  C_8
REMARK    8  A    between atoms: C_8  and  C_9
REMARK    9  A    between atoms: C_9  and  C_10
REMARK   10  A    between atoms: C_10  and  C_11
REMARK   11  A    between atoms: C_11  and  C_12
REMARK   12  A    between atoms: C_18  and  N_19
REMARK   13  A    between atoms: N_19  and  C_20
REMARK   14  A    between atoms: C_25  and  N_26
REMARK                            x       y       z     vdW  Elec       q    Type
REMARK                         _______ _______ _______ _____ _____    ______ ____
ROOT
ATOM      1  C   UNL     1      -0.754   3.416 -22.775  0.00  0.00    -0.008 C 
ATOM      2  C   UNL     1      -0.199   4.533 -23.142  0.00  0.00    +0.228 C 
ATOM      3  C   UNL     1       1.031   4.539 -23.564  0.00  0.00    +0.227 C 
ATOM      4  C   UNL     1       1.705   3.429 -23.619  0.00  0.00    +0.076 C 
ATOM      5  C   UNL     1       1.150   2.312 -23.251  0.00  0.00    +0.019 C 
ATOM      6  O   UNL     1       1.587   5.656 -23.932  0.00  0.00    -0.284 OA
ATOM      7  O   UNL     1      -0.873   5.643 -23.088  0.00  0.00    -0.284 OA
ATOM      8  C   UNL     1      -0.079   2.306 -22.829  0.00  0.00    -0.112 C 
ATOM      9  O   UNL     1      -0.634   1.189 -22.462  0.00  0.00    -0.828 OA
ENDROOT
BRANCH   5  10
ATOM     10  N   UNL     1       1.824   1.202 -23.306  0.00  0.00    -0.336 N 
ATOM     11  H   UNL     1       1.548   0.488 -23.923  0.00  0.00    +0.147 HD
BRANCH  10  12
ATOM     12  C   UNL     1       2.866   1.036 -22.545  0.00  0.00    +0.119 C 
ATOM     13  C   UNL     1       2.714   0.867 -21.265  0.00  0.00    +0.028 C 
ATOM     14  C   UNL     1       3.755   0.701 -20.503  0.00  0.00    +0.002 C 
ATOM     15  C   UNL     1       4.946   0.703 -21.022  0.00  0.00    +0.006 C 
ATOM     16  C   UNL     1       5.098   0.871 -22.303  0.00  0.00    +0.056 C 
ATOM     17  C   UNL     1       4.057   1.038 -23.064  0.00  0.00    +0.081 C 
BRANCH  17  18
ATOM     18  N   UNL     1       4.209   1.206 -24.344  0.00  0.00    +0.222 N 
ATOM     19  H   UNL     1       4.427   0.311 -24.780  0.00  0.00    +0.200 HD
ATOM     20  H   UNL     1       3.346   1.578 -24.742  0.00  0.00    +0.200 HD
ATOM     21  H   UNL     1       4.971   1.862 -24.513  0.00  0.00    +0.200 HD
ENDBRANCH  17  18
ENDBRANCH  10  12
ENDBRANCH   5  10
BRANCH   1  22
ATOM     22  C   UNL     1      -1.983   3.410 -22.353  0.00  0.00    +0.038 C 
BRANCH  22  23
ATOM     23  C   UNL     1      -2.245   3.689 -21.111  0.00  0.00    +0.005 C 
BRANCH  23  24
ATOM     24  C   UNL     1      -3.372   3.309 -20.583  0.00  0.00    +0.000 C 
BRANCH  24  25
ATOM     25  C   UNL     1      -4.099   2.412 -21.180  0.00  0.00    +0.000 C 
BRANCH  25  26
ATOM     26  C   UNL     1      -5.346   2.661 -21.449  0.00  0.00    +0.000 C 
BRANCH  26  27
ATOM     27  C   UNL     1      -5.654   3.593 -22.302  0.00  0.00    +0.000 C 
BRANCH  27  28
ATOM     28  C   UNL     1      -5.435   3.411 -23.570  0.00  0.00    -0.000 C 
BRANCH  28  29
ATOM     29  C   UNL     1      -5.122   4.421 -24.327  0.00  0.00    -0.000 C 
BRANCH  29  30
ATOM     30  C   UNL     1      -3.961   4.461 -24.911  0.00  0.00    -0.000 C 
BRANCH  30  32
ATOM     31  C   UNL     1      -2.362   3.442 -26.124  0.00  0.00    +0.004 C 
ATOM     32  C   UNL     1      -3.574   3.469 -25.657  0.00  0.00    -0.003 C 
ENDBRANCH  30  32
ENDBRANCH  29  30
ENDBRANCH  28  29
ENDBRANCH  27  28
ENDBRANCH  26  27
ENDBRANCH  25  26
ENDBRANCH  24  25
ENDBRANCH  23  24
ENDBRANCH  22  23
ENDBRANCH   1  22
TORSDOF 13
ENDMDL
MODEL 3
REMARK VINA RESULT:    -8.605      1.573      2.885
REMARK INTER + INTRA:         -16.023
REMARK INTER:                 -14.608
REMARK INTRA:                  -1.415
REMARK UNBOUND:                -1.130
REMARK  Name = CCCCCCCCCCCC1=C(O)C(=O)C=C(N[C@@H]2CCCC[C@H]2N)C1=O                  ZINC000100393419
REMARK  14 active torsions:
REMARK  status: ('A' for Active; 'I' for Inactive)
REMARK    1  A    between atoms: C_1  and  C_2
REMARK    2  A    between atoms: C_2  and  C_3
REMARK    3  A    between atoms: C_3  and  C_4
REMARK    4  A    between atoms: C_4  and  C_5
REMARK    5  A    between atoms: C_5  and  C_6
REMARK    6  A    between atoms: C_6  and  C_7
REMARK    7  A    between atoms: C_7  and  C_8
REMARK    8  A    between atoms: C_8  and  C_9
REMARK    9  A    between atoms: C_9  and  C_10
REMARK   10  A    between atoms: C_10  and  C_11
REMARK   11  A    between atoms: C_11  and  C_12
REMARK   12  A    between atoms: C_18  and  N_19
REMARK   13  A    between atoms: N_19  and  C_20
REMARK   14  A    between atoms: C_25  and  N_26
REMARK                            x       y       z     vdW  Elec       q    Type
REMARK                         _______ _______ _______ _____ _____    ______ ____
ROOT
ATOM      1  C   UNL     1       0.760   2.713 -22.982  0.00  0.00    -0.008 C 
ATOM      2  C   UNL     1       0.761   3.975 -23.290  0.00  0.00    +0.228 C 
ATOM      3  C   UNL     1       1.884   4.627 -23.357  0.00  0.00    +0.227 C 
ATOM      4  C   UNL     1       3.005   4.017 -23.116  0.00  0.00    +0.076 C 
ATOM      5  C   UNL     1       3.005   2.754 -22.808  0.00  0.00    +0.019 C 
ATOM      6  O   UNL     1       1.884   5.890 -23.666  0.00  0.00    -0.284 OA
ATOM      7  O   UNL     1      -0.361   4.586 -23.531  0.00  0.00    -0.284 OA
ATOM      8  C   UNL     1       1.883   2.102 -22.741  0.00  0.00    -0.112 C 
ATOM      9  O   UNL     1       1.882   0.839 -22.432  0.00  0.00    -0.828 OA
ENDROOT
BRANCH   5  10
ATOM     10  N   UNL     1       4.127   2.143 -22.567  0.00  0.00    -0.336 N 
ATOM     11  H   UNL     1       4.133   1.174 -22.394  0.00  0.00    +0.147 HD
BRANCH  10  12
ATOM     12  C   UNL     1       5.242   2.812 -22.554  0.00  0.00    +0.119 C 
ATOM     13  C   UNL     1       5.784   3.192 -23.673  0.00  0.00    +0.028 C 
ATOM     14  C   UNL     1       6.899   3.860 -23.660  0.00  0.00    +0.002 C 
ATOM     15  C   UNL     1       7.471   4.149 -22.529  0.00  0.00    +0.006 C 
ATOM     16  C   UNL     1       6.928   3.769 -21.411  0.00  0.00    +0.056 C 
ATOM     17  C   UNL     1       5.814   3.100 -21.423  0.00  0.00    +0.081 C 
BRANCH  17  18
ATOM     18  N   UNL     1       5.271   2.720 -20.304  0.00  0.00    +0.222 N 
ATOM     19  H   UNL     1       5.948   2.180 -19.766  0.00  0.00    +0.200 HD
ATOM     20  H   UNL     1       4.987   3.541 -19.769  0.00  0.00    +0.200 HD
ATOM     21  H   UNL     1       4.454   2.143 -20.501  0.00  0.00    +0.200 HD
ENDBRANCH  17  18
ENDBRANCH  10  12
ENDBRANCH   5  10
BRANCH   1  22
ATOM     22  C   UNL     1      -0.362   2.060 -22.914  0.00  0.00    +0.038 C 
BRANCH  22  23
ATOM     23  C   UNL     1      -0.985   1.954 -21.778  0.00  0.00    +0.005 C 
BRANCH  23  24
ATOM     24  C   UNL     1      -2.253   2.235 -21.703  0.00  0.00    +0.000 C 
BRANCH  24  25
ATOM     25  C   UNL     1      -2.655   3.231 -20.971  0.00  0.00    +0.000 C 
BRANCH  25  26
ATOM     26  C   UNL     1      -3.862   3.693 -21.109  0.00  0.00    +0.000 C 
BRANCH  26  27
ATOM     27  C   UNL     1      -4.827   2.896 -21.462  0.00  0.00    +0.000 C 
BRANCH  27  28
ATOM     28  C   UNL     1      -5.590   3.205 -22.468  0.00  0.00    -0.000 C 
BRANCH  28  29
ATOM     29  C   UNL     1      -5.188   4.075 -23.345  0.00  0.00    -0.000 C 
BRANCH  29  30
ATOM     30  C   UNL     1      -4.804   3.681 -24.524  0.00  0.00    -0.000 C 
BRANCH  30  32
ATOM     31  C   UNL     1      -2.893   3.020 -25.512  0.00  0.00    +0.004 C 
ATOM     32  C   UNL     1      -3.601   3.946 -24.938  0.00  0.00    -0.003 C 
ENDBRANCH  30  32
ENDBRANCH  29  30
ENDBRANCH  28  29
ENDBRANCH  27  28
ENDBRANCH  26  27
ENDBRANCH  25  26
ENDBRANCH  24  25
ENDBRANCH  23  24
ENDBRANCH  22  23
ENDBRANCH   1  22
TORSDOF 13
ENDMDL
MODEL 4
REMARK VINA RESULT:    -8.544      1.059      2.145
REMARK INTER + INTRA:         -15.917
REMARK INTER:                 -14.382
REMARK INTRA:                  -1.535
REMARK UNBOUND:                -1.130
REMARK  Name = CCCCCCCCCCCC1=C(O)C(=O)C=C(N[C@@H]2CCCC[C@H]2N)C1=O                  ZINC000100393419
REMARK  14 active torsions:
REMARK  status: ('A' for Active; 'I' for Inactive)
REMARK    1  A    between atoms: C_1  and  C_2
REMARK    2  A    between atoms: C_2  and  C_3
REMARK    3  A    between atoms: C_3  and  C_4
REMARK    4  A    between atoms: C_4  and  C_5
REMARK    5  A    between atoms: C_5  and  C_6
REMARK    6  A    between atoms: C_6  and  C_7
REMARK    7  A    between atoms: C_7  and  C_8
REMARK    8  A    between atoms: C_8  and  C_9
REMARK    9  A    between atoms: C_9  and  C_10
REMARK   10  A    between atoms: C_10  and  C_11
REMARK   11  A    between atoms: C_11  and  C_12
REMARK   12  A    between atoms: C_18  and  N_19
REMARK   13  A    between atoms: N_19  and  C_20
REMARK   14  A    between atoms: C_25  and  N_26
REMARK                            x       y       z     vdW  Elec       q    Type
REMARK                         _______ _______ _______ _____ _____    ______ ____
ROOT
ATOM      1  C   UNL     1       1.656   2.193 -22.857  0.00  0.00    -0.008 C 
ATOM      2  C   UNL     1       1.795   1.484 -21.776  0.00  0.00    +0.228 C 
ATOM      3  C   UNL     1       2.985   1.185 -21.345  0.00  0.00    +0.227 C 
ATOM      4  C   UNL     1       4.034   1.594 -21.994  0.00  0.00    +0.076 C 
ATOM      5  C   UNL     1       3.894   2.303 -23.075  0.00  0.00    +0.019 C 
ATOM      6  O   UNL     1       3.125   0.476 -20.264  0.00  0.00    -0.284 OA
ATOM      7  O   UNL     1       0.746   1.075 -21.127  0.00  0.00    -0.284 OA
ATOM      8  C   UNL     1       2.705   2.602 -23.507  0.00  0.00    -0.112 C 
ATOM      9  O   UNL     1       2.566   3.311 -24.588  0.00  0.00    -0.828 OA
ENDROOT
BRANCH   5  10
ATOM     10  N   UNL     1       4.943   2.712 -23.724  0.00  0.00    -0.336 N 
ATOM     11  H   UNL     1       5.156   2.331 -24.606  0.00  0.00    +0.147 HD
BRANCH  10  12
ATOM     12  C   UNL     1       5.712   3.625 -23.209  0.00  0.00    +0.119 C 
ATOM     13  C   UNL     1       5.234   4.806 -22.950  0.00  0.00    +0.028 C 
ATOM     14  C   UNL     1       6.002   5.720 -22.434  0.00  0.00    +0.002 C 
ATOM     15  C   UNL     1       7.248   5.452 -22.178  0.00  0.00    +0.006 C 
ATOM     16  C   UNL     1       7.726   4.271 -22.437  0.00  0.00    +0.056 C 
ATOM     17  C   UNL     1       6.958   3.358 -22.952  0.00  0.00    +0.081 C 
BRANCH  17  18
ATOM     18  N   UNL     1       7.436   2.177 -23.211  0.00  0.00    +0.222 N 
ATOM     19  H   UNL     1       8.135   1.933 -22.510  0.00  0.00    +0.200 HD
ATOM     20  H   UNL     1       6.679   1.493 -23.191  0.00  0.00    +0.200 HD
ATOM     21  H   UNL     1       7.867   2.179 -24.135  0.00  0.00    +0.200 HD
ENDBRANCH  17  18
ENDBRANCH  10  12
ENDBRANCH   5  10
BRANCH   1  22
ATOM     22  C   UNL     1       0.467   2.492 -23.289  0.00  0.00    +0.038 C 
BRANCH  22  23
ATOM     23  C   UNL     1      -0.142   3.548 -22.837  0.00  0.00    +0.005 C 
BRANCH  23  24
ATOM     24  C   UNL     1      -1.426   3.520 -22.631  0.00  0.00    +0.000 C 
BRANCH  24  25
ATOM     25  C   UNL     1      -1.939   2.616 -21.851  0.00  0.00    +0.000 C 
BRANCH  25  26
ATOM     26  C   UNL     1      -3.226   2.560 -21.681  0.00  0.00    +0.000 C 
BRANCH  26  27
ATOM     27  C   UNL     1      -3.961   3.606 -21.921  0.00  0.00    +0.000 C 
BRANCH  27  28
ATOM     28  C   UNL     1      -5.189   3.460 -22.320  0.00  0.00    -0.000 C 
BRANCH  28  29
ATOM     29  C   UNL     1      -5.504   3.710 -23.556  0.00  0.00    -0.000 C 
BRANCH  29  30
ATOM     30  C   UNL     1      -4.610   4.187 -24.371  0.00  0.00    -0.000 C 
BRANCH  30  32
ATOM     31  C   UNL     1      -3.186   3.369 -25.910  0.00  0.00    +0.004 C 
ATOM     32  C   UNL     1      -4.401   3.609 -25.517  0.00  0.00    -0.003 C 
ENDBRANCH  30  32
ENDBRANCH  29  30
ENDBRANCH  28  29
ENDBRANCH  27  28
ENDBRANCH  26  27
ENDBRANCH  25  26
ENDBRANCH  24  25
ENDBRANCH  23  24
ENDBRANCH  22  23
ENDBRANCH   1  22
TORSDOF 13
ENDMDL
MODEL 5
REMARK VINA RESULT:    -8.528      1.558      1.928
REMARK INTER + INTRA:         -15.889
REMARK INTER:                 -14.780
REMARK INTRA:                  -1.110
REMARK UNBOUND:                -1.130
REMARK  Name = CCCCCCCCCCCC1=C(O)C(=O)C=C(N[C@@H]2CCCC[C@H]2N)C1=O                  ZINC000100393419
REMARK  14 active torsions:
REMARK  status: ('A' for Active; 'I' for Inactive)
REMARK    1  A    between atoms: C_1  and  C_2
REMARK    2  A    between atoms: C_2  and  C_3
REMARK    3  A    between atoms: C_3  and  C_4
REMARK    4  A    between atoms: C_4  and  C_5
REMARK    5  A    between atoms: C_5  and  C_6
REMARK    6  A    between atoms: C_6  and  C_7
REMARK    7  A    between atoms: C_7  and  C_8
REMARK    8  A    between atoms: C_8  and  C_9
REMARK    9  A    between atoms: C_9  and  C_10
REMARK   10  A    between atoms: C_10  and  C_11
REMARK   11  A    between atoms: C_11  and  C_12
REMARK   12  A    between atoms: C_18  and  N_19
REMARK   13  A    between atoms: N_19  and  C_20
REMARK   14  A    between atoms: C_25  and  N_26
REMARK                            x       y       z     vdW  Elec       q    Type
REMARK                         _______ _______ _______ _____ _____    ______ ____
ROOT
ATOM      1  C   UNL     1       0.328   3.461 -23.257  0.00  0.00    -0.008 C 
ATOM      2  C   UNL     1       0.572   2.280 -22.771  0.00  0.00    +0.228 C 
ATOM      3  C   UNL     1       1.772   1.978 -22.370  0.00  0.00    +0.227 C 
ATOM      4  C   UNL     1       2.726   2.856 -22.455  0.00  0.00    +0.076 C 
ATOM      5  C   UNL     1       2.482   4.036 -22.941  0.00  0.00    +0.019 C 
ATOM      6  O   UNL     1       2.016   0.797 -21.883  0.00  0.00    -0.284 OA
ATOM      7  O   UNL     1      -0.382   1.402 -22.685  0.00  0.00    -0.284 OA
ATOM      8  C   UNL     1       1.284   4.339 -23.342  0.00  0.00    -0.112 C 
ATOM      9  O   UNL     1       1.040   5.520 -23.829  0.00  0.00    -0.828 OA
ENDROOT
BRANCH   5  10
ATOM     10  N   UNL     1       3.437   4.914 -23.026  0.00  0.00    -0.336 N 
ATOM     11  H   UNL     1       3.223   5.875 -23.046  0.00  0.00    +0.147 HD
BRANCH  10  12
ATOM     12  C   UNL     1       4.676   4.524 -23.086  0.00  0.00    +0.119 C 
ATOM     13  C   UNL     1       4.968   3.365 -23.597  0.00  0.00    +0.028 C 
ATOM     14  C   UNL     1       6.207   2.974 -23.657  0.00  0.00    +0.002 C 
ATOM     15  C   UNL     1       7.153   3.743 -23.206  0.00  0.00    +0.006 C 
ATOM     16  C   UNL     1       6.860   4.902 -22.694  0.00  0.00    +0.056 C 
ATOM     17  C   UNL     1       5.622   5.293 -22.635  0.00  0.00    +0.081 C 
BRANCH  17  18
ATOM     18  N   UNL     1       5.330   6.452 -22.124  0.00  0.00    +0.222 N 
ATOM     19  H   UNL     1       5.570   7.186 -22.789  0.00  0.00    +0.200 HD
ATOM     20  H   UNL     1       4.332   6.490 -21.919  0.00  0.00    +0.200 HD
ATOM     21  H   UNL     1       5.859   6.587 -21.262  0.00  0.00    +0.200 HD
ENDBRANCH  17  18
ENDBRANCH  10  12
ENDBRANCH   5  10
BRANCH   1  22
ATOM     22  C   UNL     1      -0.870   3.764 -23.658  0.00  0.00    +0.038 C 
BRANCH  22  23
ATOM     23  C   UNL     1      -1.244   3.471 -24.868  0.00  0.00    +0.005 C 
BRANCH  23  24
ATOM     24  C   UNL     1      -2.509   3.446 -25.170  0.00  0.00    +0.000 C 
BRANCH  24  25
ATOM     25  C   UNL     1      -3.227   4.522 -25.047  0.00  0.00    +0.000 C 
BRANCH  25  26
ATOM     26  C   UNL     1      -4.504   4.429 -24.823  0.00  0.00    +0.000 C 
BRANCH  26  27
ATOM     27  C   UNL     1      -4.967   3.458 -24.092  0.00  0.00    +0.000 C 
BRANCH  27  28
ATOM     28  C   UNL     1      -5.571   3.718 -22.971  0.00  0.00    -0.000 C 
BRANCH  28  29
ATOM     29  C   UNL     1      -5.148   3.181 -21.866  0.00  0.00    -0.000 C 
BRANCH  29  30
ATOM     30  C   UNL     1      -3.969   2.635 -21.818  0.00  0.00    -0.000 C 
BRANCH  30  32
ATOM     31  C   UNL     1      -2.998   4.145 -20.460  0.00  0.00    +0.004 C 
ATOM     32  C   UNL     1      -3.163   2.912 -20.836  0.00  0.00    -0.003 C 
ENDBRANCH  30  32
ENDBRANCH  29  30
ENDBRANCH  28  29
ENDBRANCH  27  28
ENDBRANCH  26  27
ENDBRANCH  25  26
ENDBRANCH  24  25
ENDBRANCH  23  24
ENDBRANCH  22  23
ENDBRANCH   1  22
TORSDOF 13
ENDMDL
MODEL 6
REMARK VINA RESULT:    -8.215      1.193      2.594
REMARK INTER + INTRA:         -15.349
REMARK INTER:                 -14.076
REMARK INTRA:                  -1.273
REMARK UNBOUND:                -1.130
REMARK  Name = CCCCCCCCCCCC1=C(O)C(=O)C=C(N[C@@H]2CCCC[C@H]2N)C1=O                  ZINC000100393419
REMARK  14 active torsions:
REMARK  status: ('A' for Active; 'I' for Inactive)
REMARK    1  A    between atoms: C_1  and  C_2
REMARK    2  A    between atoms: C_2  and  C_3
REMARK    3  A    between atoms: C_3  and  C_4
REMARK    4  A    between atoms: C_4  and  C_5
REMARK    5  A    between atoms: C_5  and  C_6
REMARK    6  A    between atoms: C_6  and  C_7
REMARK    7  A    between atoms: C_7  and  C_8
REMARK    8  A    between atoms: C_8  and  C_9
REMARK    9  A    between atoms: C_9  and  C_10
REMARK   10  A    between atoms: C_10  and  C_11
REMARK   11  A    between atoms: C_11  and  C_12
REMARK   12  A    between atoms: C_18  and  N_19
REMARK   13  A    between atoms: N_19  and  C_20
REMARK   14  A    between atoms: C_25  and  N_26
REMARK                            x       y       z     vdW  Elec       q    Type
REMARK                         _______ _______ _______ _____ _____    ______ ____
ROOT
ATOM      1  C   UNL     1       0.490   2.348 -22.488  0.00  0.00    -0.008 C 
ATOM      2  C   UNL     1       0.940   1.613 -21.516  0.00  0.00    +0.228 C 
ATOM      3  C   UNL     1       2.222   1.479 -21.341  0.00  0.00    +0.227 C 
ATOM      4  C   UNL     1       3.053   2.081 -22.139  0.00  0.00    +0.076 C 
ATOM      5  C   UNL     1       2.603   2.816 -23.112  0.00  0.00    +0.019 C 
ATOM      6  O   UNL     1       2.672   0.743 -20.368  0.00  0.00    -0.284 OA
ATOM      7  O   UNL     1       0.109   1.011 -20.718  0.00  0.00    -0.284 OA
ATOM      8  C   UNL     1       1.322   2.950 -23.287  0.00  0.00    -0.112 C 
ATOM      9  O   UNL     1       0.873   3.686 -24.259  0.00  0.00    -0.828 OA
ENDROOT
BRANCH   5  10
ATOM     10  N   UNL     1       3.434   3.418 -23.910  0.00  0.00    -0.336 N 
ATOM     11  H   UNL     1       3.264   3.433 -24.879  0.00  0.00    +0.147 HD
BRANCH  10  12
ATOM     12  C   UNL     1       4.492   4.002 -23.428  0.00  0.00    +0.119 C 
ATOM     13  C   UNL     1       5.644   3.403 -23.479  0.00  0.00    +0.028 C 
ATOM     14  C   UNL     1       6.701   3.986 -22.997  0.00  0.00    +0.002 C 
ATOM     15  C   UNL     1       6.606   5.168 -22.465  0.00  0.00    +0.006 C 
ATOM     16  C   UNL     1       5.453   5.767 -22.414  0.00  0.00    +0.056 C 
ATOM     17  C   UNL     1       4.396   5.184 -22.895  0.00  0.00    +0.081 C 
BRANCH  17  18
ATOM     18  N   UNL     1       3.243   5.783 -22.845  0.00  0.00    +0.222 N 
ATOM     19  H   UNL     1       3.214   6.393 -22.028  0.00  0.00    +0.200 HD
ATOM     20  H   UNL     1       3.112   6.338 -23.690  0.00  0.00    +0.200 HD
ATOM     21  H   UNL     1       2.501   5.087 -22.776  0.00  0.00    +0.200 HD
ENDBRANCH  17  18
ENDBRANCH  10  12
ENDBRANCH   5  10
BRANCH   1  22
ATOM     22  C   UNL     1      -0.790   2.482 -22.663  0.00  0.00    +0.038 C 
BRANCH  22  23
ATOM     23  C   UNL     1      -1.440   3.409 -22.024  0.00  0.00    +0.005 C 
BRANCH  23  24
ATOM     24  C   UNL     1      -2.420   3.087 -21.232  0.00  0.00    +0.000 C 
BRANCH  24  25
ATOM     25  C   UNL     1      -3.556   3.714 -21.317  0.00  0.00    +0.000 C 
BRANCH  25  26
ATOM     26  C   UNL     1      -4.637   3.060 -21.625  0.00  0.00    +0.000 C 
BRANCH  26  27
ATOM     27  C   UNL     1      -5.349   3.428 -22.650  0.00  0.00    +0.000 C 
BRANCH  27  28
ATOM     28  C   UNL     1      -4.830   4.197 -23.560  0.00  0.00    -0.000 C 
BRANCH  28  29
ATOM     29  C   UNL     1      -5.099   3.990 -24.815  0.00  0.00    -0.000 C 
BRANCH  29  30
ATOM     30  C   UNL     1      -4.411   3.119 -25.492  0.00  0.00    -0.000 C 
BRANCH  30  32
ATOM     31  C   UNL     1      -2.323   3.498 -26.243  0.00  0.00    +0.004 C 
ATOM     32  C   UNL     1      -3.124   3.037 -25.329  0.00  0.00    -0.003 C 
ENDBRANCH  30  32
ENDBRANCH  29  30
ENDBRANCH  28  29
ENDBRANCH  27  28
ENDBRANCH  26  27
ENDBRANCH  25  26
ENDBRANCH  24  25
ENDBRANCH  23  24
ENDBRANCH  22  23
ENDBRANCH   1  22
TORSDOF 13
ENDMDL
MODEL 7
REMARK VINA RESULT:    -8.010      1.632      2.258
REMARK INTER + INTRA:         -14.993
REMARK INTER:                 -13.682
REMARK INTRA:                  -1.311
REMARK UNBOUND:                -1.130
REMARK  Name = CCCCCCCCCCCC1=C(O)C(=O)C=C(N[C@@H]2CCCC[C@H]2N)C1=O                  ZINC000100393419
REMARK  14 active torsions:
REMARK  status: ('A' for Active; 'I' for Inactive)
REMARK    1  A    between atoms: C_1  and  C_2
REMARK    2  A    between atoms: C_2  and  C_3
REMARK    3  A    between atoms: C_3  and  C_4
REMARK    4  A    between atoms: C_4  and  C_5
REMARK    5  A    between atoms: C_5  and  C_6
REMARK    6  A    between atoms: C_6  and  C_7
REMARK    7  A    between atoms: C_7  and  C_8
REMARK    8  A    between atoms: C_8  and  C_9
REMARK    9  A    between atoms: C_9  and  C_10
REMARK   10  A    between atoms: C_10  and  C_11
REMARK   11  A    between atoms: C_11  and  C_12
REMARK   12  A    between atoms: C_18  and  N_19
REMARK   13  A    between atoms: N_19  and  C_20
REMARK   14  A    between atoms: C_25  and  N_26
REMARK                            x       y       z     vdW  Elec       q    Type
REMARK                         _______ _______ _______ _____ _____    ______ ____
ROOT
ATOM      1  C   UNL     1       0.405   3.304 -23.349  0.00  0.00    -0.008 C 
ATOM      2  C   UNL     1       0.600   4.579 -23.505  0.00  0.00    +0.228 C 
ATOM      3  C   UNL     1       1.792   5.077 -23.355  0.00  0.00    +0.227 C 
ATOM      4  C   UNL     1       2.788   4.299 -23.048  0.00  0.00    +0.076 C 
ATOM      5  C   UNL     1       2.592   3.024 -22.892  0.00  0.00    +0.019 C 
ATOM      6  O   UNL     1       1.988   6.353 -23.511  0.00  0.00    -0.284 OA
ATOM      7  O   UNL     1      -0.395   5.357 -23.812  0.00  0.00    -0.284 OA
ATOM      8  C   UNL     1       1.401   2.526 -23.043  0.00  0.00    -0.112 C 
ATOM      9  O   UNL     1       1.205   1.250 -22.886  0.00  0.00    -0.828 OA
ENDROOT
BRANCH   5  10
ATOM     10  N   UNL     1       3.587   2.246 -22.585  0.00  0.00    -0.336 N 
ATOM     11  H   UNL     1       3.423   1.304 -22.353  0.00  0.00    +0.147 HD
BRANCH  10  12
ATOM     12  C   UNL     1       4.801   2.713 -22.585  0.00  0.00    +0.119 C 
ATOM     13  C   UNL     1       5.360   3.070 -23.703  0.00  0.00    +0.028 C 
ATOM     14  C   UNL     1       6.573   3.536 -23.704  0.00  0.00    +0.002 C 
ATOM     15  C   UNL     1       7.227   3.645 -22.586  0.00  0.00    +0.006 C 
ATOM     16  C   UNL     1       6.668   3.288 -21.468  0.00  0.00    +0.056 C 
ATOM     17  C   UNL     1       5.455   2.822 -21.467  0.00  0.00    +0.081 C 
BRANCH  17  18
ATOM     18  N   UNL     1       4.896   2.465 -20.349  0.00  0.00    +0.222 N 
ATOM     19  H   UNL     1       5.588   2.492 -19.600  0.00  0.00    +0.200 HD
ATOM     20  H   UNL     1       4.133   3.106 -20.131  0.00  0.00    +0.200 HD
ATOM     21  H   UNL     1       4.529   1.518 -20.440  0.00  0.00    +0.200 HD
ENDBRANCH  17  18
ENDBRANCH  10  12
ENDBRANCH   5  10
BRANCH   1  22
ATOM     22  C   UNL     1      -0.786   2.806 -23.500  0.00  0.00    +0.038 C 
BRANCH  22  23
ATOM     23  C   UNL     1      -1.328   2.762 -24.681  0.00  0.00    +0.005 C 
BRANCH  23  24
ATOM     24  C   UNL     1      -2.615   2.614 -24.800  0.00  0.00    +0.000 C 
BRANCH  24  25
ATOM     25  C   UNL     1      -3.290   3.406 -25.580  0.00  0.00    +0.000 C 
BRANCH  25  26
ATOM     26  C   UNL     1      -4.530   3.682 -25.308  0.00  0.00    +0.000 C 
BRANCH  26  27
ATOM     27  C   UNL     1      -4.837   4.262 -24.185  0.00  0.00    +0.000 C 
BRANCH  27  28
ATOM     28  C   UNL     1      -5.684   3.702 -23.374  0.00  0.00    -0.000 C 
BRANCH  28  29
ATOM     29  C   UNL     1      -5.306   3.351 -22.181  0.00  0.00    -0.000 C 
BRANCH  29  30
ATOM     30  C   UNL     1      -4.232   3.867 -21.661  0.00  0.00    -0.000 C 
BRANCH  30  32
ATOM     31  C   UNL     1      -3.114   2.020 -21.024  0.00  0.00    +0.004 C 
ATOM     32  C   UNL     1      -3.566   3.209 -20.759  0.00  0.00    -0.003 C 
ENDBRANCH  30  32
ENDBRANCH  29  30
ENDBRANCH  28  29
ENDBRANCH  27  28
ENDBRANCH  26  27
ENDBRANCH  25  26
ENDBRANCH  24  25
ENDBRANCH  23  24
ENDBRANCH  22  23
ENDBRANCH   1  22
TORSDOF 13
ENDMDL
MODEL 8
REMARK VINA RESULT:    -7.860      2.292      7.632
REMARK INTER + INTRA:         -14.734
REMARK INTER:                 -12.797
REMARK INTRA:                  -1.937
REMARK UNBOUND:                -1.130
REMARK  Name = CCCCCCCCCCCC1=C(O)C(=O)C=C(N[C@@H]2CCCC[C@H]2N)C1=O                  ZINC000100393419
REMARK  14 active torsions:
REMARK  status: ('A' for Active; 'I' for Inactive)
REMARK    1  A    between atoms: C_1  and  C_2
REMARK    2  A    between atoms: C_2  and  C_3
REMARK    3  A    between atoms: C_3  and  C_4
REMARK    4  A    between atoms: C_4  and  C_5
REMARK    5  A    between atoms: C_5  and  C_6
REMARK    6  A    between atoms: C_6  and  C_7
REMARK    7  A    between atoms: C_7  and  C_8
REMARK    8  A    between atoms: C_8  and  C_9
REMARK    9  A    between atoms: C_9  and  C_10
REMARK   10  A    between atoms: C_10  and  C_11
REMARK   11  A    between atoms: C_11  and  C_12
REMARK   12  A    between atoms: C_18  and  N_19
REMARK   13  A    between atoms: N_19  and  C_20
REMARK   14  A    between atoms: C_25  and  N_26
REMARK                            x       y       z     vdW  Elec       q    Type
REMARK                         _______ _______ _______ _____ _____    ______ ____
ROOT
ATOM      1  C   UNL     1       0.949   1.954 -22.906  0.00  0.00    -0.008 C 
ATOM      2  C   UNL     1       1.408   2.233 -24.090  0.00  0.00    +0.228 C 
ATOM      3  C   UNL     1       0.876   3.197 -24.782  0.00  0.00    +0.227 C 
ATOM      4  C   UNL     1      -0.113   3.882 -24.290  0.00  0.00    +0.076 C 
ATOM      5  C   UNL     1      -0.572   3.603 -23.106  0.00  0.00    +0.019 C 
ATOM      6  O   UNL     1       1.334   3.476 -25.966  0.00  0.00    -0.284 OA
ATOM      7  O   UNL     1       2.397   1.548 -24.582  0.00  0.00    -0.284 OA
ATOM      8  C   UNL     1      -0.041   2.639 -22.414  0.00  0.00    -0.112 C 
ATOM      9  O   UNL     1      -0.499   2.360 -21.230  0.00  0.00    -0.828 OA
ENDROOT
BRANCH   5  10
ATOM     10  N   UNL     1      -1.561   4.287 -22.614  0.00  0.00    -0.336 N 
ATOM     11  H   UNL     1      -1.400   4.934 -21.890  0.00  0.00    +0.147 HD
BRANCH  10  12
ATOM     12  C   UNL     1      -2.764   4.118 -23.079  0.00  0.00    +0.119 C 
ATOM     13  C   UNL     1      -3.039   4.449 -24.305  0.00  0.00    +0.028 C 
ATOM     14  C   UNL     1      -4.241   4.280 -24.770  0.00  0.00    +0.002 C 
ATOM     15  C   UNL     1      -5.168   3.779 -24.008  0.00  0.00    +0.006 C 
ATOM     16  C   UNL     1      -4.892   3.448 -22.781  0.00  0.00    +0.056 C 
ATOM     17  C   UNL     1      -3.690   3.618 -22.316  0.00  0.00    +0.081 C 
BRANCH  17  18
ATOM     18  N   UNL     1      -3.415   3.287 -21.090  0.00  0.00    +0.222 N 
ATOM     19  H   UNL     1      -4.261   3.349 -20.523  0.00  0.00    +0.200 HD
ATOM     20  H   UNL     1      -3.059   2.331 -21.068  0.00  0.00    +0.200 HD
ATOM     21  H   UNL     1      -2.708   3.921 -20.717  0.00  0.00    +0.200 HD
ENDBRANCH  17  18
ENDBRANCH  10  12
ENDBRANCH   5  10
BRANCH   1  22
ATOM     22  C   UNL     1       1.480   0.990 -22.214  0.00  0.00    +0.038 C 
BRANCH  22  23
ATOM     23  C   UNL     1       2.472   1.237 -21.411  0.00  0.00    +0.005 C 
BRANCH  23  24
ATOM     24  C   UNL     1       3.459   0.395 -21.320  0.00  0.00    +0.000 C 
BRANCH  24  25
ATOM     25  C   UNL     1       4.684   0.830 -21.296  0.00  0.00    +0.000 C 
BRANCH  25  26
ATOM     26  C   UNL     1       5.109   1.625 -22.232  0.00  0.00    +0.000 C 
BRANCH  26  27
ATOM     27  C   UNL     1       5.758   2.709 -21.919  0.00  0.00    +0.000 C 
BRANCH  27  28
ATOM     28  C   UNL     1       5.687   3.753 -22.689  0.00  0.00    -0.000 C 
BRANCH  28  29
ATOM     29  C   UNL     1       4.583   4.022 -23.320  0.00  0.00    -0.000 C 
BRANCH  29  30
ATOM     30  C   UNL     1       3.552   4.468 -22.665  0.00  0.00    -0.000 C 
BRANCH  30  32
ATOM     31  C   UNL     1       3.584   6.714 -22.521  0.00  0.00    +0.004 C 
ATOM     32  C   UNL     1       3.039   5.623 -22.969  0.00  0.00    -0.003 C 
ENDBRANCH  30  32
ENDBRANCH  29  30
ENDBRANCH  28  29
ENDBRANCH  27  28
ENDBRANCH  26  27
ENDBRANCH  25  26
ENDBRANCH  24  25
ENDBRANCH  23  24
ENDBRANCH  22  23
ENDBRANCH   1  22
TORSDOF 13
ENDMDL
MODEL 9
REMARK VINA RESULT:    -7.581      1.837      2.313
REMARK INTER + INTRA:         -14.251
REMARK INTER:                 -13.122
REMARK INTRA:                  -1.130
REMARK UNBOUND:                -1.130
REMARK  Name = CCCCCCCCCCCC1=C(O)C(=O)C=C(N[C@@H]2CCCC[C@H]2N)C1=O                  ZINC000100393419
REMARK  14 active torsions:
REMARK  status: ('A' for Active; 'I' for Inactive)
REMARK    1  A    between atoms: C_1  and  C_2
REMARK    2  A    between atoms: C_2  and  C_3
REMARK    3  A    between atoms: C_3  and  C_4
REMARK    4  A    between atoms: C_4  and  C_5
REMARK    5  A    between atoms: C_5  and  C_6
REMARK    6  A    between atoms: C_6  and  C_7
REMARK    7  A    between atoms: C_7  and  C_8
REMARK    8  A    between atoms: C_8  and  C_9
REMARK    9  A    between atoms: C_9  and  C_10
REMARK   10  A    between atoms: C_10  and  C_11
REMARK   11  A    between atoms: C_11  and  C_12
REMARK   12  A    between atoms: C_18  and  N_19
REMARK   13  A    between atoms: N_19  and  C_20
REMARK   14  A    between atoms: C_25  and  N_26
REMARK                            x       y       z     vdW  Elec       q    Type
REMARK                         _______ _______ _______ _____ _____    ______ ____
ROOT
ATOM      1  C   UNL     1       2.266   3.140 -23.008  0.00  0.00    -0.008 C 
ATOM      2  C   UNL     1       2.231   1.869 -22.740  0.00  0.00    +0.228 C 
ATOM      3  C   UNL     1       3.248   1.297 -22.165  0.00  0.00    +0.227 C 
ATOM      4  C   UNL     1       4.299   1.998 -21.857  0.00  0.00    +0.076 C 
ATOM      5  C   UNL     1       4.334   3.270 -22.125  0.00  0.00    +0.019 C 
ATOM      6  O   UNL     1       3.213   0.026 -21.897  0.00  0.00    -0.284 OA
ATOM      7  O   UNL     1       1.180   1.168 -23.047  0.00  0.00    -0.284 OA
ATOM      8  C   UNL     1       3.318   3.841 -22.700  0.00  0.00    -0.112 C 
ATOM      9  O   UNL     1       3.353   5.112 -22.968  0.00  0.00    -0.828 OA
ENDROOT
BRANCH   5  10
ATOM     10  N   UNL     1       5.385   3.970 -21.818  0.00  0.00    -0.336 N 
ATOM     11  H   UNL     1       5.430   4.437 -20.953  0.00  0.00    +0.147 HD
BRANCH  10  12
ATOM     12  C   UNL     1       6.378   4.054 -22.654  0.00  0.00    +0.119 C 
ATOM     13  C   UNL     1       7.020   2.981 -23.009  0.00  0.00    +0.028 C 
ATOM     14  C   UNL     1       8.012   3.064 -23.844  0.00  0.00    +0.002 C 
ATOM     15  C   UNL     1       8.363   4.220 -24.324  0.00  0.00    +0.006 C 
ATOM     16  C   UNL     1       7.720   5.293 -23.968  0.00  0.00    +0.056 C 
ATOM     17  C   UNL     1       6.728   5.210 -23.133  0.00  0.00    +0.081 C 
BRANCH  17  18
ATOM     18  N   UNL     1       6.086   6.283 -22.778  0.00  0.00    +0.222 N 
ATOM     19  H   UNL     1       6.092   6.360 -21.761  0.00  0.00    +0.200 HD
ATOM     20  H   UNL     1       6.540   7.101 -23.184  0.00  0.00    +0.200 HD
ATOM     21  H   UNL     1       5.123   6.229 -23.109  0.00  0.00    +0.200 HD
ENDBRANCH  17  18
ENDBRANCH  10  12
ENDBRANCH   5  10
BRANCH   1  22
ATOM     22  C   UNL     1       1.250   3.712 -23.583  0.00  0.00    +0.038 C 
BRANCH  22  23
ATOM     23  C   UNL     1       0.984   3.461 -24.830  0.00  0.00    +0.005 C 
BRANCH  23  24
ATOM     24  C   UNL     1      -0.232   3.588 -25.273  0.00  0.00    +0.000 C 
BRANCH  24  25
ATOM     25  C   UNL     1      -1.166   4.036 -24.488  0.00  0.00    +0.000 C 
BRANCH  25  26
ATOM     26  C   UNL     1      -2.415   3.905 -24.823  0.00  0.00    +0.000 C 
BRANCH  26  27
ATOM     27  C   UNL     1      -3.199   3.138 -24.124  0.00  0.00    +0.000 C 
BRANCH  27  28
ATOM     28  C   UNL     1      -4.314   3.608 -23.650  0.00  0.00    -0.000 C 
BRANCH  28  29
ATOM     29  C   UNL     1      -4.640   3.381 -22.412  0.00  0.00    -0.000 C 
BRANCH  29  30
ATOM     30  C   UNL     1      -3.935   2.558 -21.694  0.00  0.00    -0.000 C 
BRANCH  30  32
ATOM     31  C   UNL     1      -3.221   4.172 -20.297  0.00  0.00    +0.004 C 
ATOM     32  C   UNL     1      -3.501   2.923 -20.524  0.00  0.00    -0.003 C 
ENDBRANCH  30  32
ENDBRANCH  29  30
ENDBRANCH  28  29
ENDBRANCH  27  28
ENDBRANCH  26  27
ENDBRANCH  25  26
ENDBRANCH  24  25
ENDBRANCH  23  24
ENDBRANCH  22  23
ENDBRANCH   1  22
TORSDOF 13
ENDMDL
