MODEL 1
REMARK VINA RESULT:   -11.090      0.000      0.000
REMARK INTER + INTRA:         -11.739
REMARK INTER:                 -11.739
REMARK INTRA:                   0.000
REMARK UNBOUND:                 0.000
REMARK  Name = ZINC000017417717
REMARK  3 active torsions:
REMARK  status: ('A' for Active; 'I' for Inactive)
REMARK    1  A    between atoms: C_1  and  C_2
REMARK    2  A    between atoms: C_10  and  O_11
REMARK    3  A    between atoms: C_21  and  O_22
REMARK                            x       y       z     vdW  Elec       q    Type
REMARK                         _______ _______ _______ _____ _____    ______ ____
ROOT
ATOM      1  C   UNL     1       2.759   2.346 -24.761  0.00  0.00    +0.014 C 
ATOM      2  C   UNL     1       2.020   2.092 -23.721  0.00  0.00    -0.003 C 
ATOM      3  C   UNL     1       1.383   2.675 -24.693  0.00  0.00    +0.010 C 
ATOM      4  C   UNL     1       0.118   2.951 -24.568  0.00  0.00    +0.009 C 
ATOM      5  C   UNL     1      -0.509   2.643 -23.472  0.00  0.00    +0.023 C 
ATOM      6  C   UNL     1      -1.773   2.918 -23.347  0.00  0.00    -0.039 A 
ATOM      7  C   UNL     1      -2.410   3.501 -24.319  0.00  0.00    +0.023 A 
ATOM      8  C   UNL     1      -3.675   3.777 -24.194  0.00  0.00    +0.061 A 
ATOM      9  C   UNL     1      -4.302   3.469 -23.098  0.00  0.00    +0.145 A 
ATOM     10  C   UNL     1      -3.665   2.886 -22.126  0.00  0.00    +0.064 A 
ATOM     11 BR   UNL     1      -4.292   2.578 -21.030  0.00  0.00    -0.046 Br
ATOM     12 BR   UNL     1      -4.312   4.359 -25.165  0.00  0.00    -0.046 Br
ATOM     13  C   UNL     1      -2.401   2.611 -22.250  0.00  0.00    -0.026 A 
ATOM     14  C   UNL     1      -1.763   2.028 -21.279  0.00  0.00    +0.037 C 
ATOM     15  C   UNL     1      -0.499   1.752 -21.404  0.00  0.00    +0.009 C 
ATOM     16  C   UNL     1       0.129   2.060 -22.500  0.00  0.00    +0.000 C 
ATOM     17  C   UNL     1       3.258   1.716 -23.595  0.00  0.00    +0.121 C 
ATOM     18  C   UNL     1       3.396   1.176 -22.420  0.00  0.00    +0.032 C 
ATOM     19  C   UNL     1       2.243   1.219 -21.821  0.00  0.00    +0.007 C 
ATOM     20  C   UNL     1       1.393   1.785 -22.624  0.00  0.00    +0.001 C 
ENDROOT
BRANCH   9  21
ATOM     21  O   UNL     1      -5.567   3.744 -22.973  0.00  0.00    -0.505 OA
ATOM     22  H   UNL     1      -5.925   4.499 -23.397  0.00  0.00    +0.292 HD
ENDBRANCH   9  21
BRANCH  17  23
ATOM     23  O   UNL     1       4.193   1.855 -24.486  0.00  0.00    -0.391 OA
ATOM     24  H   UNL     1       4.878   2.453 -24.146  0.00  0.00    +0.210 HD
ENDBRANCH  17  23
TORSDOF 2
ENDMDL
MODEL 2
REMARK VINA RESULT:   -11.044      2.243      6.515
REMARK INTER + INTRA:         -11.690
REMARK INTER:                 -11.690
REMARK INTRA:                   0.000
REMARK UNBOUND:                 0.000
REMARK  Name = ZINC000017417717
REMARK  3 active torsions:
REMARK  status: ('A' for Active; 'I' for Inactive)
REMARK    1  A    between atoms: C_1  and  C_2
REMARK    2  A    between atoms: C_10  and  O_11
REMARK    3  A    between atoms: C_21  and  O_22
REMARK                            x       y       z     vdW  Elec       q    Type
REMARK                         _______ _______ _______ _____ _____    ______ ____
ROOT
ATOM      1  C   UNL     1      -4.862   2.860 -21.441  0.00  0.00    +0.014 C 
ATOM      2  C   UNL     1      -4.098   3.122 -22.461  0.00  0.00    -0.003 C 
ATOM      3  C   UNL     1      -3.470   2.599 -21.450  0.00  0.00    +0.010 C 
ATOM      4  C   UNL     1      -2.189   2.384 -21.521  0.00  0.00    +0.009 C 
ATOM      5  C   UNL     1      -1.538   2.693 -22.603  0.00  0.00    +0.023 C 
ATOM      6  C   UNL     1      -0.258   2.478 -22.674  0.00  0.00    -0.039 A 
ATOM      7  C   UNL     1       0.370   1.955 -21.663  0.00  0.00    +0.023 A 
ATOM      8  C   UNL     1       1.651   1.740 -21.734  0.00  0.00    +0.061 A 
ATOM      9  C   UNL     1       2.303   2.049 -22.816  0.00  0.00    +0.145 A 
ATOM     10  C   UNL     1       1.674   2.572 -23.827  0.00  0.00    +0.064 A 
ATOM     11 BR   UNL     1       2.326   2.880 -24.908  0.00  0.00    -0.046 Br
ATOM     12 BR   UNL     1       2.280   1.218 -20.724  0.00  0.00    -0.046 Br
ATOM     13  C   UNL     1       0.394   2.786 -23.756  0.00  0.00    -0.026 A 
ATOM     14  C   UNL     1      -0.235   3.309 -24.767  0.00  0.00    +0.037 C 
ATOM     15  C   UNL     1      -1.515   3.524 -24.695  0.00  0.00    +0.009 C 
ATOM     16  C   UNL     1      -2.167   3.216 -23.613  0.00  0.00    +0.000 C 
ATOM     17  C   UNL     1      -5.347   3.432 -22.642  0.00  0.00    +0.121 C 
ATOM     18  C   UNL     1      -5.468   3.931 -23.836  0.00  0.00    +0.032 C 
ATOM     19  C   UNL     1      -4.293   3.930 -24.392  0.00  0.00    +0.007 C 
ATOM     20  C   UNL     1      -3.446   3.430 -23.543  0.00  0.00    +0.001 C 
ENDROOT
BRANCH   9  21
ATOM     21  O   UNL     1       3.583   1.834 -22.887  0.00  0.00    -0.505 OA
ATOM     22  H   UNL     1       4.099   1.817 -22.105  0.00  0.00    +0.292 HD
ENDBRANCH   9  21
BRANCH  17  23
ATOM     23  O   UNL     1      -6.308   3.270 -21.781  0.00  0.00    -0.391 OA
ATOM     24  H   UNL     1      -5.930   3.095 -20.904  0.00  0.00    +0.210 HD
ENDBRANCH  17  23
TORSDOF 2
ENDMDL
MODEL 3
REMARK VINA RESULT:   -11.018      0.800      2.596
REMARK INTER + INTRA:         -11.662
REMARK INTER:                 -11.662
REMARK INTRA:                   0.000
REMARK UNBOUND:                 0.000
REMARK  Name = ZINC000017417717
REMARK  3 active torsions:
REMARK  status: ('A' for Active; 'I' for Inactive)
REMARK    1  A    between atoms: C_1  and  C_2
REMARK    2  A    between atoms: C_10  and  O_11
REMARK    3  A    between atoms: C_21  and  O_22
REMARK                            x       y       z     vdW  Elec       q    Type
REMARK                         _______ _______ _______ _____ _____    ______ ____
ROOT
ATOM      1  C   UNL     1       2.374   1.149 -21.737  0.00  0.00    +0.014 C 
ATOM      2  C   UNL     1       1.813   1.775 -22.729  0.00  0.00    -0.003 C 
ATOM      3  C   UNL     1       1.003   1.500 -21.750  0.00  0.00    +0.010 C 
ATOM      4  C   UNL     1      -0.248   1.850 -21.823  0.00  0.00    +0.009 C 
ATOM      5  C   UNL     1      -0.687   2.475 -22.875  0.00  0.00    +0.023 C 
ATOM      6  C   UNL     1      -1.937   2.825 -22.949  0.00  0.00    -0.039 A 
ATOM      7  C   UNL     1      -2.747   2.550 -21.970  0.00  0.00    +0.023 A 
ATOM      8  C   UNL     1      -3.998   2.900 -22.043  0.00  0.00    +0.061 A 
ATOM      9  C   UNL     1      -4.437   3.525 -23.095  0.00  0.00    +0.145 A 
ATOM     10  C   UNL     1      -3.626   3.800 -24.073  0.00  0.00    +0.064 A 
ATOM     11 BR   UNL     1      -4.065   4.425 -25.125  0.00  0.00    -0.046 Br
ATOM     12 BR   UNL     1      -4.808   2.625 -21.065  0.00  0.00    -0.046 Br
ATOM     13  C   UNL     1      -2.377   3.450 -24.000  0.00  0.00    -0.026 A 
ATOM     14  C   UNL     1      -1.565   3.725 -24.979  0.00  0.00    +0.037 C 
ATOM     15  C   UNL     1      -0.316   3.375 -24.905  0.00  0.00    +0.009 C 
ATOM     16  C   UNL     1       0.124   2.750 -23.854  0.00  0.00    +0.000 C 
ATOM     17  C   UNL     1       3.080   1.541 -22.901  0.00  0.00    +0.121 C 
ATOM     18  C   UNL     1       3.424   2.021 -24.059  0.00  0.00    +0.032 C 
ATOM     19  C   UNL     1       2.369   2.552 -24.602  0.00  0.00    +0.007 C 
ATOM     20  C   UNL     1       1.373   2.400 -23.781  0.00  0.00    +0.001 C 
ENDROOT
BRANCH   9  21
ATOM     21  O   UNL     1      -5.687   3.875 -23.168  0.00  0.00    -0.505 OA
ATOM     22  H   UNL     1      -6.209   3.909 -22.392  0.00  0.00    +0.292 HD
ENDBRANCH   9  21
BRANCH  17  23
ATOM     23  O   UNL     1       3.865   0.933 -22.062  0.00  0.00    -0.391 OA
ATOM     24  H   UNL     1       3.342   0.583 -21.324  0.00  0.00    +0.210 HD
ENDBRANCH  17  23
TORSDOF 2
ENDMDL
MODEL 4
REMARK VINA RESULT:   -10.743      2.421      5.864
REMARK INTER + INTRA:         -11.371
REMARK INTER:                 -11.371
REMARK INTRA:                   0.000
REMARK UNBOUND:                 0.000
REMARK  Name = ZINC000017417717
REMARK  3 active torsions:
REMARK  status: ('A' for Active; 'I' for Inactive)
REMARK    1  A    between atoms: C_1  and  C_2
REMARK    2  A    between atoms: C_10  and  O_11
REMARK    3  A    between atoms: C_21  and  O_22
REMARK                            x       y       z     vdW  Elec       q    Type
REMARK                         _______ _______ _______ _____ _____    ______ ____
ROOT
ATOM      1  C   UNL     1      -3.686   4.066 -25.778  0.00  0.00    +0.014 C 
ATOM      2  C   UNL     1      -3.422   3.661 -24.570  0.00  0.00    -0.003 C 
ATOM      3  C   UNL     1      -2.394   3.656 -25.366  0.00  0.00    +0.010 C 
ATOM      4  C   UNL     1      -1.234   3.268 -24.926  0.00  0.00    +0.009 C 
ATOM      5  C   UNL     1      -1.102   2.885 -23.691  0.00  0.00    +0.023 C 
ATOM      6  C   UNL     1       0.058   2.497 -23.251  0.00  0.00    -0.039 A 
ATOM      7  C   UNL     1       1.086   2.492 -24.047  0.00  0.00    +0.023 A 
ATOM      8  C   UNL     1       2.247   2.104 -23.607  0.00  0.00    +0.061 A 
ATOM      9  C   UNL     1       2.379   1.721 -22.372  0.00  0.00    +0.145 A 
ATOM     10  C   UNL     1       1.350   1.725 -21.577  0.00  0.00    +0.064 A 
ATOM     11 BR   UNL     1       1.482   1.342 -20.341  0.00  0.00    -0.046 Br
ATOM     12 BR   UNL     1       3.275   2.099 -24.402  0.00  0.00    -0.046 Br
ATOM     13  C   UNL     1       0.190   2.113 -22.016  0.00  0.00    -0.026 A 
ATOM     14  C   UNL     1      -0.839   2.118 -21.221  0.00  0.00    +0.037 C 
ATOM     15  C   UNL     1      -1.999   2.506 -21.661  0.00  0.00    +0.009 C 
ATOM     16  C   UNL     1      -2.131   2.889 -22.896  0.00  0.00    +0.000 C 
ATOM     17  C   UNL     1      -4.664   3.995 -24.757  0.00  0.00    +0.121 C 
ATOM     18  C   UNL     1      -5.301   3.818 -23.637  0.00  0.00    +0.032 C 
ATOM     19  C   UNL     1      -4.451   3.374 -22.759  0.00  0.00    +0.007 C 
ATOM     20  C   UNL     1      -3.290   3.277 -23.335  0.00  0.00    +0.001 C 
ENDROOT
BRANCH   9  21
ATOM     21  O   UNL     1       3.539   1.332 -21.932  0.00  0.00    -0.505 OA
ATOM     22  H   UNL     1       4.307   1.473 -22.450  0.00  0.00    +0.292 HD
ENDBRANCH   9  21
BRANCH  17  23
ATOM     23  O   UNL     1      -5.180   4.430 -25.868  0.00  0.00    -0.391 OA
ATOM     24  H   UNL     1      -6.131   4.234 -25.881  0.00  0.00    +0.210 HD
ENDBRANCH  17  23
TORSDOF 2
ENDMDL
MODEL 5
REMARK VINA RESULT:   -10.097      3.178      6.737
REMARK INTER + INTRA:         -10.687
REMARK INTER:                 -10.687
REMARK INTRA:                   0.000
REMARK UNBOUND:                 0.000
REMARK  Name = ZINC000017417717
REMARK  3 active torsions:
REMARK  status: ('A' for Active; 'I' for Inactive)
REMARK    1  A    between atoms: C_1  and  C_2
REMARK    2  A    between atoms: C_10  and  O_11
REMARK    3  A    between atoms: C_21  and  O_22
REMARK                            x       y       z     vdW  Elec       q    Type
REMARK                         _______ _______ _______ _____ _____    ______ ____
ROOT
ATOM      1  C   UNL     1      -2.396   2.077 -21.666  0.00  0.00    +0.014 C 
ATOM      2  C   UNL     1      -1.510   2.767 -22.322  0.00  0.00    -0.003 C 
ATOM      3  C   UNL     1      -1.005   1.820 -21.588  0.00  0.00    +0.010 C 
ATOM      4  C   UNL     1       0.282   1.636 -21.560  0.00  0.00    +0.009 C 
ATOM      5  C   UNL     1       1.063   2.398 -22.266  0.00  0.00    +0.023 C 
ATOM      6  C   UNL     1       2.350   2.215 -22.239  0.00  0.00    -0.039 A 
ATOM      7  C   UNL     1       2.855   1.268 -21.505  0.00  0.00    +0.023 A 
ATOM      8  C   UNL     1       4.142   1.083 -21.477  0.00  0.00    +0.061 A 
ATOM      9  C   UNL     1       4.923   1.846 -22.183  0.00  0.00    +0.145 A 
ATOM     10  C   UNL     1       4.417   2.793 -22.916  0.00  0.00    +0.064 A 
ATOM     11 BR   UNL     1       5.198   3.555 -23.622  0.00  0.00    -0.046 Br
ATOM     12 BR   UNL     1       4.647   0.137 -20.743  0.00  0.00    -0.046 Br
ATOM     13  C   UNL     1       3.131   2.977 -22.945  0.00  0.00    -0.026 A 
ATOM     14  C   UNL     1       2.625   3.924 -23.678  0.00  0.00    +0.037 C 
ATOM     15  C   UNL     1       1.339   4.108 -23.706  0.00  0.00    +0.009 C 
ATOM     16  C   UNL     1       0.557   3.345 -23.000  0.00  0.00    +0.000 C 
ATOM     17  C   UNL     1      -2.735   3.152 -22.522  0.00  0.00    +0.121 C 
ATOM     18  C   UNL     1      -2.712   4.153 -23.352  0.00  0.00    +0.032 C 
ATOM     19  C   UNL     1      -1.471   4.385 -23.664  0.00  0.00    +0.007 C 
ATOM     20  C   UNL     1      -0.729   3.530 -23.028  0.00  0.00    +0.001 C 
ENDROOT
BRANCH   9  21
ATOM     21  O   UNL     1       6.210   1.662 -22.155  0.00  0.00    -0.505 OA
ATOM     22  H   UNL     1       6.628   1.182 -22.842  0.00  0.00    +0.292 HD
ENDBRANCH   9  21
BRANCH  17  23
ATOM     23  O   UNL     1      -3.798   2.629 -21.987  0.00  0.00    -0.391 OA
ATOM     24  H   UNL     1      -4.474   3.316 -21.872  0.00  0.00    +0.210 HD
ENDBRANCH  17  23
TORSDOF 2
ENDMDL
MODEL 6
REMARK VINA RESULT:    -9.622      3.151      6.204
REMARK INTER + INTRA:         -10.184
REMARK INTER:                 -10.184
REMARK INTRA:                   0.000
REMARK UNBOUND:                 0.000
REMARK  Name = ZINC000017417717
REMARK  3 active torsions:
REMARK  status: ('A' for Active; 'I' for Inactive)
REMARK    1  A    between atoms: C_1  and  C_2
REMARK    2  A    between atoms: C_10  and  O_11
REMARK    3  A    between atoms: C_21  and  O_22
REMARK                            x       y       z     vdW  Elec       q    Type
REMARK                         _______ _______ _______ _____ _____    ______ ____
ROOT
ATOM      1  C   UNL     1      -1.811   4.581 -24.252  0.00  0.00    +0.014 C 
ATOM      2  C   UNL     1      -1.399   3.658 -23.434  0.00  0.00    -0.003 C 
ATOM      3  C   UNL     1      -0.440   4.321 -24.010  0.00  0.00    +0.010 C 
ATOM      4  C   UNL     1       0.800   4.033 -23.745  0.00  0.00    +0.009 C 
ATOM      5  C   UNL     1       1.081   3.083 -22.903  0.00  0.00    +0.023 C 
ATOM      6  C   UNL     1       2.320   2.795 -22.637  0.00  0.00    -0.039 A 
ATOM      7  C   UNL     1       3.279   3.458 -23.214  0.00  0.00    +0.023 A 
ATOM      8  C   UNL     1       4.519   3.170 -22.948  0.00  0.00    +0.061 A 
ATOM      9  C   UNL     1       4.800   2.220 -22.107  0.00  0.00    +0.145 A 
ATOM     10  C   UNL     1       3.841   1.558 -21.531  0.00  0.00    +0.064 A 
ATOM     11 BR   UNL     1       4.122   0.608 -20.689  0.00  0.00    -0.046 Br
ATOM     12 BR   UNL     1       5.478   3.832 -23.524  0.00  0.00    -0.046 Br
ATOM     13  C   UNL     1       2.601   1.845 -21.796  0.00  0.00    -0.026 A 
ATOM     14  C   UNL     1       1.642   1.183 -21.220  0.00  0.00    +0.037 C 
ATOM     15  C   UNL     1       0.403   1.471 -21.485  0.00  0.00    +0.009 C 
ATOM     16  C   UNL     1       0.122   2.421 -22.327  0.00  0.00    +0.000 C 
ATOM     17  C   UNL     1      -2.692   3.747 -23.523  0.00  0.00    +0.121 C 
ATOM     18  C   UNL     1      -3.211   2.851 -22.737  0.00  0.00    +0.032 C 
ATOM     19  C   UNL     1      -2.238   2.210 -22.162  0.00  0.00    +0.007 C 
ATOM     20  C   UNL     1      -1.118   2.708 -22.592  0.00  0.00    +0.001 C 
ENDROOT
BRANCH   9  21
ATOM     21  O   UNL     1       6.040   1.932 -21.841  0.00  0.00    -0.505 OA
ATOM     22  H   UNL     1       6.730   2.379 -22.289  0.00  0.00    +0.292 HD
ENDBRANCH   9  21
BRANCH  17  23
ATOM     23  O   UNL     1      -3.352   4.583 -24.268  0.00  0.00    -0.391 OA
ATOM     24  H   UNL     1      -2.738   5.032 -24.872  0.00  0.00    +0.210 HD
ENDBRANCH  17  23
TORSDOF 2
ENDMDL
