MODEL 1
REMARK VINA RESULT:   -10.208      0.000      0.000
REMARK INTER + INTRA:         -10.208
REMARK INTER:                 -10.208
REMARK INTRA:                   0.000
REMARK UNBOUND:                 0.000
REMARK  Name = C=C1C(=O)O[C@@H]2C[C@]3(C)CCC[C@H](C)[C@]34O[C@H]4[C@H]12            ZINC001857795302
REMARK  2 active torsions:
REMARK  status: ('A' for Active; 'I' for Inactive)
REMARK    1  A    between atoms: C_8  and  C_9
REMARK    2  A    between atoms: C_13  and  C_14
REMARK                            x       y       z     vdW  Elec       q    Type
REMARK                         _______ _______ _______ _____ _____    ______ ____
ROOT
ATOM      1  C   UNL     1       0.963   2.691 -24.266  0.00  0.00    +0.020 C 
ATOM      2  C   UNL     1       0.286   2.435 -23.186  0.00  0.00    +0.039 C 
ATOM      3  C   UNL     1       0.761   1.921 -22.090  0.00  0.00    +0.335 C 
ATOM      4  O   UNL     1      -0.216   1.817 -21.239  0.00  0.00    -0.457 OA
ATOM      5  C   UNL     1      -1.295   2.267 -21.809  0.00  0.00    +0.188 C 
ATOM      6  C   UNL     1      -2.520   2.378 -21.388  0.00  0.00    +0.055 C 
ATOM      7  C   UNL     1      -3.434   2.872 -22.170  0.00  0.00    +0.003 C 
ATOM      8  C   UNL     1      -4.659   2.983 -21.748  0.00  0.00    +0.010 C 
ATOM      9  C   UNL     1      -5.572   3.476 -22.530  0.00  0.00    +0.001 C 
ATOM     10  C   UNL     1      -5.262   3.858 -23.733  0.00  0.00    +0.006 C 
ATOM     11  C   UNL     1      -4.038   3.747 -24.154  0.00  0.00    +0.021 C 
ATOM     12  C   UNL     1      -3.727   4.129 -25.357  0.00  0.00    +0.010 C 
ATOM     13  C   UNL     1      -3.744   2.490 -20.967  0.00  0.00    +0.014 C 
ATOM     14  C   UNL     1      -3.123   3.254 -23.373  0.00  0.00    +0.105 C 
ATOM     15  O   UNL     1      -2.812   3.636 -24.576  0.00  0.00    -0.363 OA
ATOM     16  C   UNL     1      -1.898   3.143 -23.794  0.00  0.00    +0.163 C 
ATOM     17  O   UNL     1       1.995   1.572 -21.882  0.00  0.00    -0.245 OA
ATOM     18  C   UNL     1      -0.984   2.649 -23.012  0.00  0.00    +0.098 C 
ENDROOT
TORSDOF 0
ENDMDL
MODEL 2
REMARK VINA RESULT:   -10.065      1.274      2.618
REMARK INTER + INTRA:         -10.065
REMARK INTER:                 -10.065
REMARK INTRA:                   0.000
REMARK UNBOUND:                 0.000
REMARK  Name = C=C1C(=O)O[C@@H]2C[C@]3(C)CCC[C@H](C)[C@]34O[C@H]4[C@H]12            ZINC001857795302
REMARK  2 active torsions:
REMARK  status: ('A' for Active; 'I' for Inactive)
REMARK    1  A    between atoms: C_8  and  C_9
REMARK    2  A    between atoms: C_13  and  C_14
REMARK                            x       y       z     vdW  Elec       q    Type
REMARK                         _______ _______ _______ _____ _____    ______ ____
ROOT
ATOM      1  C   UNL     1       0.061   1.505 -21.006  0.00  0.00    +0.020 C 
ATOM      2  C   UNL     1      -0.031   1.936 -22.229  0.00  0.00    +0.039 C 
ATOM      3  C   UNL     1       0.931   1.964 -23.103  0.00  0.00    +0.335 C 
ATOM      4  O   UNL     1       0.456   2.459 -24.207  0.00  0.00    -0.457 OA
ATOM      5  C   UNL     1      -0.799   2.738 -24.015  0.00  0.00    +0.188 C 
ATOM      6  C   UNL     1      -1.707   3.244 -24.795  0.00  0.00    +0.055 C 
ATOM      7  C   UNL     1      -2.916   3.427 -24.353  0.00  0.00    +0.003 C 
ATOM      8  C   UNL     1      -3.824   3.934 -25.134  0.00  0.00    +0.010 C 
ATOM      9  C   UNL     1      -5.032   4.116 -24.692  0.00  0.00    +0.001 C 
ATOM     10  C   UNL     1      -5.334   3.793 -23.470  0.00  0.00    +0.006 C 
ATOM     11  C   UNL     1      -4.426   3.287 -22.689  0.00  0.00    +0.021 C 
ATOM     12  C   UNL     1      -4.727   2.963 -21.466  0.00  0.00    +0.010 C 
ATOM     13  C   UNL     1      -2.615   3.751 -25.576  0.00  0.00    +0.014 C 
ATOM     14  C   UNL     1      -3.217   3.104 -23.131  0.00  0.00    +0.105 C 
ATOM     15  O   UNL     1      -3.517   2.780 -21.908  0.00  0.00    -0.363 OA
ATOM     16  C   UNL     1      -2.309   2.597 -22.350  0.00  0.00    +0.163 C 
ATOM     17  O   UNL     1       2.152   1.566 -22.908  0.00  0.00    -0.245 OA
ATOM     18  C   UNL     1      -1.100   2.414 -22.793  0.00  0.00    +0.098 C 
ENDROOT
TORSDOF 0
ENDMDL
MODEL 3
REMARK VINA RESULT:    -9.722      1.646      4.544
REMARK INTER + INTRA:          -9.722
REMARK INTER:                  -9.722
REMARK INTRA:                   0.000
REMARK UNBOUND:                 0.000
REMARK  Name = C=C1C(=O)O[C@@H]2C[C@]3(C)CCC[C@H](C)[C@]34O[C@H]4[C@H]12            ZINC001857795302
REMARK  2 active torsions:
REMARK  status: ('A' for Active; 'I' for Inactive)
REMARK    1  A    between atoms: C_8  and  C_9
REMARK    2  A    between atoms: C_13  and  C_14
REMARK                            x       y       z     vdW  Elec       q    Type
REMARK                         _______ _______ _______ _____ _____    ______ ____
ROOT
ATOM      1  C   UNL     1      -4.734   4.235 -24.387  0.00  0.00    +0.020 C 
ATOM      2  C   UNL     1      -4.263   3.595 -23.358  0.00  0.00    +0.039 C 
ATOM      3  C   UNL     1      -4.941   3.219 -22.315  0.00  0.00    +0.335 C 
ATOM      4  O   UNL     1      -4.127   2.611 -21.504  0.00  0.00    -0.457 OA
ATOM      5  C   UNL     1      -2.945   2.611 -22.046  0.00  0.00    +0.188 C 
ATOM      6  C   UNL     1      -1.804   2.135 -21.646  0.00  0.00    +0.055 C 
ATOM      7  C   UNL     1      -0.746   2.268 -22.390  0.00  0.00    +0.003 C 
ATOM      8  C   UNL     1       0.395   1.793 -21.988  0.00  0.00    +0.010 C 
ATOM      9  C   UNL     1       1.452   1.926 -22.732  0.00  0.00    +0.001 C 
ATOM     10  C   UNL     1       1.369   2.534 -23.878  0.00  0.00    +0.006 C 
ATOM     11  C   UNL     1       0.228   3.010 -24.279  0.00  0.00    +0.021 C 
ATOM     12  C   UNL     1       0.144   3.618 -25.425  0.00  0.00    +0.010 C 
ATOM     13  C   UNL     1      -0.663   1.660 -21.244  0.00  0.00    +0.014 C 
ATOM     14  C   UNL     1      -0.830   2.877 -23.535  0.00  0.00    +0.105 C 
ATOM     15  O   UNL     1      -0.914   3.486 -24.681  0.00  0.00    -0.363 OA
ATOM     16  C   UNL     1      -1.972   3.353 -23.937  0.00  0.00    +0.163 C 
ATOM     17  O   UNL     1      -6.210   3.417 -22.117  0.00  0.00    -0.245 OA
ATOM     18  C   UNL     1      -3.029   3.219 -23.192  0.00  0.00    +0.098 C 
ENDROOT
TORSDOF 0
ENDMDL
MODEL 4
REMARK VINA RESULT:    -8.787      1.135      1.749
REMARK INTER + INTRA:          -8.787
REMARK INTER:                  -8.787
REMARK INTRA:                   0.000
REMARK UNBOUND:                 0.000
REMARK  Name = C=C1C(=O)O[C@@H]2C[C@]3(C)CCC[C@H](C)[C@]34O[C@H]4[C@H]12            ZINC001857795302
REMARK  2 active torsions:
REMARK  status: ('A' for Active; 'I' for Inactive)
REMARK    1  A    between atoms: C_8  and  C_9
REMARK    2  A    between atoms: C_13  and  C_14
REMARK                            x       y       z     vdW  Elec       q    Type
REMARK                         _______ _______ _______ _____ _____    ______ ____
ROOT
ATOM      1  C   UNL     1       2.615   2.066 -24.483  0.00  0.00    +0.020 C 
ATOM      2  C   UNL     1       1.945   1.894 -23.381  0.00  0.00    +0.039 C 
ATOM      3  C   UNL     1       2.418   1.425 -22.265  0.00  0.00    +0.335 C 
ATOM      4  O   UNL     1       1.451   1.402 -21.397  0.00  0.00    -0.457 OA
ATOM      5  C   UNL     1       0.380   1.857 -21.977  0.00  0.00    +0.188 C 
ATOM      6  C   UNL     1      -0.834   2.034 -21.548  0.00  0.00    +0.055 C 
ATOM      7  C   UNL     1      -1.743   2.515 -22.344  0.00  0.00    +0.003 C 
ATOM      8  C   UNL     1      -2.957   2.692 -21.913  0.00  0.00    +0.010 C 
ATOM      9  C   UNL     1      -3.864   3.172 -22.709  0.00  0.00    +0.001 C 
ATOM     10  C   UNL     1      -3.559   3.477 -23.936  0.00  0.00    +0.006 C 
ATOM     11  C   UNL     1      -2.345   3.300 -24.366  0.00  0.00    +0.021 C 
ATOM     12  C   UNL     1      -2.039   3.604 -25.592  0.00  0.00    +0.010 C 
ATOM     13  C   UNL     1      -2.048   2.211 -21.117  0.00  0.00    +0.014 C 
ATOM     14  C   UNL     1      -1.437   2.819 -23.570  0.00  0.00    +0.105 C 
ATOM     15  O   UNL     1      -1.131   3.123 -24.796  0.00  0.00    -0.363 OA
ATOM     16  C   UNL     1      -0.223   2.643 -24.000  0.00  0.00    +0.163 C 
ATOM     17  O   UNL     1       3.642   1.045 -22.054  0.00  0.00    -0.245 OA
ATOM     18  C   UNL     1       0.686   2.161 -23.203  0.00  0.00    +0.098 C 
ENDROOT
TORSDOF 0
ENDMDL
MODEL 5
REMARK VINA RESULT:    -8.623      2.168      3.356
REMARK INTER + INTRA:          -8.623
REMARK INTER:                  -8.623
REMARK INTRA:                   0.000
REMARK UNBOUND:                 0.000
REMARK  Name = C=C1C(=O)O[C@@H]2C[C@]3(C)CCC[C@H](C)[C@]34O[C@H]4[C@H]12            ZINC001857795302
REMARK  2 active torsions:
REMARK  status: ('A' for Active; 'I' for Inactive)
REMARK    1  A    between atoms: C_8  and  C_9
REMARK    2  A    between atoms: C_13  and  C_14
REMARK                            x       y       z     vdW  Elec       q    Type
REMARK                         _______ _______ _______ _____ _____    ______ ____
ROOT
ATOM      1  C   UNL     1       4.302   3.081 -23.137  0.00  0.00    +0.020 C 
ATOM      2  C   UNL     1       3.483   2.244 -22.573  0.00  0.00    +0.039 C 
ATOM      3  C   UNL     1       3.806   1.111 -22.024  0.00  0.00    +0.335 C 
ATOM      4  O   UNL     1       2.720   0.560 -21.570  0.00  0.00    -0.457 OA
ATOM      5  C   UNL     1       1.725   1.352 -21.839  0.00  0.00    +0.188 C 
ATOM      6  C   UNL     1       0.451   1.260 -21.601  0.00  0.00    +0.055 C 
ATOM      7  C   UNL     1      -0.353   2.209 -21.981  0.00  0.00    +0.003 C 
ATOM      8  C   UNL     1      -1.627   2.117 -21.742  0.00  0.00    +0.010 C 
ATOM      9  C   UNL     1      -2.430   3.065 -22.122  0.00  0.00    +0.001 C 
ATOM     10  C   UNL     1      -1.959   4.106 -22.742  0.00  0.00    +0.006 C 
ATOM     11  C   UNL     1      -0.685   4.199 -22.981  0.00  0.00    +0.021 C 
ATOM     12  C   UNL     1      -0.213   5.240 -23.601  0.00  0.00    +0.010 C 
ATOM     13  C   UNL     1      -0.824   1.168 -21.361  0.00  0.00    +0.014 C 
ATOM     14  C   UNL     1       0.119   3.250 -22.601  0.00  0.00    +0.105 C 
ATOM     15  O   UNL     1       0.591   4.291 -23.220  0.00  0.00    -0.363 OA
ATOM     16  C   UNL     1       1.393   3.342 -22.840  0.00  0.00    +0.163 C 
ATOM     17  O   UNL     1       5.005   0.616 -21.942  0.00  0.00    -0.245 OA
ATOM     18  C   UNL     1       2.196   2.393 -22.459  0.00  0.00    +0.098 C 
ENDROOT
TORSDOF 0
ENDMDL
MODEL 6
REMARK VINA RESULT:    -8.288      2.231      4.478
REMARK INTER + INTRA:          -8.288
REMARK INTER:                  -8.288
REMARK INTRA:                   0.000
REMARK UNBOUND:                 0.000
REMARK  Name = C=C1C(=O)O[C@@H]2C[C@]3(C)CCC[C@H](C)[C@]34O[C@H]4[C@H]12            ZINC001857795302
REMARK  2 active torsions:
REMARK  status: ('A' for Active; 'I' for Inactive)
REMARK    1  A    between atoms: C_8  and  C_9
REMARK    2  A    between atoms: C_13  and  C_14
REMARK                            x       y       z     vdW  Elec       q    Type
REMARK                         _______ _______ _______ _____ _____    ______ ____
ROOT
ATOM      1  C   UNL     1       3.579   1.492 -21.005  0.00  0.00    +0.020 C 
ATOM      2  C   UNL     1       3.529   2.129 -22.138  0.00  0.00    +0.039 C 
ATOM      3  C   UNL     1       4.550   2.544 -22.827  0.00  0.00    +0.335 C 
ATOM      4  O   UNL     1       4.101   3.134 -23.894  0.00  0.00    -0.457 OA
ATOM      5  C   UNL     1       2.802   3.085 -23.865  0.00  0.00    +0.188 C 
ATOM      6  C   UNL     1       1.896   3.524 -24.686  0.00  0.00    +0.055 C 
ATOM      7  C   UNL     1       0.636   3.343 -24.422  0.00  0.00    +0.003 C 
ATOM      8  C   UNL     1      -0.271   3.783 -25.244  0.00  0.00    +0.010 C 
ATOM      9  C   UNL     1      -1.530   3.602 -24.980  0.00  0.00    +0.001 C 
ATOM     10  C   UNL     1      -1.884   2.981 -23.894  0.00  0.00    +0.006 C 
ATOM     11  C   UNL     1      -0.978   2.540 -23.072  0.00  0.00    +0.021 C 
ATOM     12  C   UNL     1      -1.331   1.919 -21.987  0.00  0.00    +0.010 C 
ATOM     13  C   UNL     1       0.990   3.964 -25.507  0.00  0.00    +0.014 C 
ATOM     14  C   UNL     1       0.282   2.722 -23.336  0.00  0.00    +0.105 C 
ATOM     15  O   UNL     1      -0.071   2.100 -22.250  0.00  0.00    -0.363 OA
ATOM     16  C   UNL     1       1.188   2.281 -22.514  0.00  0.00    +0.163 C 
ATOM     17  O   UNL     1       5.800   2.395 -22.506  0.00  0.00    -0.245 OA
ATOM     18  C   UNL     1       2.449   2.463 -22.779  0.00  0.00    +0.098 C 
ENDROOT
TORSDOF 0
ENDMDL
MODEL 7
REMARK VINA RESULT:    -8.042      2.808      6.399
REMARK INTER + INTRA:          -8.042
REMARK INTER:                  -8.042
REMARK INTRA:                   0.000
REMARK UNBOUND:                 0.000
REMARK  Name = C=C1C(=O)O[C@@H]2C[C@]3(C)CCC[C@H](C)[C@]34O[C@H]4[C@H]12            ZINC001857795302
REMARK  2 active torsions:
REMARK  status: ('A' for Active; 'I' for Inactive)
REMARK    1  A    between atoms: C_8  and  C_9
REMARK    2  A    between atoms: C_13  and  C_14
REMARK                            x       y       z     vdW  Elec       q    Type
REMARK                         _______ _______ _______ _____ _____    ______ ____
ROOT
ATOM      1  C   UNL     1      -0.515   4.710 -23.506  0.00  0.00    +0.020 C 
ATOM      2  C   UNL     1      -0.192   3.497 -23.168  0.00  0.00    +0.039 C 
ATOM      3  C   UNL     1      -1.017   2.509 -22.988  0.00  0.00    +0.335 C 
ATOM      4  O   UNL     1      -0.323   1.461 -22.659  0.00  0.00    -0.457 OA
ATOM      5  C   UNL     1       0.932   1.801 -22.634  0.00  0.00    +0.188 C 
ATOM      6  C   UNL     1       2.011   1.129 -22.367  0.00  0.00    +0.055 C 
ATOM      7  C   UNL     1       3.171   1.714 -22.413  0.00  0.00    +0.003 C 
ATOM      8  C   UNL     1       4.251   1.040 -22.145  0.00  0.00    +0.010 C 
ATOM      9  C   UNL     1       5.410   1.626 -22.192  0.00  0.00    +0.001 C 
ATOM     10  C   UNL     1       5.491   2.884 -22.507  0.00  0.00    +0.006 C 
ATOM     11  C   UNL     1       4.412   3.558 -22.775  0.00  0.00    +0.021 C 
ATOM     12  C   UNL     1       4.492   4.817 -23.089  0.00  0.00    +0.010 C 
ATOM     13  C   UNL     1       3.090   0.455 -22.099  0.00  0.00    +0.014 C 
ATOM     14  C   UNL     1       3.251   2.973 -22.728  0.00  0.00    +0.105 C 
ATOM     15  O   UNL     1       3.331   4.231 -23.043  0.00  0.00    -0.363 OA
ATOM     16  C   UNL     1       2.172   3.646 -22.996  0.00  0.00    +0.163 C 
ATOM     17  O   UNL     1      -2.309   2.559 -23.116  0.00  0.00    -0.245 OA
ATOM     18  C   UNL     1       1.012   3.060 -22.949  0.00  0.00    +0.098 C 
ENDROOT
TORSDOF 0
ENDMDL
MODEL 8
REMARK VINA RESULT:    -8.042      1.977      5.250
REMARK INTER + INTRA:          -8.042
REMARK INTER:                  -8.042
REMARK INTRA:                   0.000
REMARK UNBOUND:                 0.000
REMARK  Name = C=C1C(=O)O[C@@H]2C[C@]3(C)CCC[C@H](C)[C@]34O[C@H]4[C@H]12            ZINC001857795302
REMARK  2 active torsions:
REMARK  status: ('A' for Active; 'I' for Inactive)
REMARK    1  A    between atoms: C_8  and  C_9
REMARK    2  A    between atoms: C_13  and  C_14
REMARK                            x       y       z     vdW  Elec       q    Type
REMARK                         _______ _______ _______ _____ _____    ______ ____
ROOT
ATOM      1  C   UNL     1      -1.280   3.599 -25.751  0.00  0.00    +0.020 C 
ATOM      2  C   UNL     1      -1.436   3.159 -24.537  0.00  0.00    +0.039 C 
ATOM      3  C   UNL     1      -2.566   3.033 -23.909  0.00  0.00    +0.335 C 
ATOM      4  O   UNL     1      -2.317   2.563 -22.723  0.00  0.00    -0.457 OA
ATOM      5  C   UNL     1      -1.031   2.399 -22.618  0.00  0.00    +0.188 C 
ATOM      6  C   UNL     1      -0.286   1.961 -21.647  0.00  0.00    +0.055 C 
ATOM      7  C   UNL     1       1.003   1.892 -21.797  0.00  0.00    +0.003 C 
ATOM      8  C   UNL     1       1.748   1.455 -20.825  0.00  0.00    +0.010 C 
ATOM      9  C   UNL     1       3.037   1.386 -20.975  0.00  0.00    +0.001 C 
ATOM     10  C   UNL     1       3.582   1.754 -22.096  0.00  0.00    +0.006 C 
ATOM     11  C   UNL     1       2.838   2.191 -23.068  0.00  0.00    +0.021 C 
ATOM     12  C   UNL     1       3.382   2.560 -24.189  0.00  0.00    +0.010 C 
ATOM     13  C   UNL     1       0.458   1.524 -20.675  0.00  0.00    +0.014 C 
ATOM     14  C   UNL     1       1.548   2.260 -22.918  0.00  0.00    +0.105 C 
ATOM     15  O   UNL     1       2.092   2.629 -24.040  0.00  0.00    -0.363 OA
ATOM     16  C   UNL     1       0.803   2.698 -23.890  0.00  0.00    +0.163 C 
ATOM     17  O   UNL     1      -3.740   3.325 -24.383  0.00  0.00    -0.245 OA
ATOM     18  C   UNL     1      -0.487   2.767 -23.740  0.00  0.00    +0.098 C 
ENDROOT
TORSDOF 0
ENDMDL
