MODEL 1
REMARK VINA RESULT:    -9.965      0.000      0.000
REMARK INTER + INTRA:         -13.619
REMARK INTER:                 -12.723
REMARK INTRA:                  -0.896
REMARK UNBOUND:                -0.451
REMARK  Name = ZINC000004257489
REMARK  7 active torsions:
REMARK  status: ('A' for Active; 'I' for Inactive)
REMARK    1  A    between atoms: O5*_1  and  C5*_2
REMARK    2  A    between atoms: C5*_2  and  C4*_3
REMARK    3  A    between atoms: C1*_5  and  N_6
REMARK    4  A    between atoms: N_11  and  C_12
REMARK    5  A    between atoms: C_12  and  C_13
REMARK    6  A    between atoms: C2*_23  and  O2*_24
REMARK    7  A    between atoms: C3*_25  and  O3*_26
REMARK                            x       y       z     vdW  Elec       q    Type
REMARK                         _______ _______ _______ _____ _____    ______ ____
ROOT
ATOM      1  N   UNL     1       3.209   2.383 -23.045  0.00  0.00    -0.286 N 
ATOM      2  C   UNL     1       2.713   1.182 -23.052  0.00  0.00    +0.203 A 
ATOM      3  N   UNL     1       1.440   1.274 -23.300  0.00  0.00    -0.231 NA
ATOM      4  C   UNL     1       1.150   2.532 -23.447  0.00  0.00    +0.147 A 
ATOM      5  C   UNL     1       0.031   3.143 -23.703  0.00  0.00    +0.150 A 
ATOM      6  N   UNL     1       0.005   4.439 -23.802  0.00  0.00    -0.219 NA
ATOM      7  C   UNL     1       1.098   5.125 -23.645  0.00  0.00    +0.225 A 
ATOM      8  N   UNL     1       2.217   4.514 -23.388  0.00  0.00    -0.216 NA
ATOM      9  N   UNL     1      -1.063   2.458 -23.861  0.00  0.00    -0.323 N 
ATOM     10  H   UNL     1      -1.043   1.475 -23.785  0.00  0.00    +0.148 HD
ATOM     11  C   UNL     1       2.243   3.218 -23.289  0.00  0.00    +0.167 A 
ENDROOT
BRANCH   1  14
ATOM     12  C4* UNL     1       6.460   3.243 -23.145  0.00  0.00    +0.177 C 
ATOM     13  O4* UNL     1       5.334   2.986 -23.743  0.00  0.00    -0.346 OA
ATOM     14  C1* UNL     1       4.453   2.696 -22.832  0.00  0.00    +0.253 C 
ATOM     15  C2* UNL     1       5.034   2.774 -21.672  0.00  0.00    +0.195 C 
ATOM     16  C3* UNL     1       6.275   3.112 -21.865  0.00  0.00    +0.178 C 
BRANCH  15  17
ATOM     17  O2* UNL     1       4.473   2.552 -20.520  0.00  0.00    -0.385 OA
ATOM     18  H2* UNL     1       5.149   2.294 -19.876  0.00  0.00    +0.210 HD
ENDBRANCH  15  17
BRANCH  16  19
ATOM     19  O3* UNL     1       7.171   3.288 -20.941  0.00  0.00    -0.386 OA
ATOM     20  H3* UNL     1       7.690   4.082 -21.142  0.00  0.00    +0.210 HD
ENDBRANCH  16  19
BRANCH  12  21
ATOM     21  C5* UNL     1       7.575   3.573 -23.726  0.00  0.00    +0.190 C 
BRANCH  21  22
ATOM     22  O5* UNL     1       8.642   2.854 -23.540  0.00  0.00    -0.392 OA
ATOM     23  H5* UNL     1       9.217   2.922 -24.318  0.00  0.00    +0.210 HD
ENDBRANCH  21  22
ENDBRANCH  12  21
ENDBRANCH   1  14
BRANCH   9  24
ATOM     24  C   UNL     1      -2.181   3.068 -24.117  0.00  0.00    +0.138 C 
BRANCH  24  25
ATOM     25  C   UNL     1      -3.145   3.052 -23.245  0.00  0.00    -0.030 A 
ATOM     26  C   UNL     1      -4.310   3.539 -23.554  0.00  0.00    +0.005 A 
ATOM     27  C   UNL     1      -5.273   3.524 -22.682  0.00  0.00    +0.000 A 
ATOM     28  C   UNL     1      -5.072   3.022 -21.500  0.00  0.00    +0.000 A 
ATOM     29  C   UNL     1      -3.907   2.534 -21.190  0.00  0.00    +0.000 A 
ATOM     30  C   UNL     1      -2.943   2.550 -22.062  0.00  0.00    +0.005 A 
ENDBRANCH  24  25
ENDBRANCH   9  24
TORSDOF 7
ENDMDL
MODEL 2
REMARK VINA RESULT:    -9.673      1.268      2.488
REMARK INTER + INTRA:         -13.233
REMARK INTER:                 -12.572
REMARK INTRA:                  -0.662
REMARK UNBOUND:                -0.451
REMARK  Name = ZINC000004257489
REMARK  7 active torsions:
REMARK  status: ('A' for Active; 'I' for Inactive)
REMARK    1  A    between atoms: O5*_1  and  C5*_2
REMARK    2  A    between atoms: C5*_2  and  C4*_3
REMARK    3  A    between atoms: C1*_5  and  N_6
REMARK    4  A    between atoms: N_11  and  C_12
REMARK    5  A    between atoms: C_12  and  C_13
REMARK    6  A    between atoms: C2*_23  and  O2*_24
REMARK    7  A    between atoms: C3*_25  and  O3*_26
REMARK                            x       y       z     vdW  Elec       q    Type
REMARK                         _______ _______ _______ _____ _____    ______ ____
ROOT
ATOM      1  N   UNL     1       3.325   4.030 -22.885  0.00  0.00    -0.286 N 
ATOM      2  C   UNL     1       2.684   5.092 -23.271  0.00  0.00    +0.203 A 
ATOM      3  N   UNL     1       1.413   4.814 -23.280  0.00  0.00    -0.231 NA
ATOM      4  C   UNL     1       1.270   3.579 -22.899  0.00  0.00    +0.147 A 
ATOM      5  C   UNL     1       0.217   2.833 -22.742  0.00  0.00    +0.150 A 
ATOM      6  N   UNL     1       0.345   1.603 -22.341  0.00  0.00    -0.219 NA
ATOM      7  C   UNL     1       1.527   1.118 -22.097  0.00  0.00    +0.225 A 
ATOM      8  N   UNL     1       2.580   1.865 -22.254  0.00  0.00    -0.216 NA
ATOM      9  N   UNL     1      -0.965   3.317 -22.986  0.00  0.00    -0.323 N 
ATOM     10  H   UNL     1      -1.061   4.249 -23.290  0.00  0.00    +0.148 HD
ATOM     11  C   UNL     1       2.452   3.095 -22.654  0.00  0.00    +0.167 A 
ENDROOT
BRANCH   1  14
ATOM     12  C4* UNL     1       6.587   4.211 -22.084  0.00  0.00    +0.177 C 
ATOM     13  O4* UNL     1       5.356   4.596 -21.925  0.00  0.00    -0.346 OA
ATOM     14  C1* UNL     1       4.613   3.921 -22.752  0.00  0.00    +0.253 C 
ATOM     15  C2* UNL     1       5.386   3.119 -23.422  0.00  0.00    +0.195 C 
ATOM     16  C3* UNL     1       6.607   3.298 -23.009  0.00  0.00    +0.178 C 
BRANCH  15  17
ATOM     17  O2* UNL     1       5.006   2.284 -24.343  0.00  0.00    -0.385 OA
ATOM     18  H2* UNL     1       4.713   1.457 -23.929  0.00  0.00    +0.210 HD
ENDBRANCH  15  17
BRANCH  16  19
ATOM     19  O3* UNL     1       7.659   2.673 -23.445  0.00  0.00    -0.386 OA
ATOM     20  H3* UNL     1       7.627   1.747 -23.157  0.00  0.00    +0.210 HD
ENDBRANCH  16  19
BRANCH  12  21
ATOM     21  C5* UNL     1       7.618   4.660 -21.432  0.00  0.00    +0.190 C 
BRANCH  21  22
ATOM     22  O5* UNL     1       7.696   4.494 -20.145  0.00  0.00    -0.392 OA
ATOM     23  H5* UNL     1       8.400   3.857 -19.944  0.00  0.00    +0.210 HD
ENDBRANCH  21  22
ENDBRANCH  12  21
ENDBRANCH   1  14
BRANCH   9  24
ATOM     24  C   UNL     1      -2.018   2.572 -22.830  0.00  0.00    +0.138 C 
BRANCH  24  25
ATOM     25  C   UNL     1      -3.193   3.033 -23.141  0.00  0.00    -0.030 A 
ATOM     26  C   UNL     1      -4.152   3.011 -22.264  0.00  0.00    +0.005 A 
ATOM     27  C   UNL     1      -5.327   3.473 -22.575  0.00  0.00    +0.000 A 
ATOM     28  C   UNL     1      -5.543   3.955 -23.763  0.00  0.00    +0.000 A 
ATOM     29  C   UNL     1      -4.583   3.977 -24.640  0.00  0.00    +0.000 A 
ATOM     30  C   UNL     1      -3.408   3.516 -24.329  0.00  0.00    +0.005 A 
ENDBRANCH  24  25
ENDBRANCH   9  24
TORSDOF 7
ENDMDL
MODEL 3
REMARK VINA RESULT:    -9.593      0.927      1.901
REMARK INTER + INTRA:         -13.128
REMARK INTER:                 -12.423
REMARK INTRA:                  -0.704
REMARK UNBOUND:                -0.451
REMARK  Name = ZINC000004257489
REMARK  7 active torsions:
REMARK  status: ('A' for Active; 'I' for Inactive)
REMARK    1  A    between atoms: O5*_1  and  C5*_2
REMARK    2  A    between atoms: C5*_2  and  C4*_3
REMARK    3  A    between atoms: C1*_5  and  N_6
REMARK    4  A    between atoms: N_11  and  C_12
REMARK    5  A    between atoms: C_12  and  C_13
REMARK    6  A    between atoms: C2*_23  and  O2*_24
REMARK    7  A    between atoms: C3*_25  and  O3*_26
REMARK                            x       y       z     vdW  Elec       q    Type
REMARK                         _______ _______ _______ _____ _____    ______ ____
ROOT
ATOM      1  N   UNL     1       3.054   2.586 -22.435  0.00  0.00    -0.286 N 
ATOM      2  C   UNL     1       2.442   1.713 -21.693  0.00  0.00    +0.203 A 
ATOM      3  N   UNL     1       1.182   1.723 -22.015  0.00  0.00    -0.231 NA
ATOM      4  C   UNL     1       1.016   2.604 -22.957  0.00  0.00    +0.147 A 
ATOM      5  C   UNL     1      -0.039   2.989 -23.613  0.00  0.00    +0.150 A 
ATOM      6  N   UNL     1       0.063   3.907 -24.527  0.00  0.00    -0.219 NA
ATOM      7  C   UNL     1       1.220   4.441 -24.787  0.00  0.00    +0.225 A 
ATOM      8  N   UNL     1       2.275   4.055 -24.131  0.00  0.00    -0.216 NA
ATOM      9  N   UNL     1      -1.195   2.455 -23.353  0.00  0.00    -0.323 N 
ATOM     10  H   UNL     1      -1.272   1.760 -22.660  0.00  0.00    +0.148 HD
ATOM     11  C   UNL     1       2.173   3.137 -23.217  0.00  0.00    +0.167 A 
ENDROOT
BRANCH   1  14
ATOM     12  C4* UNL     1       6.214   3.510 -21.744  0.00  0.00    +0.177 C 
ATOM     13  O4* UNL     1       4.966   3.386 -21.401  0.00  0.00    -0.346 OA
ATOM     14  C1* UNL     1       4.324   2.862 -22.402  0.00  0.00    +0.253 C 
ATOM     15  C2* UNL     1       5.175   2.661 -23.364  0.00  0.00    +0.195 C 
ATOM     16  C3* UNL     1       6.344   3.061 -22.958  0.00  0.00    +0.178 C 
BRANCH  15  17
ATOM     17  O2* UNL     1       4.905   2.149 -24.528  0.00  0.00    -0.385 OA
ATOM     18  H2* UNL     1       5.544   1.447 -24.729  0.00  0.00    +0.210 HD
ENDBRANCH  15  17
BRANCH  16  19
ATOM     19  O3* UNL     1       7.446   3.020 -23.644  0.00  0.00    -0.386 OA
ATOM     20  H3* UNL     1       7.247   3.161 -24.583  0.00  0.00    +0.210 HD
ENDBRANCH  16  19
BRANCH  12  21
ATOM     21  C5* UNL     1       7.165   3.996 -21.004  0.00  0.00    +0.190 C 
BRANCH  21  22
ATOM     22  O5* UNL     1       6.878   4.782 -20.010  0.00  0.00    -0.392 OA
ATOM     23  H5* UNL     1       7.339   5.628 -20.123  0.00  0.00    +0.210 HD
ENDBRANCH  21  22
ENDBRANCH  12  21
ENDBRANCH   1  14
BRANCH   9  24
ATOM     24  C   UNL     1      -2.250   2.840 -24.008  0.00  0.00    +0.138 C 
BRANCH  24  25
ATOM     25  C   UNL     1      -3.375   3.018 -23.382  0.00  0.00    -0.030 A 
ATOM     26  C   UNL     1      -3.498   2.637 -22.145  0.00  0.00    +0.005 A 
ATOM     27  C   UNL     1      -4.623   2.815 -21.518  0.00  0.00    +0.000 A 
ATOM     28  C   UNL     1      -5.626   3.373 -22.129  0.00  0.00    +0.000 A 
ATOM     29  C   UNL     1      -5.504   3.754 -23.366  0.00  0.00    +0.000 A 
ATOM     30  C   UNL     1      -4.378   3.577 -23.993  0.00  0.00    +0.005 A 
ENDBRANCH  24  25
ENDBRANCH   9  24
TORSDOF 7
ENDMDL
MODEL 4
REMARK VINA RESULT:    -8.974      1.281      2.366
REMARK INTER + INTRA:         -12.311
REMARK INTER:                 -11.629
REMARK INTRA:                  -0.682
REMARK UNBOUND:                -0.451
REMARK  Name = ZINC000004257489
REMARK  7 active torsions:
REMARK  status: ('A' for Active; 'I' for Inactive)
REMARK    1  A    between atoms: O5*_1  and  C5*_2
REMARK    2  A    between atoms: C5*_2  and  C4*_3
REMARK    3  A    between atoms: C1*_5  and  N_6
REMARK    4  A    between atoms: N_11  and  C_12
REMARK    5  A    between atoms: C_12  and  C_13
REMARK    6  A    between atoms: C2*_23  and  O2*_24
REMARK    7  A    between atoms: C3*_25  and  O3*_26
REMARK                            x       y       z     vdW  Elec       q    Type
REMARK                         _______ _______ _______ _____ _____    ______ ____
ROOT
ATOM      1  N   UNL     1       4.273   3.900 -23.126  0.00  0.00    -0.286 N 
ATOM      2  C   UNL     1       3.537   4.966 -23.233  0.00  0.00    +0.203 A 
ATOM      3  N   UNL     1       2.291   4.606 -23.147  0.00  0.00    -0.231 NA
ATOM      4  C   UNL     1       2.256   3.316 -22.986  0.00  0.00    +0.147 A 
ATOM      5  C   UNL     1       1.268   2.482 -22.849  0.00  0.00    +0.150 A 
ATOM      6  N   UNL     1       1.505   1.213 -22.700  0.00  0.00    -0.219 NA
ATOM      7  C   UNL     1       2.729   0.776 -22.687  0.00  0.00    +0.225 A 
ATOM      8  N   UNL     1       3.718   1.611 -22.824  0.00  0.00    -0.216 NA
ATOM      9  N   UNL     1       0.044   2.918 -22.862  0.00  0.00    -0.323 N 
ATOM     10  H   UNL     1      -0.135   3.880 -22.975  0.00  0.00    +0.148 HD
ATOM     11  C   UNL     1       3.481   2.880 -22.973  0.00  0.00    +0.167 A 
ENDROOT
BRANCH   1  14
ATOM     12  C4* UNL     1       7.543   3.475 -23.790  0.00  0.00    +0.177 C 
ATOM     13  O4* UNL     1       6.291   3.315 -24.101  0.00  0.00    -0.346 OA
ATOM     14  C1* UNL     1       5.571   3.860 -23.165  0.00  0.00    +0.253 C 
ATOM     15  C2* UNL     1       6.378   4.357 -22.276  0.00  0.00    +0.195 C 
ATOM     16  C3* UNL     1       7.598   4.119 -22.662  0.00  0.00    +0.178 C 
BRANCH  15  17
ATOM     17  O2* UNL     1       6.029   4.982 -21.191  0.00  0.00    -0.385 OA
ATOM     18  H2* UNL     1       5.294   5.584 -21.387  0.00  0.00    +0.210 HD
ENDBRANCH  15  17
BRANCH  16  19
ATOM     19  O3* UNL     1       8.680   4.465 -22.030  0.00  0.00    -0.386 OA
ATOM     20  H3* UNL     1       8.527   4.407 -21.074  0.00  0.00    +0.210 HD
ENDBRANCH  16  19
BRANCH  12  21
ATOM     21  C5* UNL     1       8.561   3.064 -24.484  0.00  0.00    +0.190 C 
BRANCH  21  22
ATOM     22  O5* UNL     1       9.062   1.884 -24.267  0.00  0.00    -0.392 OA
ATOM     23  H5* UNL     1      10.030   1.932 -24.307  0.00  0.00    +0.210 HD
ENDBRANCH  21  22
ENDBRANCH  12  21
ENDBRANCH   1  14
BRANCH   9  24
ATOM     24  C   UNL     1      -0.945   2.085 -22.725  0.00  0.00    +0.138 C 
BRANCH  24  25
ATOM     25  C   UNL     1      -2.145   2.531 -22.500  0.00  0.00    -0.030 A 
ATOM     26  C   UNL     1      -2.626   2.522 -21.293  0.00  0.00    +0.005 A 
ATOM     27  C   UNL     1      -3.826   2.968 -21.068  0.00  0.00    +0.000 A 
ATOM     28  C   UNL     1      -4.545   3.423 -22.050  0.00  0.00    +0.000 A 
ATOM     29  C   UNL     1      -4.064   3.433 -23.258  0.00  0.00    +0.000 A 
ATOM     30  C   UNL     1      -2.864   2.987 -23.483  0.00  0.00    +0.005 A 
ENDBRANCH  24  25
ENDBRANCH   9  24
TORSDOF 7
ENDMDL
MODEL 5
REMARK VINA RESULT:    -8.260      1.665      2.376
REMARK INTER + INTRA:         -11.367
REMARK INTER:                 -11.578
REMARK INTRA:                   0.211
REMARK UNBOUND:                -0.451
REMARK  Name = ZINC000004257489
REMARK  7 active torsions:
REMARK  status: ('A' for Active; 'I' for Inactive)
REMARK    1  A    between atoms: O5*_1  and  C5*_2
REMARK    2  A    between atoms: C5*_2  and  C4*_3
REMARK    3  A    between atoms: C1*_5  and  N_6
REMARK    4  A    between atoms: N_11  and  C_12
REMARK    5  A    between atoms: C_12  and  C_13
REMARK    6  A    between atoms: C2*_23  and  O2*_24
REMARK    7  A    between atoms: C3*_25  and  O3*_26
REMARK                            x       y       z     vdW  Elec       q    Type
REMARK                         _______ _______ _______ _____ _____    ______ ____
ROOT
ATOM      1  N   UNL     1       3.465   4.806 -23.299  0.00  0.00    -0.286 N 
ATOM      2  C   UNL     1       2.745   5.820 -22.923  0.00  0.00    +0.203 A 
ATOM      3  N   UNL     1       1.518   5.604 -23.296  0.00  0.00    -0.231 NA
ATOM      4  C   UNL     1       1.481   4.455 -23.904  0.00  0.00    +0.147 A 
ATOM      5  C   UNL     1       0.506   3.794 -24.456  0.00  0.00    +0.150 A 
ATOM      6  N   UNL     1       0.735   2.641 -25.010  0.00  0.00    -0.219 NA
ATOM      7  C   UNL     1       1.938   2.147 -25.012  0.00  0.00    +0.225 A 
ATOM      8  N   UNL     1       2.912   2.808 -24.460  0.00  0.00    -0.216 NA
ATOM      9  N   UNL     1      -0.696   4.288 -24.454  0.00  0.00    -0.323 N 
ATOM     10  H   UNL     1      -0.869   5.162 -24.035  0.00  0.00    +0.148 HD
ATOM     11  C   UNL     1       2.683   3.962 -23.906  0.00  0.00    +0.167 A 
ENDROOT
BRANCH   1  14
ATOM     12  C4* UNL     1       6.677   3.835 -23.057  0.00  0.00    +0.177 C 
ATOM     13  O4* UNL     1       5.444   3.605 -23.399  0.00  0.00    -0.346 OA
ATOM     14  C1* UNL     1       4.742   4.659 -23.104  0.00  0.00    +0.253 C 
ATOM     15  C2* UNL     1       5.541   5.540 -22.581  0.00  0.00    +0.195 C 
ATOM     16  C3* UNL     1       6.737   5.031 -22.551  0.00  0.00    +0.178 C 
BRANCH  15  17
ATOM     17  O2* UNL     1       5.204   6.723 -22.160  0.00  0.00    -0.385 OA
ATOM     18  H2* UNL     1       5.860   7.372 -22.458  0.00  0.00    +0.210 HD
ENDBRANCH  15  17
BRANCH  16  19
ATOM     19  O3* UNL     1       7.805   5.616 -22.096  0.00  0.00    -0.386 OA
ATOM     20  H3* UNL     1       7.628   5.965 -21.209  0.00  0.00    +0.210 HD
ENDBRANCH  16  19
BRANCH  12  21
ATOM     21  C5* UNL     1       7.674   3.014 -23.197  0.00  0.00    +0.190 C 
BRANCH  21  22
ATOM     22  O5* UNL     1       7.491   1.736 -23.039  0.00  0.00    -0.392 OA
ATOM     23  H5* UNL     1       7.851   1.262 -23.805  0.00  0.00    +0.210 HD
ENDBRANCH  21  22
ENDBRANCH  12  21
ENDBRANCH   1  14
BRANCH   9  24
ATOM     24  C   UNL     1      -1.671   3.628 -25.006  0.00  0.00    +0.138 C 
BRANCH  24  25
ATOM     25  C   UNL     1      -2.858   3.659 -24.478  0.00  0.00    -0.030 A 
ATOM     26  C   UNL     1      -3.871   4.069 -25.181  0.00  0.00    +0.005 A 
ATOM     27  C   UNL     1      -5.059   4.101 -24.653  0.00  0.00    +0.000 A 
ATOM     28  C   UNL     1      -5.233   3.722 -23.422  0.00  0.00    +0.000 A 
ATOM     29  C   UNL     1      -4.220   3.312 -22.718  0.00  0.00    +0.000 A 
ATOM     30  C   UNL     1      -3.032   3.280 -23.246  0.00  0.00    +0.005 A 
ENDBRANCH  24  25
ENDBRANCH   9  24
TORSDOF 7
ENDMDL
MODEL 6
REMARK VINA RESULT:    -7.131      1.538      2.466
REMARK INTER + INTRA:          -9.874
REMARK INTER:                 -10.816
REMARK INTRA:                   0.942
REMARK UNBOUND:                -0.451
REMARK  Name = ZINC000004257489
REMARK  7 active torsions:
REMARK  status: ('A' for Active; 'I' for Inactive)
REMARK    1  A    between atoms: O5*_1  and  C5*_2
REMARK    2  A    between atoms: C5*_2  and  C4*_3
REMARK    3  A    between atoms: C1*_5  and  N_6
REMARK    4  A    between atoms: N_11  and  C_12
REMARK    5  A    between atoms: C_12  and  C_13
REMARK    6  A    between atoms: C2*_23  and  O2*_24
REMARK    7  A    between atoms: C3*_25  and  O3*_26
REMARK                            x       y       z     vdW  Elec       q    Type
REMARK                         _______ _______ _______ _____ _____    ______ ____
ROOT
ATOM      1  N   UNL     1       2.609   2.118 -23.894  0.00  0.00    -0.286 N 
ATOM      2  C   UNL     1       2.416   1.456 -24.995  0.00  0.00    +0.203 A 
ATOM      3  N   UNL     1       1.308   1.879 -25.530  0.00  0.00    -0.231 NA
ATOM      4  C   UNL     1       0.817   2.803 -24.759  0.00  0.00    +0.147 A 
ATOM      5  C   UNL     1      -0.258   3.530 -24.846  0.00  0.00    +0.150 A 
ATOM      6  N   UNL     1      -0.529   4.403 -23.923  0.00  0.00    -0.219 NA
ATOM      7  C   UNL     1       0.274   4.551 -22.912  0.00  0.00    +0.225 A 
ATOM      8  N   UNL     1       1.350   3.825 -22.824  0.00  0.00    -0.216 NA
ATOM      9  N   UNL     1      -1.061   3.382 -25.858  0.00  0.00    -0.323 N 
ATOM     10  H   UNL     1      -0.855   2.719 -26.557  0.00  0.00    +0.148 HD
ATOM     11  C   UNL     1       1.621   2.951 -23.747  0.00  0.00    +0.167 A 
ENDROOT
BRANCH   1  14
ATOM     12  C4* UNL     1       4.889   1.207 -21.594  0.00  0.00    +0.177 C 
ATOM     13  O4* UNL     1       3.768   1.009 -22.223  0.00  0.00    -0.346 OA
ATOM     14  C1* UNL     1       3.612   1.974 -23.081  0.00  0.00    +0.253 C 
ATOM     15  C2* UNL     1       4.636   2.768 -22.982  0.00  0.00    +0.195 C 
ATOM     16  C3* UNL     1       5.426   2.294 -22.063  0.00  0.00    +0.178 C 
BRANCH  15  17
ATOM     17  O2* UNL     1       4.837   3.847 -23.679  0.00  0.00    -0.385 OA
ATOM     18  H2* UNL     1       4.232   4.543 -23.379  0.00  0.00    +0.210 HD
ENDBRANCH  15  17
BRANCH  16  19
ATOM     19  O3* UNL     1       6.553   2.816 -21.681  0.00  0.00    -0.386 OA
ATOM     20  H3* UNL     1       6.380   3.516 -21.032  0.00  0.00    +0.210 HD
ENDBRANCH  16  19
BRANCH  12  21
ATOM     21  C5* UNL     1       5.385   0.451 -20.661  0.00  0.00    +0.190 C 
BRANCH  21  22
ATOM     22  O5* UNL     1       5.788   0.979 -19.543  0.00  0.00    -0.392 OA
ATOM     23  H5* UNL     1       5.280   0.604 -18.807  0.00  0.00    +0.210 HD
ENDBRANCH  21  22
ENDBRANCH  12  21
ENDBRANCH   1  14
BRANCH   9  24
ATOM     24  C   UNL     1      -2.136   4.107 -25.946  0.00  0.00    +0.138 C 
BRANCH  24  25
ATOM     25  C   UNL     1      -3.103   3.942 -25.094  0.00  0.00    -0.030 A 
ATOM     26  C   UNL     1      -2.975   3.088 -24.122  0.00  0.00    +0.005 A 
ATOM     27  C   UNL     1      -3.943   2.922 -23.270  0.00  0.00    +0.000 A 
ATOM     28  C   UNL     1      -5.039   3.611 -23.389  0.00  0.00    +0.000 A 
ATOM     29  C   UNL     1      -5.168   4.466 -24.361  0.00  0.00    +0.000 A 
ATOM     30  C   UNL     1      -4.200   4.631 -25.213  0.00  0.00    +0.005 A 
ENDBRANCH  24  25
ENDBRANCH   9  24
TORSDOF 7
ENDMDL
