MODEL 1
REMARK VINA RESULT:   -11.089      0.000      0.000
REMARK INTER + INTRA:         -11.737
REMARK INTER:                 -11.737
REMARK INTRA:                   0.000
REMARK UNBOUND:                 0.000
REMARK  Name = C[C@]12CC[C@@H]3c4cc(Br)c(O)cc4CC[C@H]3[C@H]1CC[C@@H]2O              ZINC000253393404
REMARK  3 active torsions:
REMARK  status: ('A' for Active; 'I' for Inactive)
REMARK    1  A    between atoms: C_1  and  C_2
REMARK    2  A    between atoms: C_10  and  O_11
REMARK    3  A    between atoms: C_20  and  O_21
REMARK                            x       y       z     vdW  Elec       q    Type
REMARK                         _______ _______ _______ _____ _____    ______ ____
ROOT
ATOM      1  C   UNL     1      -4.555   3.052 -21.820  0.00  0.00    +0.014 C 
ATOM      2  C   UNL     1      -3.830   3.303 -22.869  0.00  0.00    -0.003 C 
ATOM      3  C   UNL     1      -3.168   2.774 -21.884  0.00  0.00    +0.010 C 
ATOM      4  C   UNL     1      -1.894   2.543 -22.006  0.00  0.00    +0.009 C 
ATOM      5  C   UNL     1      -1.283   2.842 -23.114  0.00  0.00    +0.023 C 
ATOM      6  C   UNL     1      -0.010   2.612 -23.237  0.00  0.00    -0.040 A 
ATOM      7  C   UNL     1       0.653   2.083 -22.253  0.00  0.00    +0.023 A 
ATOM      8  C   UNL     1       1.927   1.852 -22.374  0.00  0.00    +0.060 A 
ATOM      9  C   UNL     1       2.537   2.151 -23.484  0.00  0.00    +0.131 A 
ATOM     10  C   UNL     1       1.875   2.681 -24.468  0.00  0.00    +0.050 A 
ATOM     11 BR   UNL     1       2.589   1.323 -21.390  0.00  0.00    -0.047 Br
ATOM     12  C   UNL     1       0.601   2.911 -24.345  0.00  0.00    -0.040 A 
ATOM     13  C   UNL     1      -0.062   3.440 -25.330  0.00  0.00    +0.036 C 
ATOM     14  C   UNL     1      -1.335   3.671 -25.208  0.00  0.00    +0.009 C 
ATOM     15  C   UNL     1      -1.946   3.372 -24.100  0.00  0.00    +0.000 C 
ATOM     16  C   UNL     1      -5.082   3.628 -23.000  0.00  0.00    +0.121 C 
ATOM     17  C   UNL     1      -5.245   4.127 -24.189  0.00  0.00    +0.032 C 
ATOM     18  C   UNL     1      -4.093   4.112 -24.793  0.00  0.00    +0.007 C 
ATOM     19  C   UNL     1      -3.219   3.602 -23.977  0.00  0.00    +0.001 C 
ENDROOT
BRANCH   9  20
ATOM     20  O   UNL     1       3.811   1.921 -23.605  0.00  0.00    -0.506 OA
ATOM     21  H   UNL     1       4.324   2.429 -24.202  0.00  0.00    +0.292 HD
ENDBRANCH   9  20
BRANCH  16  22
ATOM     22  O   UNL     1      -6.008   3.479 -22.101  0.00  0.00    -0.391 OA
ATOM     23  H   UNL     1      -6.878   3.623 -22.505  0.00  0.00    +0.210 HD
ENDBRANCH  16  22
TORSDOF 2
ENDMDL
MODEL 2
REMARK VINA RESULT:   -11.070      1.331      2.573
REMARK INTER + INTRA:         -11.717
REMARK INTER:                 -11.717
REMARK INTRA:                   0.000
REMARK UNBOUND:                 0.000
REMARK  Name = C[C@]12CC[C@@H]3c4cc(Br)c(O)cc4CC[C@H]3[C@H]1CC[C@@H]2O              ZINC000253393404
REMARK  3 active torsions:
REMARK  status: ('A' for Active; 'I' for Inactive)
REMARK    1  A    between atoms: C_1  and  C_2
REMARK    2  A    between atoms: C_10  and  O_11
REMARK    3  A    between atoms: C_20  and  O_21
REMARK                            x       y       z     vdW  Elec       q    Type
REMARK                         _______ _______ _______ _____ _____    ______ ____
ROOT
ATOM      1  C   UNL     1      -3.685   4.156 -25.505  0.00  0.00    +0.014 C 
ATOM      2  C   UNL     1      -3.423   3.657 -24.334  0.00  0.00    -0.003 C 
ATOM      3  C   UNL     1      -2.397   3.703 -25.129  0.00  0.00    +0.010 C 
ATOM      4  C   UNL     1      -1.239   3.270 -24.724  0.00  0.00    +0.009 C 
ATOM      5  C   UNL     1      -1.109   2.791 -23.523  0.00  0.00    +0.023 C 
ATOM      6  C   UNL     1       0.047   2.359 -23.117  0.00  0.00    -0.040 A 
ATOM      7  C   UNL     1       1.074   2.405 -23.912  0.00  0.00    +0.023 A 
ATOM      8  C   UNL     1       2.231   1.973 -23.507  0.00  0.00    +0.060 A 
ATOM      9  C   UNL     1       2.360   1.494 -22.304  0.00  0.00    +0.131 A 
ATOM     10  C   UNL     1       1.334   1.447 -21.509  0.00  0.00    +0.050 A 
ATOM     11 BR   UNL     1       3.258   2.019 -24.302  0.00  0.00    -0.047 Br
ATOM     12  C   UNL     1       0.177   1.880 -21.915  0.00  0.00    -0.040 A 
ATOM     13  C   UNL     1      -0.851   1.834 -21.120  0.00  0.00    +0.036 C 
ATOM     14  C   UNL     1      -2.007   2.266 -21.525  0.00  0.00    +0.009 C 
ATOM     15  C   UNL     1      -2.137   2.745 -22.726  0.00  0.00    +0.000 C 
ATOM     16  C   UNL     1      -4.662   4.017 -24.492  0.00  0.00    +0.121 C 
ATOM     17  C   UNL     1      -5.299   3.760 -23.387  0.00  0.00    +0.032 C 
ATOM     18  C   UNL     1      -4.452   3.242 -22.547  0.00  0.00    +0.007 C 
ATOM     19  C   UNL     1      -3.293   3.178 -23.132  0.00  0.00    +0.001 C 
ENDROOT
BRANCH   9  20
ATOM     20  O   UNL     1       3.518   1.061 -21.899  0.00  0.00    -0.506 OA
ATOM     21  H   UNL     1       4.296   1.301 -22.363  0.00  0.00    +0.292 HD
ENDBRANCH   9  20
BRANCH  16  22
ATOM     22  O   UNL     1      -5.176   4.541 -25.564  0.00  0.00    -0.391 OA
ATOM     23  H   UNL     1      -4.839   4.074 -26.346  0.00  0.00    +0.210 HD
ENDBRANCH  16  22
TORSDOF 2
ENDMDL
MODEL 3
REMARK VINA RESULT:   -10.543      1.884      5.901
REMARK INTER + INTRA:         -11.159
REMARK INTER:                 -11.159
REMARK INTRA:                   0.000
REMARK UNBOUND:                 0.000
REMARK  Name = C[C@]12CC[C@@H]3c4cc(Br)c(O)cc4CC[C@H]3[C@H]1CC[C@@H]2O              ZINC000253393404
REMARK  3 active torsions:
REMARK  status: ('A' for Active; 'I' for Inactive)
REMARK    1  A    between atoms: C_1  and  C_2
REMARK    2  A    between atoms: C_10  and  O_11
REMARK    3  A    between atoms: C_20  and  O_21
REMARK                            x       y       z     vdW  Elec       q    Type
REMARK                         _______ _______ _______ _____ _____    ______ ____
ROOT
ATOM      1  C   UNL     1       2.275   1.106 -21.662  0.00  0.00    +0.014 C 
ATOM      2  C   UNL     1       1.783   1.723 -22.696  0.00  0.00    -0.003 C 
ATOM      3  C   UNL     1       0.918   1.500 -21.753  0.00  0.00    +0.010 C 
ATOM      4  C   UNL     1      -0.315   1.887 -21.896  0.00  0.00    +0.009 C 
ATOM      5  C   UNL     1      -0.682   2.497 -22.984  0.00  0.00    +0.023 C 
ATOM      6  C   UNL     1      -1.915   2.884 -23.128  0.00  0.00    -0.040 A 
ATOM      7  C   UNL     1      -2.780   2.661 -22.185  0.00  0.00    +0.023 A 
ATOM      8  C   UNL     1      -4.013   3.048 -22.328  0.00  0.00    +0.060 A 
ATOM      9  C   UNL     1      -4.380   3.658 -23.417  0.00  0.00    +0.131 A 
ATOM     10  C   UNL     1      -3.514   3.881 -24.361  0.00  0.00    +0.050 A 
ATOM     11 BR   UNL     1      -4.879   2.825 -21.385  0.00  0.00    -0.047 Br
ATOM     12  C   UNL     1      -2.281   3.494 -24.216  0.00  0.00    -0.040 A 
ATOM     13  C   UNL     1      -1.415   3.717 -25.160  0.00  0.00    +0.036 C 
ATOM     14  C   UNL     1      -0.183   3.330 -25.016  0.00  0.00    +0.009 C 
ATOM     15  C   UNL     1       0.184   2.720 -23.928  0.00  0.00    +0.000 C 
ATOM     16  C   UNL     1       3.049   1.444 -22.798  0.00  0.00    +0.121 C 
ATOM     17  C   UNL     1       3.465   1.882 -23.950  0.00  0.00    +0.032 C 
ATOM     18  C   UNL     1       2.455   2.432 -24.559  0.00  0.00    +0.007 C 
ATOM     19  C   UNL     1       1.417   2.333 -23.784  0.00  0.00    +0.001 C 
ENDROOT
BRANCH   9  20
ATOM     20  O   UNL     1      -5.613   4.045 -23.561  0.00  0.00    -0.506 OA
ATOM     21  H   UNL     1      -6.314   3.448 -23.388  0.00  0.00    +0.292 HD
ENDBRANCH   9  20
BRANCH  16  22
ATOM     22  O   UNL     1       3.772   0.835 -21.907  0.00  0.00    -0.391 OA
ATOM     23  H   UNL     1       4.502   0.370 -22.345  0.00  0.00    +0.210 HD
ENDBRANCH  16  22
TORSDOF 2
ENDMDL
MODEL 4
REMARK VINA RESULT:   -10.484      1.996      6.411
REMARK INTER + INTRA:         -11.097
REMARK INTER:                 -11.097
REMARK INTRA:                   0.000
REMARK UNBOUND:                 0.000
REMARK  Name = C[C@]12CC[C@@H]3c4cc(Br)c(O)cc4CC[C@H]3[C@H]1CC[C@@H]2O              ZINC000253393404
REMARK  3 active torsions:
REMARK  status: ('A' for Active; 'I' for Inactive)
REMARK    1  A    between atoms: C_1  and  C_2
REMARK    2  A    between atoms: C_10  and  O_11
REMARK    3  A    between atoms: C_20  and  O_21
REMARK                            x       y       z     vdW  Elec       q    Type
REMARK                         _______ _______ _______ _____ _____    ______ ____
ROOT
ATOM      1  C   UNL     1       2.743   2.336 -24.766  0.00  0.00    +0.014 C 
ATOM      2  C   UNL     1       2.027   2.093 -23.709  0.00  0.00    -0.003 C 
ATOM      3  C   UNL     1       1.370   2.668 -24.671  0.00  0.00    +0.010 C 
ATOM      4  C   UNL     1       0.109   2.947 -24.522  0.00  0.00    +0.009 C 
ATOM      5  C   UNL     1      -0.495   2.650 -23.410  0.00  0.00    +0.023 C 
ATOM      6  C   UNL     1      -1.755   2.928 -23.259  0.00  0.00    -0.040 A 
ATOM      7  C   UNL     1      -2.413   3.504 -24.221  0.00  0.00    +0.023 A 
ATOM      8  C   UNL     1      -3.674   3.783 -24.072  0.00  0.00    +0.060 A 
ATOM      9  C   UNL     1      -4.277   3.485 -22.959  0.00  0.00    +0.131 A 
ATOM     10  C   UNL     1      -3.620   2.910 -21.996  0.00  0.00    +0.050 A 
ATOM     11 BR   UNL     1      -4.331   4.358 -25.035  0.00  0.00    -0.047 Br
ATOM     12  C   UNL     1      -2.359   2.632 -22.147  0.00  0.00    -0.040 A 
ATOM     13  C   UNL     1      -1.701   2.056 -21.184  0.00  0.00    +0.036 C 
ATOM     14  C   UNL     1      -0.440   1.778 -21.334  0.00  0.00    +0.009 C 
ATOM     15  C   UNL     1       0.163   2.074 -22.446  0.00  0.00    +0.000 C 
ATOM     16  C   UNL     1       3.267   1.716 -23.607  0.00  0.00    +0.121 C 
ATOM     17  C   UNL     1       3.430   1.186 -22.431  0.00  0.00    +0.032 C 
ATOM     18  C   UNL     1       2.291   1.235 -21.806  0.00  0.00    +0.007 C 
ATOM     19  C   UNL     1       1.424   1.796 -22.596  0.00  0.00    +0.001 C 
ENDROOT
BRANCH   9  20
ATOM     20  O   UNL     1      -5.538   3.764 -22.810  0.00  0.00    -0.506 OA
ATOM     21  H   UNL     1      -6.033   3.350 -22.130  0.00  0.00    +0.292 HD
ENDBRANCH   9  20
BRANCH  16  22
ATOM     22  O   UNL     1       4.183   1.846 -24.520  0.00  0.00    -0.391 OA
ATOM     23  H   UNL     1       4.670   2.672 -24.374  0.00  0.00    +0.210 HD
ENDBRANCH  16  22
TORSDOF 2
ENDMDL
MODEL 5
REMARK VINA RESULT:   -10.274      1.027      1.667
REMARK INTER + INTRA:         -10.874
REMARK INTER:                 -10.874
REMARK INTRA:                   0.000
REMARK UNBOUND:                 0.000
REMARK  Name = C[C@]12CC[C@@H]3c4cc(Br)c(O)cc4CC[C@H]3[C@H]1CC[C@@H]2O              ZINC000253393404
REMARK  3 active torsions:
REMARK  status: ('A' for Active; 'I' for Inactive)
REMARK    1  A    between atoms: C_1  and  C_2
REMARK    2  A    between atoms: C_10  and  O_11
REMARK    3  A    between atoms: C_20  and  O_21
REMARK                            x       y       z     vdW  Elec       q    Type
REMARK                         _______ _______ _______ _____ _____    ______ ____
ROOT
ATOM      1  C   UNL     1      -3.144   2.632 -21.794  0.00  0.00    +0.014 C 
ATOM      2  C   UNL     1      -2.324   2.868 -22.775  0.00  0.00    -0.003 C 
ATOM      3  C   UNL     1      -1.777   2.264 -21.763  0.00  0.00    +0.010 C 
ATOM      4  C   UNL     1      -0.515   1.951 -21.795  0.00  0.00    +0.009 C 
ATOM      5  C   UNL     1       0.199   2.244 -22.841  0.00  0.00    +0.023 C 
ATOM      6  C   UNL     1       1.461   1.932 -22.874  0.00  0.00    -0.040 A 
ATOM      7  C   UNL     1       2.008   1.328 -21.862  0.00  0.00    +0.023 A 
ATOM      8  C   UNL     1       3.270   1.016 -21.894  0.00  0.00    +0.060 A 
ATOM      9  C   UNL     1       3.984   1.309 -22.941  0.00  0.00    +0.131 A 
ATOM     10  C   UNL     1       3.437   1.913 -23.953  0.00  0.00    +0.050 A 
ATOM     11 BR   UNL     1       3.816   0.412 -20.882  0.00  0.00    -0.047 Br
ATOM     12  C   UNL     1       2.176   2.225 -23.920  0.00  0.00    -0.040 A 
ATOM     13  C   UNL     1       1.628   2.830 -24.933  0.00  0.00    +0.036 C 
ATOM     14  C   UNL     1       0.367   3.141 -24.900  0.00  0.00    +0.009 C 
ATOM     15  C   UNL     1      -0.348   2.849 -23.854  0.00  0.00    +0.000 C 
ATOM     16  C   UNL     1      -3.538   3.280 -22.989  0.00  0.00    +0.121 C 
ATOM     17  C   UNL     1      -3.574   3.828 -24.168  0.00  0.00    +0.032 C 
ATOM     18  C   UNL     1      -2.381   3.754 -24.682  0.00  0.00    +0.007 C 
ATOM     19  C   UNL     1      -1.609   3.160 -23.821  0.00  0.00    +0.001 C 
ENDROOT
BRANCH   9  20
ATOM     20  O   UNL     1       5.246   0.997 -22.973  0.00  0.00    -0.506 OA
ATOM     21  H   UNL     1       5.542   0.203 -22.574  0.00  0.00    +0.292 HD
ENDBRANCH   9  20
BRANCH  16  22
ATOM     22  O   UNL     1      -4.540   3.165 -22.170  0.00  0.00    -0.391 OA
ATOM     23  H   UNL     1      -4.931   2.282 -22.259  0.00  0.00    +0.210 HD
ENDBRANCH  16  22
TORSDOF 2
ENDMDL
MODEL 6
REMARK VINA RESULT:    -9.259      2.282      6.478
REMARK INTER + INTRA:          -9.800
REMARK INTER:                  -9.800
REMARK INTRA:                   0.000
REMARK UNBOUND:                 0.000
REMARK  Name = C[C@]12CC[C@@H]3c4cc(Br)c(O)cc4CC[C@H]3[C@H]1CC[C@@H]2O              ZINC000253393404
REMARK  3 active torsions:
REMARK  status: ('A' for Active; 'I' for Inactive)
REMARK    1  A    between atoms: C_1  and  C_2
REMARK    2  A    between atoms: C_10  and  O_11
REMARK    3  A    between atoms: C_20  and  O_21
REMARK                            x       y       z     vdW  Elec       q    Type
REMARK                         _______ _______ _______ _____ _____    ______ ____
ROOT
ATOM      1  C   UNL     1       3.842   0.691 -20.970  0.00  0.00    +0.014 C 
ATOM      2  C   UNL     1       3.603   1.621 -21.846  0.00  0.00    -0.003 C 
ATOM      3  C   UNL     1       2.537   1.151 -21.270  0.00  0.00    +0.010 C 
ATOM      4  C   UNL     1       1.366   1.616 -21.590  0.00  0.00    +0.009 C 
ATOM      5  C   UNL     1       1.261   2.552 -22.487  0.00  0.00    +0.023 C 
ATOM      6  C   UNL     1       0.091   3.018 -22.807  0.00  0.00    -0.040 A 
ATOM      7  C   UNL     1      -0.975   2.548 -22.232  0.00  0.00    +0.023 A 
ATOM      8  C   UNL     1      -2.146   3.013 -22.552  0.00  0.00    +0.060 A 
ATOM      9  C   UNL     1      -2.250   3.949 -23.449  0.00  0.00    +0.131 A 
ATOM     10  C   UNL     1      -1.184   4.419 -24.025  0.00  0.00    +0.050 A 
ATOM     11 BR   UNL     1      -3.212   2.543 -21.976  0.00  0.00    -0.047 Br
ATOM     12  C   UNL     1      -0.013   3.953 -23.704  0.00  0.00    -0.040 A 
ATOM     13  C   UNL     1       1.054   4.423 -24.280  0.00  0.00    +0.036 C 
ATOM     14  C   UNL     1       2.224   3.958 -23.960  0.00  0.00    +0.009 C 
ATOM     15  C   UNL     1       2.328   3.023 -23.063  0.00  0.00    +0.000 C 
ATOM     16  C   UNL     1       4.864   1.335 -21.709  0.00  0.00    +0.121 C 
ATOM     17  C   UNL     1       5.539   2.093 -22.521  0.00  0.00    +0.032 C 
ATOM     18  C   UNL     1       4.695   2.849 -23.160  0.00  0.00    +0.007 C 
ATOM     19  C   UNL     1       3.499   2.557 -22.743  0.00  0.00    +0.001 C 
ENDROOT
BRANCH   9  20
ATOM     20  O   UNL     1      -3.421   4.414 -23.769  0.00  0.00    -0.506 OA
ATOM     21  H   UNL     1      -3.608   5.326 -23.665  0.00  0.00    +0.292 HD
ENDBRANCH   9  20
BRANCH  16  22
ATOM     22  O   UNL     1       5.362   0.446 -20.902  0.00  0.00    -0.391 OA
ATOM     23  H   UNL     1       5.693   0.884 -20.102  0.00  0.00    +0.210 HD
ENDBRANCH  16  22
TORSDOF 2
ENDMDL
MODEL 7
REMARK VINA RESULT:    -9.142      2.309      3.880
REMARK INTER + INTRA:          -9.676
REMARK INTER:                  -9.676
REMARK INTRA:                   0.000
REMARK UNBOUND:                 0.000
REMARK  Name = C[C@]12CC[C@@H]3c4cc(Br)c(O)cc4CC[C@H]3[C@H]1CC[C@@H]2O              ZINC000253393404
REMARK  3 active torsions:
REMARK  status: ('A' for Active; 'I' for Inactive)
REMARK    1  A    between atoms: C_1  and  C_2
REMARK    2  A    between atoms: C_10  and  O_11
REMARK    3  A    between atoms: C_20  and  O_21
REMARK                            x       y       z     vdW  Elec       q    Type
REMARK                         _______ _______ _______ _____ _____    ______ ____
ROOT
ATOM      1  C   UNL     1      -1.242   4.853 -24.005  0.00  0.00    +0.014 C 
ATOM      2  C   UNL     1      -0.756   3.847 -23.341  0.00  0.00    -0.003 C 
ATOM      3  C   UNL     1       0.145   4.670 -23.788  0.00  0.00    +0.010 C 
ATOM      4  C   UNL     1       1.405   4.446 -23.555  0.00  0.00    +0.009 C 
ATOM      5  C   UNL     1       1.763   3.398 -22.873  0.00  0.00    +0.023 C 
ATOM      6  C   UNL     1       3.021   3.173 -22.640  0.00  0.00    -0.040 A 
ATOM      7  C   UNL     1       3.922   3.996 -23.087  0.00  0.00    +0.023 A 
ATOM      8  C   UNL     1       5.182   3.772 -22.854  0.00  0.00    +0.060 A 
ATOM      9  C   UNL     1       5.539   2.723 -22.172  0.00  0.00    +0.131 A 
ATOM     10  C   UNL     1       4.638   1.900 -21.724  0.00  0.00    +0.050 A 
ATOM     11 BR   UNL     1       6.083   4.595 -23.301  0.00  0.00    -0.047 Br
ATOM     12  C   UNL     1       3.379   2.125 -21.958  0.00  0.00    -0.040 A 
ATOM     13  C   UNL     1       2.477   1.303 -21.511  0.00  0.00    +0.036 C 
ATOM     14  C   UNL     1       1.219   1.527 -21.744  0.00  0.00    +0.009 C 
ATOM     15  C   UNL     1       0.861   2.574 -22.425  0.00  0.00    +0.000 C 
ATOM     16  C   UNL     1      -2.052   3.843 -23.434  0.00  0.00    +0.121 C 
ATOM     17  C   UNL     1      -2.496   2.792 -22.810  0.00  0.00    +0.032 C 
ATOM     18  C   UNL     1      -1.473   2.147 -22.331  0.00  0.00    +0.007 C 
ATOM     19  C   UNL     1      -0.398   2.799 -22.659  0.00  0.00    +0.001 C 
ENDROOT
BRANCH   9  20
ATOM     20  O   UNL     1       6.798   2.499 -21.939  0.00  0.00    -0.506 OA
ATOM     21  H   UNL     1       7.318   2.044 -22.571  0.00  0.00    +0.292 HD
ENDBRANCH   9  20
BRANCH  16  22
ATOM     22  O   UNL     1      -2.778   4.732 -24.044  0.00  0.00    -0.391 OA
ATOM     23  H   UNL     1      -3.537   4.297 -24.464  0.00  0.00    +0.210 HD
ENDBRANCH  16  22
TORSDOF 2
ENDMDL
