MODEL 1
REMARK VINA RESULT:   -10.740      0.000      0.000
REMARK INTER + INTRA:         -11.054
REMARK INTER:                 -11.054
REMARK INTRA:                   0.000
REMARK UNBOUND:                 0.000
REMARK  Name = CN1CC[C@]23CC(=O)CC[C@@H]2[C@@H]1Cc1ccc(O)cc13                       ZINC000100393796
REMARK  2 active torsions:
REMARK  status: ('A' for Active; 'I' for Inactive)
REMARK    1  A    between atoms: C_1  and  N_2
REMARK    2  A    between atoms: C_17  and  O_18
REMARK                            x       y       z     vdW  Elec       q    Type
REMARK                         _______ _______ _______ _____ _____    ______ ____
ROOT
ATOM      1  C   UNL     1      -2.992   3.373 -26.337  0.00  0.00    +0.190 C 
ATOM      2  N   UNL     1      -2.804   3.514 -24.843  0.00  0.00    +0.236 N 
ATOM      3  H   UNL     1      -3.568   3.465 -24.166  0.00  0.00    +0.203 HD
ATOM      4  C   UNL     1      -2.711   3.617 -23.668  0.00  0.00    +0.132 C 
ATOM      5  C   UNL     1      -1.698   3.800 -23.026  0.00  0.00    +0.063 C 
ATOM      6  C   UNL     1      -0.860   3.876 -23.478  0.00  0.00    +0.015 C 
ATOM      7  C   UNL     1       0.253   4.066 -22.910  0.00  0.00    +0.086 C 
ATOM      8  C   UNL     1       1.346   4.155 -23.622  0.00  0.00    +0.134 C 
ATOM      9  C   UNL     1       1.305   4.047 -24.940  0.00  0.00    +0.075 C 
ATOM     10  C   UNL     1       0.176   3.850 -25.570  0.00  0.00    +0.017 C 
ATOM     11  O   UNL     1       2.464   4.351 -22.994  0.00  0.00    -0.297 OA
ATOM     12  C   UNL     1      -2.419   3.723 -22.800  0.00  0.00    -0.033 A 
ATOM     13  C   UNL     1      -2.387   3.827 -21.518  0.00  0.00    +0.050 A 
ATOM     14  C   UNL     1      -3.465   3.737 -20.841  0.00  0.00    +0.117 A 
ATOM     15  C   UNL     1      -4.590   3.543 -21.440  0.00  0.00    +0.046 A 
ATOM     16  C   UNL     1      -4.629   3.437 -22.733  0.00  0.00    +0.007 A 
ATOM     17  C   UNL     1      -3.551   3.526 -23.413  0.00  0.00    -0.038 A 
ATOM     18  C   UNL     1      -3.545   3.434 -24.607  0.00  0.00    +0.090 C 
ATOM     19  C   UNL     1      -0.909   3.758 -24.908  0.00  0.00    +0.049 C 
ATOM     20  C   UNL     1      -2.139   3.558 -25.402  0.00  0.00    +0.072 C 
ENDROOT
BRANCH  14  21
ATOM     21  O   UNL     1      -3.261   3.868 -19.502  0.00  0.00    -0.507 OA
ATOM     22  H   UNL     1      -3.690   3.289 -18.904  0.00  0.00    +0.292 HD
ENDBRANCH  14  21
TORSDOF 1
ENDMDL
MODEL 2
REMARK VINA RESULT:   -10.740      2.367      3.639
REMARK INTER + INTRA:         -11.053
REMARK INTER:                 -11.053
REMARK INTRA:                   0.000
REMARK UNBOUND:                 0.000
REMARK  Name = CN1CC[C@]23CC(=O)CC[C@@H]2[C@@H]1Cc1ccc(O)cc13                       ZINC000100393796
REMARK  2 active torsions:
REMARK  status: ('A' for Active; 'I' for Inactive)
REMARK    1  A    between atoms: C_1  and  N_2
REMARK    2  A    between atoms: C_17  and  O_18
REMARK                            x       y       z     vdW  Elec       q    Type
REMARK                         _______ _______ _______ _____ _____    ______ ____
ROOT
ATOM      1  C   UNL     1      -3.704   2.996 -20.254  0.00  0.00    +0.190 C 
ATOM      2  N   UNL     1      -3.500   3.069 -21.751  0.00  0.00    +0.236 N 
ATOM      3  H   UNL     1      -4.222   3.367 -22.410  0.00  0.00    +0.203 HD
ATOM      4  C   UNL     1      -3.393   3.143 -22.926  0.00  0.00    +0.132 C 
ATOM      5  C   UNL     1      -2.411   2.883 -23.591  0.00  0.00    +0.063 C 
ATOM      6  C   UNL     1      -1.615   2.581 -23.158  0.00  0.00    +0.015 C 
ATOM      7  C   UNL     1      -0.539   2.283 -23.751  0.00  0.00    +0.086 C 
ATOM      8  C   UNL     1       0.498   1.879 -23.065  0.00  0.00    +0.134 C 
ATOM      9  C   UNL     1       0.437   1.776 -21.748  0.00  0.00    +0.075 C 
ATOM     10  C   UNL     1      -0.654   2.073 -21.092  0.00  0.00    +0.017 C 
ATOM     11  O   UNL     1       1.579   1.585 -23.718  0.00  0.00    -0.297 OA
ATOM     12  C   UNL     1      -3.099   3.128 -23.800  0.00  0.00    -0.033 A 
ATOM     13  C   UNL     1      -3.048   3.230 -25.082  0.00  0.00    +0.050 A 
ATOM     14  C   UNL     1      -4.071   3.627 -25.734  0.00  0.00    +0.117 A 
ATOM     15  C   UNL     1      -5.159   3.926 -25.110  0.00  0.00    +0.046 A 
ATOM     16  C   UNL     1      -5.217   3.825 -23.818  0.00  0.00    +0.007 A 
ATOM     17  C   UNL     1      -4.194   3.428 -23.163  0.00  0.00    -0.038 A 
ATOM     18  C   UNL     1      -4.207   3.321 -21.970  0.00  0.00    +0.090 C 
ATOM     19  C   UNL     1      -1.684   2.471 -21.729  0.00  0.00    +0.049 C 
ATOM     20  C   UNL     1      -2.871   2.812 -21.207  0.00  0.00    +0.072 C 
ENDROOT
BRANCH  14  21
ATOM     21  O   UNL     1      -3.854   3.681 -27.077  0.00  0.00    -0.507 OA
ATOM     22  H   UNL     1      -4.580   3.749 -27.665  0.00  0.00    +0.292 HD
ENDBRANCH  14  21
TORSDOF 1
ENDMDL
MODEL 3
REMARK VINA RESULT:   -10.417      0.386      4.244
REMARK INTER + INTRA:         -10.721
REMARK INTER:                 -10.721
REMARK INTRA:                   0.000
REMARK UNBOUND:                 0.000
REMARK  Name = CN1CC[C@]23CC(=O)CC[C@@H]2[C@@H]1Cc1ccc(O)cc13                       ZINC000100393796
REMARK  2 active torsions:
REMARK  status: ('A' for Active; 'I' for Inactive)
REMARK    1  A    between atoms: C_1  and  N_2
REMARK    2  A    between atoms: C_17  and  O_18
REMARK                            x       y       z     vdW  Elec       q    Type
REMARK                         _______ _______ _______ _____ _____    ______ ____
ROOT
ATOM      1  C   UNL     1      -3.859   3.253 -25.926  0.00  0.00    +0.190 C 
ATOM      2  N   UNL     1      -2.609   3.459 -25.099  0.00  0.00    +0.236 N 
ATOM      3  H   UNL     1      -1.673   3.552 -25.496  0.00  0.00    +0.203 HD
ATOM      4  C   UNL     1      -1.603   3.621 -24.499  0.00  0.00    +0.132 C 
ATOM      5  C   UNL     1      -1.473   3.710 -23.296  0.00  0.00    +0.063 C 
ATOM      6  C   UNL     1      -2.241   3.647 -22.732  0.00  0.00    +0.015 C 
ATOM      7  C   UNL     1      -2.221   3.725 -21.470  0.00  0.00    +0.086 C 
ATOM      8  C   UNL     1      -3.332   3.627 -20.788  0.00  0.00    +0.134 C 
ATOM      9  C   UNL     1      -4.488   3.445 -21.405  0.00  0.00    +0.075 C 
ATOM     10  C   UNL     1      -4.558   3.358 -22.707  0.00  0.00    +0.017 C 
ATOM     11  O   UNL     1      -3.259   3.714 -19.497  0.00  0.00    -0.297 OA
ATOM     12  C   UNL     1      -0.957   3.741 -23.853  0.00  0.00    -0.033 A 
ATOM     13  C   UNL     1       0.172   3.918 -23.260  0.00  0.00    +0.050 A 
ATOM     14  C   UNL     1       1.246   4.012 -23.943  0.00  0.00    +0.117 A 
ATOM     15  C   UNL     1       1.203   3.929 -25.230  0.00  0.00    +0.046 A 
ATOM     16  C   UNL     1       0.067   3.751 -25.832  0.00  0.00    +0.007 A 
ATOM     17  C   UNL     1      -1.009   3.656 -25.151  0.00  0.00    -0.038 A 
ATOM     18  C   UNL     1      -2.076   3.492 -25.669  0.00  0.00    +0.090 C 
ATOM     19  C   UNL     1      -3.494   3.450 -23.404  0.00  0.00    +0.049 C 
ATOM     20  C   UNL     1      -3.399   3.382 -24.739  0.00  0.00    +0.072 C 
ENDROOT
BRANCH  14  21
ATOM     21  O   UNL     1       2.350   4.197 -23.170  0.00  0.00    -0.507 OA
ATOM     22  H   UNL     1       3.059   3.585 -23.213  0.00  0.00    +0.292 HD
ENDBRANCH  14  21
TORSDOF 1
ENDMDL
MODEL 4
REMARK VINA RESULT:   -10.380      2.367      4.440
REMARK INTER + INTRA:         -10.683
REMARK INTER:                 -10.683
REMARK INTRA:                   0.000
REMARK UNBOUND:                 0.000
REMARK  Name = CN1CC[C@]23CC(=O)CC[C@@H]2[C@@H]1Cc1ccc(O)cc13                       ZINC000100393796
REMARK  2 active torsions:
REMARK  status: ('A' for Active; 'I' for Inactive)
REMARK    1  A    between atoms: C_1  and  N_2
REMARK    2  A    between atoms: C_17  and  O_18
REMARK                            x       y       z     vdW  Elec       q    Type
REMARK                         _______ _______ _______ _____ _____    ______ ____
ROOT
ATOM      1  C   UNL     1      -4.184   3.151 -21.023  0.00  0.00    +0.190 C 
ATOM      2  N   UNL     1      -2.945   2.851 -21.838  0.00  0.00    +0.236 N 
ATOM      3  H   UNL     1      -2.071   2.505 -21.438  0.00  0.00    +0.203 HD
ATOM      4  C   UNL     1      -1.951   2.601 -22.429  0.00  0.00    +0.132 C 
ATOM      5  C   UNL     1      -1.763   2.703 -23.623  0.00  0.00    +0.063 C 
ATOM      6  C   UNL     1      -2.468   3.014 -24.187  0.00  0.00    +0.015 C 
ATOM      7  C   UNL     1      -2.381   3.158 -25.441  0.00  0.00    +0.086 C 
ATOM      8  C   UNL     1      -3.408   3.593 -26.124  0.00  0.00    +0.134 C 
ATOM      9  C   UNL     1      -4.546   3.889 -25.517  0.00  0.00    +0.075 C 
ATOM     10  C   UNL     1      -4.681   3.756 -24.224  0.00  0.00    +0.017 C 
ATOM     11  O   UNL     1      -3.270   3.723 -27.406  0.00  0.00    -0.297 OA
ATOM     12  C   UNL     1      -1.299   2.472 -23.067  0.00  0.00    -0.033 A 
ATOM     13  C   UNL     1      -0.189   2.182 -23.650  0.00  0.00    +0.050 A 
ATOM     14  C   UNL     1       0.802   1.759 -22.966  0.00  0.00    +0.117 A 
ATOM     15  C   UNL     1       0.693   1.620 -21.688  0.00  0.00    +0.046 A 
ATOM     16  C   UNL     1      -0.425   1.910 -21.096  0.00  0.00    +0.007 A 
ATOM     17  C   UNL     1      -1.418   2.334 -21.778  0.00  0.00    -0.038 A 
ATOM     18  C   UNL     1      -2.465   2.613 -21.269  0.00  0.00    +0.090 C 
ATOM     19  C   UNL     1      -3.701   3.334 -23.526  0.00  0.00    +0.049 C 
ATOM     20  C   UNL     1      -3.680   3.145 -22.200  0.00  0.00    +0.072 C 
ENDROOT
BRANCH  14  21
ATOM     21  O   UNL     1       1.899   1.498 -23.728  0.00  0.00    -0.507 OA
ATOM     22  H   UNL     1       2.703   1.948 -23.560  0.00  0.00    +0.292 HD
ENDBRANCH  14  21
TORSDOF 1
ENDMDL
MODEL 5
REMARK VINA RESULT:   -10.044      1.845      2.355
REMARK INTER + INTRA:         -10.338
REMARK INTER:                 -10.338
REMARK INTRA:                   0.000
REMARK UNBOUND:                 0.000
REMARK  Name = CN1CC[C@]23CC(=O)CC[C@@H]2[C@@H]1Cc1ccc(O)cc13                       ZINC000100393796
REMARK  2 active torsions:
REMARK  status: ('A' for Active; 'I' for Inactive)
REMARK    1  A    between atoms: C_1  and  N_2
REMARK    2  A    between atoms: C_17  and  O_18
REMARK                            x       y       z     vdW  Elec       q    Type
REMARK                         _______ _______ _______ _____ _____    ______ ____
ROOT
ATOM      1  C   UNL     1      -0.450   3.751 -25.875  0.00  0.00    +0.190 C 
ATOM      2  N   UNL     1      -1.409   3.483 -24.736  0.00  0.00    +0.236 N 
ATOM      3  H   UNL     1      -2.408   3.689 -24.773  0.00  0.00    +0.203 HD
ATOM      4  C   UNL     1      -2.198   3.294 -23.876  0.00  0.00    +0.132 C 
ATOM      5  C   UNL     1      -1.988   2.819 -22.779  0.00  0.00    +0.063 C 
ATOM      6  C   UNL     1      -1.102   2.555 -22.541  0.00  0.00    +0.015 C 
ATOM      7  C   UNL     1      -0.772   2.052 -21.429  0.00  0.00    +0.086 C 
ATOM      8  C   UNL     1       0.473   1.723 -21.201  0.00  0.00    +0.134 C 
ATOM      9  C   UNL     1       1.401   1.912 -22.125  0.00  0.00    +0.075 C 
ATOM     10  C   UNL     1       1.106   2.429 -23.289  0.00  0.00    +0.017 C 
ATOM     11  O   UNL     1       0.762   1.210 -20.046  0.00  0.00    -0.297 OA
ATOM     12  C   UNL     1      -2.633   3.068 -23.095  0.00  0.00    -0.033 A 
ATOM     13  C   UNL     1      -3.541   2.888 -22.202  0.00  0.00    +0.050 A 
ATOM     14  C   UNL     1      -4.751   3.215 -22.443  0.00  0.00    +0.117 A 
ATOM     15  C   UNL     1      -5.067   3.727 -23.583  0.00  0.00    +0.046 A 
ATOM     16  C   UNL     1      -4.155   3.911 -24.489  0.00  0.00    +0.007 A 
ATOM     17  C   UNL     1      -2.943   3.584 -24.249  0.00  0.00    -0.038 A 
ATOM     18  C   UNL     1      -2.073   3.738 -25.058  0.00  0.00    +0.090 C 
ATOM     19  C   UNL     1      -0.098   2.761 -23.545  0.00  0.00    +0.049 C 
ATOM     20  C   UNL     1      -0.559   3.300 -24.683  0.00  0.00    +0.072 C 
ENDROOT
BRANCH  14  21
ATOM     21  O   UNL     1      -5.586   2.961 -21.399  0.00  0.00    -0.507 OA
ATOM     22  H   UNL     1      -6.418   3.389 -21.350  0.00  0.00    +0.292 HD
ENDBRANCH  14  21
TORSDOF 1
ENDMDL
MODEL 6
REMARK VINA RESULT:    -9.953      2.183      4.630
REMARK INTER + INTRA:         -10.244
REMARK INTER:                 -10.244
REMARK INTRA:                   0.000
REMARK UNBOUND:                 0.000
REMARK  Name = CN1CC[C@]23CC(=O)CC[C@@H]2[C@@H]1Cc1ccc(O)cc13                       ZINC000100393796
REMARK  2 active torsions:
REMARK  status: ('A' for Active; 'I' for Inactive)
REMARK    1  A    between atoms: C_1  and  N_2
REMARK    2  A    between atoms: C_17  and  O_18
REMARK                            x       y       z     vdW  Elec       q    Type
REMARK                         _______ _______ _______ _____ _____    ______ ____
ROOT
ATOM      1  C   UNL     1      -0.434   3.676 -25.441  0.00  0.00    +0.190 C 
ATOM      2  N   UNL     1      -0.110   3.106 -24.077  0.00  0.00    +0.236 N 
ATOM      3  H   UNL     1       0.834   2.867 -23.770  0.00  0.00    +0.203 HD
ATOM      4  C   UNL     1       0.196   2.660 -23.026  0.00  0.00    +0.132 C 
ATOM      5  C   UNL     1      -0.542   2.394 -22.099  0.00  0.00    +0.063 C 
ATOM      6  C   UNL     1      -1.480   2.547 -22.185  0.00  0.00    +0.015 C 
ATOM      7  C   UNL     1      -2.337   2.307 -21.286  0.00  0.00    +0.086 C 
ATOM      8  C   UNL     1      -3.602   2.553 -21.503  0.00  0.00    +0.134 C 
ATOM      9  C   UNL     1      -4.004   3.053 -22.660  0.00  0.00    +0.075 C 
ATOM     10  C   UNL     1      -3.155   3.316 -23.618  0.00  0.00    +0.017 C 
ATOM     11  O   UNL     1      -4.442   2.291 -20.551  0.00  0.00    -0.297 OA
ATOM     12  C   UNL     1       0.212   2.325 -22.167  0.00  0.00    -0.033 A 
ATOM     13  C   UNL     1       0.611   1.838 -21.044  0.00  0.00    +0.050 A 
ATOM     14  C   UNL     1       1.851   1.606 -20.852  0.00  0.00    +0.117 A 
ATOM     15  C   UNL     1       2.708   1.857 -21.781  0.00  0.00    +0.046 A 
ATOM     16  C   UNL     1       2.312   2.348 -22.916  0.00  0.00    +0.007 A 
ATOM     17  C   UNL     1       1.071   2.582 -23.111  0.00  0.00    -0.038 A 
ATOM     18  C   UNL     1       0.666   3.034 -24.144  0.00  0.00    +0.090 C 
ATOM     19  C   UNL     1      -1.913   3.089 -23.441  0.00  0.00    +0.049 C 
ATOM     20  C   UNL     1      -0.923   3.304 -24.319  0.00  0.00    +0.072 C 
ENDROOT
BRANCH  14  21
ATOM     21  O   UNL     1       2.107   1.094 -19.617  0.00  0.00    -0.507 OA
ATOM     22  H   UNL     1       2.965   1.171 -19.247  0.00  0.00    +0.292 HD
ENDBRANCH  14  21
TORSDOF 1
ENDMDL
MODEL 7
REMARK VINA RESULT:    -9.575      2.130      5.034
REMARK INTER + INTRA:          -9.855
REMARK INTER:                  -9.855
REMARK INTRA:                   0.000
REMARK UNBOUND:                 0.000
REMARK  Name = CN1CC[C@]23CC(=O)CC[C@@H]2[C@@H]1Cc1ccc(O)cc13                       ZINC000100393796
REMARK  2 active torsions:
REMARK  status: ('A' for Active; 'I' for Inactive)
REMARK    1  A    between atoms: C_1  and  N_2
REMARK    2  A    between atoms: C_17  and  O_18
REMARK                            x       y       z     vdW  Elec       q    Type
REMARK                         _______ _______ _______ _____ _____    ______ ____
ROOT
ATOM      1  C   UNL     1      -2.027   1.624 -20.798  0.00  0.00    +0.190 C 
ATOM      2  N   UNL     1      -1.553   2.262 -22.085  0.00  0.00    +0.236 N 
ATOM      3  H   UNL     1      -0.587   2.225 -22.416  0.00  0.00    +0.203 HD
ATOM      4  C   UNL     1      -1.132   2.742 -23.080  0.00  0.00    +0.132 C 
ATOM      5  C   UNL     1      -1.753   3.373 -23.910  0.00  0.00    +0.063 C 
ATOM      6  C   UNL     1      -2.688   3.523 -23.786  0.00  0.00    +0.015 C 
ATOM      7  C   UNL     1      -3.429   4.165 -24.584  0.00  0.00    +0.086 C 
ATOM      8  C   UNL     1      -4.701   4.315 -24.322  0.00  0.00    +0.134 C 
ATOM      9  C   UNL     1      -5.229   3.800 -23.223  0.00  0.00    +0.075 C 
ATOM     10  C   UNL     1      -4.501   3.129 -22.369  0.00  0.00    +0.017 C 
ATOM     11  O   UNL     1      -5.421   4.980 -25.170  0.00  0.00    -0.297 OA
ATOM     12  C   UNL     1      -1.018   3.182 -23.882  0.00  0.00    -0.033 A 
ATOM     13  C   UNL     1      -0.497   3.680 -24.948  0.00  0.00    +0.050 A 
ATOM     14  C   UNL     1       0.747   3.524 -25.187  0.00  0.00    +0.117 A 
ATOM     15  C   UNL     1       1.486   2.866 -24.360  0.00  0.00    +0.046 A 
ATOM     16  C   UNL     1       0.966   2.361 -23.283  0.00  0.00    +0.007 A 
ATOM     17  C   UNL     1      -0.279   2.517 -23.042  0.00  0.00    -0.038 A 
ATOM     18  C   UNL     1      -0.796   2.067 -22.059  0.00  0.00    +0.090 C 
ATOM     19  C   UNL     1      -3.257   2.964 -22.593  0.00  0.00    +0.049 C 
ATOM     20  C   UNL     1      -2.381   2.305 -21.821  0.00  0.00    +0.072 C 
ENDROOT
BRANCH  14  21
ATOM     21  O   UNL     1       1.140   4.109 -26.351  0.00  0.00    -0.507 OA
ATOM     22  H   UNL     1       1.877   4.688 -26.358  0.00  0.00    +0.292 HD
ENDBRANCH  14  21
TORSDOF 1
ENDMDL
MODEL 8
REMARK VINA RESULT:    -8.451      2.374      5.171
REMARK INTER + INTRA:          -8.698
REMARK INTER:                  -8.698
REMARK INTRA:                   0.000
REMARK UNBOUND:                 0.000
REMARK  Name = CN1CC[C@]23CC(=O)CC[C@@H]2[C@@H]1Cc1ccc(O)cc13                       ZINC000100393796
REMARK  2 active torsions:
REMARK  status: ('A' for Active; 'I' for Inactive)
REMARK    1  A    between atoms: C_1  and  N_2
REMARK    2  A    between atoms: C_17  and  O_18
REMARK                            x       y       z     vdW  Elec       q    Type
REMARK                         _______ _______ _______ _____ _____    ______ ____
ROOT
ATOM      1  C   UNL     1      -0.396   2.483 -21.679  0.00  0.00    +0.190 C 
ATOM      2  N   UNL     1      -1.342   2.790 -22.819  0.00  0.00    +0.236 N 
ATOM      3  H   UNL     1      -1.039   2.970 -23.777  0.00  0.00    +0.203 HD
ATOM      4  C   UNL     1      -2.039   3.033 -23.742  0.00  0.00    +0.132 C 
ATOM      5  C   UNL     1      -3.250   3.120 -23.745  0.00  0.00    +0.063 C 
ATOM      6  C   UNL     1      -3.734   2.983 -22.934  0.00  0.00    +0.015 C 
ATOM      7  C   UNL     1      -4.992   3.049 -22.824  0.00  0.00    +0.086 C 
ATOM      8  C   UNL     1      -5.561   2.845 -21.664  0.00  0.00    +0.134 C 
ATOM      9  C   UNL     1      -4.833   2.568 -20.595  0.00  0.00    +0.075 C 
ATOM     10  C   UNL     1      -3.529   2.490 -20.661  0.00  0.00    +0.017 C 
ATOM     11  O   UNL     1      -6.853   2.923 -21.602  0.00  0.00    -0.297 OA
ATOM     12  C   UNL     1      -2.746   3.203 -24.309  0.00  0.00    -0.033 A 
ATOM     13  C   UNL     1      -3.448   3.472 -25.354  0.00  0.00    +0.050 A 
ATOM     14  C   UNL     1      -2.874   3.668 -26.477  0.00  0.00    +0.117 A 
ATOM     15  C   UNL     1      -1.590   3.596 -26.568  0.00  0.00    +0.046 A 
ATOM     16  C   UNL     1      -0.877   3.325 -25.517  0.00  0.00    +0.007 A 
ATOM     17  C   UNL     1      -1.449   3.128 -24.392  0.00  0.00    -0.038 A 
ATOM     18  C   UNL     1      -0.827   2.876 -23.400  0.00  0.00    +0.090 C 
ATOM     19  C   UNL     1      -2.942   2.683 -21.776  0.00  0.00    +0.049 C 
ATOM     20  C   UNL     1      -1.622   2.639 -22.008  0.00  0.00    +0.072 C 
ENDROOT
BRANCH  14  21
ATOM     21  O   UNL     1      -3.753   3.941 -27.479  0.00  0.00    -0.507 OA
ATOM     22  H   UNL     1      -4.672   3.817 -27.343  0.00  0.00    +0.292 HD
ENDBRANCH  14  21
TORSDOF 1
ENDMDL
MODEL 9
REMARK VINA RESULT:    -8.410      3.223      6.450
REMARK INTER + INTRA:          -8.656
REMARK INTER:                  -8.656
REMARK INTRA:                   0.000
REMARK UNBOUND:                 0.000
REMARK  Name = CN1CC[C@]23CC(=O)CC[C@@H]2[C@@H]1Cc1ccc(O)cc13                       ZINC000100393796
REMARK  2 active torsions:
REMARK  status: ('A' for Active; 'I' for Inactive)
REMARK    1  A    between atoms: C_1  and  N_2
REMARK    2  A    between atoms: C_17  and  O_18
REMARK                            x       y       z     vdW  Elec       q    Type
REMARK                         _______ _______ _______ _____ _____    ______ ____
ROOT
ATOM      1  C   UNL     1       3.059   0.798 -24.561  0.00  0.00    +0.190 C 
ATOM      2  N   UNL     1       3.370   2.184 -24.041  0.00  0.00    +0.236 N 
ATOM      3  H   UNL     1       4.313   2.516 -23.833  0.00  0.00    +0.203 HD
ATOM      4  C   UNL     1       3.665   3.254 -23.635  0.00  0.00    +0.132 C 
ATOM      5  C   UNL     1       2.916   4.175 -23.381  0.00  0.00    +0.063 C 
ATOM      6  C   UNL     1       1.976   4.068 -23.509  0.00  0.00    +0.015 C 
ATOM      7  C   UNL     1       1.108   4.958 -23.278  0.00  0.00    +0.086 C 
ATOM      8  C   UNL     1      -0.158   4.710 -23.488  0.00  0.00    +0.134 C 
ATOM      9  C   UNL     1      -0.549   3.530 -23.942  0.00  0.00    +0.075 C 
ATOM     10  C   UNL     1       0.312   2.580 -24.195  0.00  0.00    +0.017 C 
ATOM     11  O   UNL     1      -1.010   5.654 -23.236  0.00  0.00    -0.297 OA
ATOM     12  C   UNL     1       3.672   4.123 -23.327  0.00  0.00    -0.033 A 
ATOM     13  C   UNL     1       4.060   5.268 -22.885  0.00  0.00    +0.050 A 
ATOM     14  C   UNL     1       5.301   5.491 -22.687  0.00  0.00    +0.117 A 
ATOM     15  C   UNL     1       6.170   4.570 -22.929  0.00  0.00    +0.046 A 
ATOM     16  C   UNL     1       5.785   3.413 -23.375  0.00  0.00    +0.007 A 
ATOM     17  C   UNL     1       4.543   3.188 -23.574  0.00  0.00    -0.038 A 
ATOM     18  C   UNL     1       4.148   2.134 -23.984  0.00  0.00    +0.090 C 
ATOM     19  C   UNL     1       1.556   2.787 -24.003  0.00  0.00    +0.049 C 
ATOM     20  C   UNL     1       2.557   1.921 -24.212  0.00  0.00    +0.072 C 
ENDROOT
BRANCH  14  21
ATOM     21  O   UNL     1       5.545   6.746 -22.219  0.00  0.00    -0.507 OA
ATOM     22  H   UNL     1       4.943   7.440 -22.405  0.00  0.00    +0.292 HD
ENDBRANCH  14  21
TORSDOF 1
ENDMDL
