MODEL 1
REMARK VINA RESULT:    -9.760      0.000      0.000
REMARK INTER + INTRA:         -10.045
REMARK INTER:                 -10.045
REMARK INTRA:                   0.000
REMARK UNBOUND:                 0.000
REMARK  Name = ZINC000004104716
REMARK  5 active torsions:
REMARK  status: ('A' for Active; 'I' for Inactive)
REMARK    1  A    between atoms: C_1  and  C_2
REMARK    2  A    between atoms: C_2  and  C_3
REMARK    3  A    between atoms: C_9  and  C_10
REMARK    4  A    between atoms: C_13  and  C_14
REMARK    5  A    between atoms: C_13  and  O_15
REMARK                            x       y       z     vdW  Elec       q    Type
REMARK                         _______ _______ _______ _____ _____    ______ ____
ROOT
ATOM      1  C   UNL     1      -0.091   1.876 -21.379  0.00  0.00    +0.011 C 
ATOM      2  C   UNL     1      -0.883   2.281 -22.329  0.00  0.00    -0.028 C 
ATOM      3  C   UNL     1      -1.978   2.455 -21.651  0.00  0.00    -0.001 C 
ATOM      4  C   UNL     1      -2.970   2.571 -20.820  0.00  0.00    +0.012 C 
ATOM      5  C   UNL     1      -4.188   2.957 -21.060  0.00  0.00    +0.075 C 
ATOM      6  C   UNL     1      -4.714   3.323 -22.191  0.00  0.00    +0.140 C 
ATOM      7  C   UNL     1      -4.153   3.393 -23.361  0.00  0.00    +0.032 C 
ATOM      8  C   UNL     1      -4.778   3.776 -24.435  0.00  0.00    +0.017 C 
ATOM      9  C   UNL     1      -3.937   3.734 -25.426  0.00  0.00    +0.036 C 
ATOM     10  C   UNL     1      -2.793   3.325 -24.966  0.00  0.00    +0.067 C 
ATOM     11  C   UNL     1      -2.405   3.456 -26.200  0.00  0.00    +0.041 C 
ATOM     12  C   UNL     1      -5.405   3.723 -23.259  0.00  0.00    +0.019 C 
ATOM     13  C   UNL     1      -2.925   3.115 -23.690  0.00  0.00    +0.037 C 
ATOM     14  O   UNL     1      -5.968   3.664 -22.146  0.00  0.00    -0.297 OA
ATOM     15  C   UNL     1      -0.061   2.247 -23.336  0.00  0.00    +0.011 C 
ATOM     16  C   UNL     1      -1.957   2.697 -22.929  0.00  0.00    +0.005 C 
ENDROOT
BRANCH  10  17
ATOM     17  O   UNL     1      -1.566   2.944 -24.763  0.00  0.00    -0.389 OA
ATOM     18  H   UNL     1      -1.560   2.190 -24.153  0.00  0.00    +0.210 HD
ENDBRANCH  10  17
TORSDOF 1
ENDMDL
MODEL 2
REMARK VINA RESULT:    -9.719      1.441      3.079
REMARK INTER + INTRA:         -10.003
REMARK INTER:                 -10.003
REMARK INTRA:                   0.000
REMARK UNBOUND:                 0.000
REMARK  Name = ZINC000004104716
REMARK  5 active torsions:
REMARK  status: ('A' for Active; 'I' for Inactive)
REMARK    1  A    between atoms: C_1  and  C_2
REMARK    2  A    between atoms: C_2  and  C_3
REMARK    3  A    between atoms: C_9  and  C_10
REMARK    4  A    between atoms: C_13  and  C_14
REMARK    5  A    between atoms: C_13  and  O_15
REMARK                            x       y       z     vdW  Elec       q    Type
REMARK                         _______ _______ _______ _____ _____    ______ ____
ROOT
ATOM      1  C   UNL     1       0.468   2.239 -23.256  0.00  0.00    +0.011 C 
ATOM      2  C   UNL     1      -0.773   2.396 -22.898  0.00  0.00    -0.028 C 
ATOM      3  C   UNL     1      -1.241   2.985 -23.957  0.00  0.00    -0.001 C 
ATOM      4  C   UNL     1      -1.529   3.560 -25.087  0.00  0.00    +0.012 C 
ATOM      5  C   UNL     1      -2.673   4.029 -25.489  0.00  0.00    +0.075 C 
ATOM      6  C   UNL     1      -3.810   4.040 -24.861  0.00  0.00    +0.140 C 
ATOM      7  C   UNL     1      -4.086   3.585 -23.675  0.00  0.00    +0.032 C 
ATOM      8  C   UNL     1      -5.269   3.648 -23.140  0.00  0.00    +0.017 C 
ATOM      9  C   UNL     1      -5.205   3.108 -21.959  0.00  0.00    +0.036 C 
ATOM     10  C   UNL     1      -3.983   2.711 -21.764  0.00  0.00    +0.067 C 
ATOM     11  C   UNL     1      -4.441   2.316 -20.612  0.00  0.00    +0.041 C 
ATOM     12  C   UNL     1      -5.043   4.133 -24.362  0.00  0.00    +0.019 C 
ATOM     13  C   UNL     1      -3.291   3.005 -22.824  0.00  0.00    +0.037 C 
ATOM     14  O   UNL     1      -4.805   4.578 -25.504  0.00  0.00    -0.297 OA
ATOM     15  C   UNL     1      -0.734   1.861 -21.713  0.00  0.00    +0.011 C 
ATOM     16  C   UNL     1      -2.025   2.738 -22.950  0.00  0.00    +0.005 C 
ENDROOT
BRANCH  10  17
ATOM     17  O   UNL     1      -2.856   2.230 -21.328  0.00  0.00    -0.389 OA
ATOM     18  H   UNL     1      -2.193   2.272 -22.034  0.00  0.00    +0.210 HD
ENDBRANCH  10  17
TORSDOF 1
ENDMDL
MODEL 3
REMARK VINA RESULT:    -9.247      1.160      3.474
REMARK INTER + INTRA:          -9.518
REMARK INTER:                  -9.518
REMARK INTRA:                   0.000
REMARK UNBOUND:                 0.000
REMARK  Name = ZINC000004104716
REMARK  5 active torsions:
REMARK  status: ('A' for Active; 'I' for Inactive)
REMARK    1  A    between atoms: C_1  and  C_2
REMARK    2  A    between atoms: C_2  and  C_3
REMARK    3  A    between atoms: C_9  and  C_10
REMARK    4  A    between atoms: C_13  and  C_14
REMARK    5  A    between atoms: C_13  and  O_15
REMARK                            x       y       z     vdW  Elec       q    Type
REMARK                         _______ _______ _______ _____ _____    ______ ____
ROOT
ATOM      1  C   UNL     1      -4.074   2.485 -20.155  0.00  0.00    +0.011 C 
ATOM      2  C   UNL     1      -3.939   2.771 -21.417  0.00  0.00    -0.028 C 
ATOM      3  C   UNL     1      -2.651   2.641 -21.542  0.00  0.00    -0.001 C 
ATOM      4  C   UNL     1      -1.365   2.467 -21.477  0.00  0.00    +0.012 C 
ATOM      5  C   UNL     1      -0.483   2.585 -22.424  0.00  0.00    +0.075 C 
ATOM      6  C   UNL     1      -0.670   2.906 -23.670  0.00  0.00    +0.140 C 
ATOM      7  C   UNL     1      -1.784   3.189 -24.276  0.00  0.00    +0.032 C 
ATOM      8  C   UNL     1      -1.855   3.499 -25.537  0.00  0.00    +0.017 C 
ATOM      9  C   UNL     1      -3.103   3.723 -25.825  0.00  0.00    +0.036 C 
ATOM     10  C   UNL     1      -3.803   3.550 -24.743  0.00  0.00    +0.067 C 
ATOM     11  C   UNL     1      -4.808   3.858 -25.509  0.00  0.00    +0.041 C 
ATOM     12  C   UNL     1      -0.683   3.218 -24.966  0.00  0.00    +0.019 C 
ATOM     13  C   UNL     1      -2.988   3.220 -23.786  0.00  0.00    +0.037 C 
ATOM     14  O   UNL     1       0.401   2.950 -24.408  0.00  0.00    -0.297 OA
ATOM     15  C   UNL     1      -5.180   2.999 -21.730  0.00  0.00    +0.011 C 
ATOM     16  C   UNL     1      -3.374   2.977 -22.569  0.00  0.00    +0.005 C 
ENDROOT
BRANCH  10  17
ATOM     17  O   UNL     1      -4.714   3.442 -23.821  0.00  0.00    -0.389 OA
ATOM     18  H   UNL     1      -4.524   2.667 -23.271  0.00  0.00    +0.210 HD
ENDBRANCH  10  17
TORSDOF 1
ENDMDL
MODEL 4
REMARK VINA RESULT:    -9.187      0.718      3.378
REMARK INTER + INTRA:          -9.456
REMARK INTER:                  -9.456
REMARK INTRA:                   0.000
REMARK UNBOUND:                 0.000
REMARK  Name = ZINC000004104716
REMARK  5 active torsions:
REMARK  status: ('A' for Active; 'I' for Inactive)
REMARK    1  A    between atoms: C_1  and  C_2
REMARK    2  A    between atoms: C_2  and  C_3
REMARK    3  A    between atoms: C_9  and  C_10
REMARK    4  A    between atoms: C_13  and  C_14
REMARK    5  A    between atoms: C_13  and  O_15
REMARK                            x       y       z     vdW  Elec       q    Type
REMARK                         _______ _______ _______ _____ _____    ______ ____
ROOT
ATOM      1  C   UNL     1      -2.930   3.790 -26.989  0.00  0.00    +0.011 C 
ATOM      2  C   UNL     1      -2.637   3.536 -25.748  0.00  0.00    -0.028 C 
ATOM      3  C   UNL     1      -3.813   3.657 -25.208  0.00  0.00    -0.001 C 
ATOM      4  C   UNL     1      -5.051   3.819 -24.848  0.00  0.00    +0.012 C 
ATOM      5  C   UNL     1      -5.569   3.718 -23.660  0.00  0.00    +0.075 C 
ATOM      6  C   UNL     1      -4.977   3.430 -22.539  0.00  0.00    +0.140 C 
ATOM      7  C   UNL     1      -3.721   3.172 -22.329  0.00  0.00    +0.032 C 
ATOM      8  C   UNL     1      -3.232   2.895 -21.156  0.00  0.00    +0.017 C 
ATOM      9  C   UNL     1      -1.955   2.690 -21.292  0.00  0.00    +0.036 C 
ATOM     10  C   UNL     1      -1.654   2.841 -22.547  0.00  0.00    +0.067 C 
ATOM     11  C   UNL     1      -0.448   2.561 -22.150  0.00  0.00    +0.041 C 
ATOM     12  C   UNL     1      -4.531   3.152 -21.314  0.00  0.00    +0.019 C 
ATOM     13  C   UNL     1      -2.745   3.139 -23.188  0.00  0.00    +0.037 C 
ATOM     14  O   UNL     1      -5.743   3.396 -21.489  0.00  0.00    -0.297 OA
ATOM     15  C   UNL     1      -1.358   3.326 -25.857  0.00  0.00    +0.011 C 
ATOM     16  C   UNL     1      -2.786   3.355 -24.470  0.00  0.00    +0.005 C 
ENDROOT
BRANCH  10  17
ATOM     17  O   UNL     1      -1.101   2.933 -23.720  0.00  0.00    -0.389 OA
ATOM     18  H   UNL     1      -1.304   3.799 -24.105  0.00  0.00    +0.210 HD
ENDBRANCH  10  17
TORSDOF 1
ENDMDL
MODEL 5
REMARK VINA RESULT:    -8.995      1.216      2.099
REMARK INTER + INTRA:          -9.258
REMARK INTER:                  -9.258
REMARK INTRA:                   0.000
REMARK UNBOUND:                 0.000
REMARK  Name = ZINC000004104716
REMARK  5 active torsions:
REMARK  status: ('A' for Active; 'I' for Inactive)
REMARK    1  A    between atoms: C_1  and  C_2
REMARK    2  A    between atoms: C_2  and  C_3
REMARK    3  A    between atoms: C_9  and  C_10
REMARK    4  A    between atoms: C_13  and  C_14
REMARK    5  A    between atoms: C_13  and  O_15
REMARK                            x       y       z     vdW  Elec       q    Type
REMARK                         _______ _______ _______ _____ _____    ______ ____
ROOT
ATOM      1  C   UNL     1       0.570   3.055 -24.350  0.00  0.00    +0.011 C 
ATOM      2  C   UNL     1      -0.714   3.257 -24.304  0.00  0.00    -0.028 C 
ATOM      3  C   UNL     1      -0.956   2.905 -23.076  0.00  0.00    -0.001 C 
ATOM      4  C   UNL     1      -1.006   2.516 -21.837  0.00  0.00    +0.012 C 
ATOM      5  C   UNL     1      -2.040   2.440 -21.053  0.00  0.00    +0.075 C 
ATOM      6  C   UNL     1      -3.279   2.733 -21.315  0.00  0.00    +0.140 C 
ATOM      7  C   UNL     1      -3.790   3.176 -22.425  0.00  0.00    +0.032 C 
ATOM      8  C   UNL     1      -5.054   3.439 -22.577  0.00  0.00    +0.017 C 
ATOM      9  C   UNL     1      -5.233   3.859 -23.795  0.00  0.00    +0.036 C 
ATOM     10  C   UNL     1      -4.080   3.856 -24.395  0.00  0.00    +0.067 C 
ATOM     11  C   UNL     1      -4.761   4.297 -25.411  0.00  0.00    +0.041 C 
ATOM     12  C   UNL     1      -4.584   2.986 -21.414  0.00  0.00    +0.019 C 
ATOM     13  C   UNL     1      -3.188   3.434 -23.549  0.00  0.00    +0.037 C 
ATOM     14  O   UNL     1      -4.118   2.562 -20.336  0.00  0.00    -0.297 OA
ATOM     15  C   UNL     1      -0.918   3.680 -25.516  0.00  0.00    +0.011 C 
ATOM     16  C   UNL     1      -1.926   3.313 -23.838  0.00  0.00    +0.005 C 
ENDROOT
BRANCH  10  17
ATOM     17  O   UNL     1      -3.068   3.945 -25.207  0.00  0.00    -0.389 OA
ATOM     18  H   UNL     1      -2.251   4.044 -24.695  0.00  0.00    +0.210 HD
ENDBRANCH  10  17
TORSDOF 1
ENDMDL
MODEL 6
REMARK VINA RESULT:    -8.655      1.770      4.123
REMARK INTER + INTRA:          -8.908
REMARK INTER:                  -8.908
REMARK INTRA:                   0.000
REMARK UNBOUND:                 0.000
REMARK  Name = ZINC000004104716
REMARK  5 active torsions:
REMARK  status: ('A' for Active; 'I' for Inactive)
REMARK    1  A    between atoms: C_1  and  C_2
REMARK    2  A    between atoms: C_2  and  C_3
REMARK    3  A    between atoms: C_9  and  C_10
REMARK    4  A    between atoms: C_13  and  C_14
REMARK    5  A    between atoms: C_13  and  O_15
REMARK                            x       y       z     vdW  Elec       q    Type
REMARK                         _______ _______ _______ _____ _____    ______ ____
ROOT
ATOM      1  C   UNL     1      -4.485   3.764 -23.940  0.00  0.00    +0.011 C 
ATOM      2  C   UNL     1      -3.200   3.598 -24.061  0.00  0.00    -0.028 C 
ATOM      3  C   UNL     1      -2.946   2.977 -22.947  0.00  0.00    -0.001 C 
ATOM      4  C   UNL     1      -2.882   2.372 -21.799  0.00  0.00    +0.012 C 
ATOM      5  C   UNL     1      -1.840   1.878 -21.200  0.00  0.00    +0.075 C 
ATOM      6  C   UNL     1      -0.604   1.866 -21.602  0.00  0.00    +0.140 C 
ATOM      7  C   UNL     1      -0.105   2.346 -22.702  0.00  0.00    +0.032 C 
ATOM      8  C   UNL     1       1.158   2.279 -23.005  0.00  0.00    +0.017 C 
ATOM      9  C   UNL     1       1.323   2.848 -24.163  0.00  0.00    +0.036 C 
ATOM     10  C   UNL     1       0.164   3.267 -24.575  0.00  0.00    +0.067 C 
ATOM     11  C   UNL     1       0.835   3.682 -25.608  0.00  0.00    +0.041 C 
ATOM     12  C   UNL     1       0.700   1.768 -21.861  0.00  0.00    +0.019 C 
ATOM     13  C   UNL     1      -0.719   2.957 -23.672  0.00  0.00    +0.037 C 
ATOM     14  O   UNL     1       0.246   1.299 -20.798  0.00  0.00    -0.297 OA
ATOM     15  C   UNL     1      -3.009   4.162 -25.217  0.00  0.00    +0.011 C 
ATOM     16  C   UNL     1      -1.983   3.238 -23.782  0.00  0.00    +0.005 C 
ENDROOT
BRANCH  10  17
ATOM     17  O   UNL     1      -0.856   3.773 -25.203  0.00  0.00    -0.389 OA
ATOM     18  H   UNL     1      -1.576   3.124 -25.225  0.00  0.00    +0.210 HD
ENDBRANCH  10  17
TORSDOF 1
ENDMDL
MODEL 7
REMARK VINA RESULT:    -8.626      1.241      2.010
REMARK INTER + INTRA:          -8.878
REMARK INTER:                  -8.878
REMARK INTRA:                   0.000
REMARK UNBOUND:                 0.000
REMARK  Name = ZINC000004104716
REMARK  5 active torsions:
REMARK  status: ('A' for Active; 'I' for Inactive)
REMARK    1  A    between atoms: C_1  and  C_2
REMARK    2  A    between atoms: C_2  and  C_3
REMARK    3  A    between atoms: C_9  and  C_10
REMARK    4  A    between atoms: C_13  and  C_14
REMARK    5  A    between atoms: C_13  and  O_15
REMARK                            x       y       z     vdW  Elec       q    Type
REMARK                         _______ _______ _______ _____ _____    ______ ____
ROOT
ATOM      1  C   UNL     1       1.927   2.512 -23.834  0.00  0.00    +0.011 C 
ATOM      2  C   UNL     1       0.704   2.738 -24.214  0.00  0.00    -0.028 C 
ATOM      3  C   UNL     1       0.085   2.597 -23.080  0.00  0.00    -0.001 C 
ATOM      4  C   UNL     1      -0.359   2.420 -21.872  0.00  0.00    +0.012 C 
ATOM      5  C   UNL     1      -1.583   2.490 -21.439  0.00  0.00    +0.075 C 
ATOM      6  C   UNL     1      -2.665   2.755 -22.109  0.00  0.00    +0.140 C 
ATOM      7  C   UNL     1      -2.791   3.015 -23.376  0.00  0.00    +0.032 C 
ATOM      8  C   UNL     1      -3.932   3.268 -23.945  0.00  0.00    +0.017 C 
ATOM      9  C   UNL     1      -3.711   3.484 -25.208  0.00  0.00    +0.036 C 
ATOM     10  C   UNL     1      -2.434   3.364 -25.420  0.00  0.00    +0.067 C 
ATOM     11  C   UNL     1      -2.751   3.641 -26.650  0.00  0.00    +0.041 C 
ATOM     12  C   UNL     1      -3.861   3.008 -22.639  0.00  0.00    +0.019 C 
ATOM     13  C   UNL     1      -1.865   3.075 -24.287  0.00  0.00    +0.037 C 
ATOM     14  O   UNL     1      -3.768   2.761 -21.419  0.00  0.00    -0.297 OA
ATOM     15  C   UNL     1       0.900   2.958 -25.481  0.00  0.00    +0.011 C 
ATOM     16  C   UNL     1      -0.585   2.889 -24.156  0.00  0.00    +0.005 C 
ENDROOT
BRANCH  10  17
ATOM     17  O   UNL     1      -1.223   3.303 -25.888  0.00  0.00    -0.389 OA
ATOM     18  H   UNL     1      -1.098   2.460 -26.350  0.00  0.00    +0.210 HD
ENDBRANCH  10  17
TORSDOF 1
ENDMDL
MODEL 8
REMARK VINA RESULT:    -7.709      2.430      4.674
REMARK INTER + INTRA:          -7.934
REMARK INTER:                  -7.934
REMARK INTRA:                   0.000
REMARK UNBOUND:                 0.000
REMARK  Name = ZINC000004104716
REMARK  5 active torsions:
REMARK  status: ('A' for Active; 'I' for Inactive)
REMARK    1  A    between atoms: C_1  and  C_2
REMARK    2  A    between atoms: C_2  and  C_3
REMARK    3  A    between atoms: C_9  and  C_10
REMARK    4  A    between atoms: C_13  and  C_14
REMARK    5  A    between atoms: C_13  and  O_15
REMARK                            x       y       z     vdW  Elec       q    Type
REMARK                         _______ _______ _______ _____ _____    ______ ____
ROOT
ATOM      1  C   UNL     1       4.064   3.366 -23.635  0.00  0.00    +0.011 C 
ATOM      2  C   UNL     1       2.877   3.013 -23.237  0.00  0.00    -0.028 C 
ATOM      3  C   UNL     1       2.163   3.456 -24.229  0.00  0.00    -0.001 C 
ATOM      4  C   UNL     1       1.619   3.960 -25.296  0.00  0.00    +0.012 C 
ATOM      5  C   UNL     1       0.362   3.987 -25.628  0.00  0.00    +0.075 C 
ATOM      6  C   UNL     1      -0.659   3.518 -24.975  0.00  0.00    +0.140 C 
ATOM      7  C   UNL     1      -0.677   2.905 -23.829  0.00  0.00    +0.032 C 
ATOM      8  C   UNL     1      -1.766   2.475 -23.264  0.00  0.00    +0.017 C 
ATOM      9  C   UNL     1      -1.438   1.914 -22.137  0.00  0.00    +0.036 C 
ATOM     10  C   UNL     1      -0.147   1.998 -22.006  0.00  0.00    +0.067 C 
ATOM     11  C   UNL     1      -0.358   1.375 -20.884  0.00  0.00    +0.041 C 
ATOM     12  C   UNL     1      -1.806   3.098 -24.442  0.00  0.00    +0.019 C 
ATOM     13  C   UNL     1       0.323   2.611 -23.052  0.00  0.00    +0.037 C 
ATOM     14  O   UNL     1      -1.817   3.683 -25.545  0.00  0.00    -0.297 OA
ATOM     15  C   UNL     1       3.180   2.447 -22.106  0.00  0.00    +0.011 C 
ATOM     16  C   UNL     1       1.587   2.856 -23.230  0.00  0.00    +0.005 C 
ENDROOT
BRANCH  10  17
ATOM     17  O   UNL     1       1.100   1.952 -21.641  0.00  0.00    -0.389 OA
ATOM     18  H   UNL     1       1.197   2.373 -20.773  0.00  0.00    +0.210 HD
ENDBRANCH  10  17
TORSDOF 1
ENDMDL
MODEL 9
REMARK VINA RESULT:    -7.433      4.660      7.155
REMARK INTER + INTRA:          -7.650
REMARK INTER:                  -7.650
REMARK INTRA:                   0.000
REMARK UNBOUND:                 0.000
REMARK  Name = ZINC000004104716
REMARK  5 active torsions:
REMARK  status: ('A' for Active; 'I' for Inactive)
REMARK    1  A    between atoms: C_1  and  C_2
REMARK    2  A    between atoms: C_2  and  C_3
REMARK    3  A    between atoms: C_9  and  C_10
REMARK    4  A    between atoms: C_13  and  C_14
REMARK    5  A    between atoms: C_13  and  O_15
REMARK                            x       y       z     vdW  Elec       q    Type
REMARK                         _______ _______ _______ _____ _____    ______ ____
ROOT
ATOM      1  C   UNL     1       0.113   4.831 -23.566  0.00  0.00    +0.011 C 
ATOM      2  C   UNL     1       1.343   4.475 -23.341  0.00  0.00    -0.028 C 
ATOM      3  C   UNL     1       1.152   3.266 -22.902  0.00  0.00    -0.001 C 
ATOM      4  C   UNL     1       0.772   2.093 -22.491  0.00  0.00    +0.012 C 
ATOM      5  C   UNL     1       1.504   1.107 -22.067  0.00  0.00    +0.075 C 
ATOM      6  C   UNL     1       2.797   1.049 -21.950  0.00  0.00    +0.140 C 
ATOM      7  C   UNL     1       3.678   1.964 -22.227  0.00  0.00    +0.032 C 
ATOM      8  C   UNL     1       4.958   1.798 -22.069  0.00  0.00    +0.017 C 
ATOM      9  C   UNL     1       5.553   2.894 -22.436  0.00  0.00    +0.036 C 
ATOM     10  C   UNL     1       4.641   3.738 -22.819  0.00  0.00    +0.067 C 
ATOM     11  C   UNL     1       5.655   4.523 -23.038  0.00  0.00    +0.041 C 
ATOM     12  C   UNL     1       4.098   0.823 -21.768  0.00  0.00    +0.019 C 
ATOM     13  C   UNL     1       3.483   3.163 -22.690  0.00  0.00    +0.037 C 
ATOM     14  O   UNL     1       3.273  -0.072 -21.494  0.00  0.00    -0.297 OA
ATOM     15  C   UNL     1       1.961   5.561 -23.701  0.00  0.00    +0.011 C 
ATOM     16  C   UNL     1       2.359   3.743 -22.991  0.00  0.00    +0.005 C 
ENDROOT
BRANCH  10  17
ATOM     17  O   UNL     1       3.942   4.746 -23.249  0.00  0.00    -0.389 OA
ATOM     18  H   UNL     1       4.255   5.560 -22.826  0.00  0.00    +0.210 HD
ENDBRANCH  10  17
TORSDOF 1
ENDMDL
