MODEL 1
REMARK VINA RESULT:    -7.915      0.000      0.000
REMARK INTER + INTRA:         -15.253
REMARK INTER:                 -13.000
REMARK INTRA:                  -2.253
REMARK UNBOUND:                -1.785
REMARK  Name = CCCCCCCCCCCC(=O)C1=C(O)C[C@@H](CCC)OC1=O                             ZINC000100393267
REMARK  14 active torsions:
REMARK  status: ('A' for Active; 'I' for Inactive)
REMARK    1  A    between atoms: C_1  and  C_2
REMARK    2  A    between atoms: C_2  and  C_3
REMARK    3  A    between atoms: C_3  and  C_4
REMARK    4  A    between atoms: C_4  and  C_5
REMARK    5  A    between atoms: C_5  and  C_6
REMARK    6  A    between atoms: C_6  and  C_7
REMARK    7  A    between atoms: C_7  and  C_8
REMARK    8  A    between atoms: C_8  and  C_9
REMARK    9  A    between atoms: C_9  and  C_10
REMARK   10  A    between atoms: C_10  and  C_11
REMARK   11  A    between atoms: C_11  and  C_12
REMARK   12  A    between atoms: C_18  and  C_19
REMARK   13  A    between atoms: C_19  and  C_20
REMARK   14  A    between atoms: C_20  and  C_21
REMARK                            x       y       z     vdW  Elec       q    Type
REMARK                         _______ _______ _______ _____ _____    ______ ____
ROOT
ATOM      1  C   UNL     1       0.015   2.394 -23.016  0.00  0.00    -0.121 C 
ATOM      2  C   UNL     1       1.229   2.857 -22.979  0.00  0.00    -0.109 C 
ATOM      3  C   UNL     1       1.505   4.003 -23.529  0.00  0.00    +0.195 C 
ATOM      4  C   UNL     1       2.718   4.466 -23.493  0.00  0.00    +0.131 C 
ATOM      5  C   UNL     1       3.657   3.783 -22.908  0.00  0.00    +0.180 C 
ATOM      6  O   UNL     1       3.382   2.638 -22.358  0.00  0.00    -0.501 OA
ATOM      7  O   UNL     1       0.565   4.685 -24.115  0.00  0.00    -0.284 OA
ATOM      8  C   UNL     1       2.168   2.175 -22.394  0.00  0.00    +0.056 C 
ATOM      9  O   UNL     1       1.893   1.030 -21.844  0.00  0.00    -0.795 OA
ATOM     10  O   UNL     1      -0.261   1.249 -22.466  0.00  0.00    -0.826 OA
ENDROOT
BRANCH   1  11
ATOM     11  C   UNL     1      -0.924   3.077 -23.601  0.00  0.00    +0.021 C 
BRANCH  11  12
ATOM     12  C   UNL     1      -1.936   2.462 -24.137  0.00  0.00    +0.004 C 
BRANCH  12  13
ATOM     13  C   UNL     1      -2.544   2.982 -25.162  0.00  0.00    +0.000 C 
BRANCH  13  14
ATOM     14  C   UNL     1      -3.311   4.020 -25.005  0.00  0.00    +0.000 C 
BRANCH  14  15
ATOM     15  C   UNL     1      -4.601   3.871 -24.951  0.00  0.00    +0.000 C 
BRANCH  15  16
ATOM     16  C   UNL     1      -5.257   4.263 -23.898  0.00  0.00    +0.000 C 
BRANCH  16  17
ATOM     17  C   UNL     1      -5.643   3.395 -23.011  0.00  0.00    -0.000 C 
BRANCH  17  18
ATOM     18  C   UNL     1      -5.164   3.444 -21.804  0.00  0.00    -0.000 C 
BRANCH  18  19
ATOM     19  C   UNL     1      -4.293   2.561 -21.413  0.00  0.00    -0.000 C 
BRANCH  19  21
ATOM     20  C   UNL     1      -2.924   4.161 -20.619  0.00  0.00    +0.004 C 
ATOM     21  C   UNL     1      -3.301   2.918 -20.653  0.00  0.00    -0.003 C 
ENDBRANCH  19  21
ENDBRANCH  18  19
ENDBRANCH  17  18
ENDBRANCH  16  17
ENDBRANCH  15  16
ENDBRANCH  14  15
ENDBRANCH  13  14
ENDBRANCH  12  13
ENDBRANCH  11  12
ENDBRANCH   1  11
BRANCH   5  22
ATOM     22  C   UNL     1       4.872   4.246 -22.872  0.00  0.00    +0.045 C 
BRANCH  22  23
ATOM     23  C   UNL     1       5.874   3.431 -22.733  0.00  0.00    +0.000 C 
ATOM     24  C   UNL     1       6.734   3.616 -21.775  0.00  0.00    +0.004 C 
ENDBRANCH  22  23
ENDBRANCH   5  22
TORSDOF 12
ENDMDL
MODEL 2
REMARK VINA RESULT:    -7.825      1.105      2.529
REMARK INTER + INTRA:         -15.099
REMARK INTER:                 -13.082
REMARK INTRA:                  -2.017
REMARK UNBOUND:                -1.785
REMARK  Name = CCCCCCCCCCCC(=O)C1=C(O)C[C@@H](CCC)OC1=O                             ZINC000100393267
REMARK  14 active torsions:
REMARK  status: ('A' for Active; 'I' for Inactive)
REMARK    1  A    between atoms: C_1  and  C_2
REMARK    2  A    between atoms: C_2  and  C_3
REMARK    3  A    between atoms: C_3  and  C_4
REMARK    4  A    between atoms: C_4  and  C_5
REMARK    5  A    between atoms: C_5  and  C_6
REMARK    6  A    between atoms: C_6  and  C_7
REMARK    7  A    between atoms: C_7  and  C_8
REMARK    8  A    between atoms: C_8  and  C_9
REMARK    9  A    between atoms: C_9  and  C_10
REMARK   10  A    between atoms: C_10  and  C_11
REMARK   11  A    between atoms: C_11  and  C_12
REMARK   12  A    between atoms: C_18  and  C_19
REMARK   13  A    between atoms: C_19  and  C_20
REMARK   14  A    between atoms: C_20  and  C_21
REMARK                            x       y       z     vdW  Elec       q    Type
REMARK                         _______ _______ _______ _____ _____    ______ ____
ROOT
ATOM      1  C   UNL     1       0.353   1.719 -21.816  0.00  0.00    -0.121 C 
ATOM      2  C   UNL     1       1.525   2.059 -22.266  0.00  0.00    -0.109 C 
ATOM      3  C   UNL     1       1.630   2.660 -23.414  0.00  0.00    +0.195 C 
ATOM      4  C   UNL     1       2.801   3.001 -23.864  0.00  0.00    +0.131 C 
ATOM      5  C   UNL     1       3.866   2.740 -23.167  0.00  0.00    +0.180 C 
ATOM      6  O   UNL     1       3.761   2.139 -22.019  0.00  0.00    -0.501 OA
ATOM      7  O   UNL     1       0.564   2.921 -24.111  0.00  0.00    -0.284 OA
ATOM      8  C   UNL     1       2.590   1.798 -21.569  0.00  0.00    +0.056 C 
ATOM      9  O   UNL     1       2.485   1.197 -20.421  0.00  0.00    -0.795 OA
ATOM     10  O   UNL     1       0.248   1.117 -20.668  0.00  0.00    -0.826 OA
ENDROOT
BRANCH   1  11
ATOM     11  C   UNL     1      -0.712   1.979 -22.513  0.00  0.00    +0.021 C 
BRANCH  11  12
ATOM     12  C   UNL     1      -1.841   2.213 -21.912  0.00  0.00    +0.004 C 
BRANCH  12  13
ATOM     13  C   UNL     1      -2.108   3.406 -21.470  0.00  0.00    +0.000 C 
BRANCH  13  14
ATOM     14  C   UNL     1      -3.246   3.643 -20.887  0.00  0.00    +0.000 C 
BRANCH  14  15
ATOM     15  C   UNL     1      -4.309   2.990 -21.251  0.00  0.00    +0.000 C 
BRANCH  15  16
ATOM     16  C   UNL     1      -5.242   3.592 -21.929  0.00  0.00    +0.000 C 
BRANCH  16  17
ATOM     17  C   UNL     1      -5.376   3.356 -23.200  0.00  0.00    -0.000 C 
BRANCH  17  18
ATOM     18  C   UNL     1      -5.090   4.281 -24.067  0.00  0.00    -0.000 C 
BRANCH  18  19
ATOM     19  C   UNL     1      -4.368   3.994 -25.110  0.00  0.00    -0.000 C 
BRANCH  19  21
ATOM     20  C   UNL     1      -2.371   3.450 -25.995  0.00  0.00    +0.004 C 
ATOM     21  C   UNL     1      -3.076   3.900 -25.000  0.00  0.00    -0.003 C 
ENDBRANCH  19  21
ENDBRANCH  18  19
ENDBRANCH  17  18
ENDBRANCH  16  17
ENDBRANCH  15  16
ENDBRANCH  14  15
ENDBRANCH  13  14
ENDBRANCH  12  13
ENDBRANCH  11  12
ENDBRANCH   1  11
BRANCH   5  22
ATOM     22  C   UNL     1       5.038   3.080 -23.617  0.00  0.00    +0.045 C 
BRANCH  22  23
ATOM     23  C   UNL     1       5.883   3.687 -22.838  0.00  0.00    +0.000 C 
ATOM     24  C   UNL     1       5.927   4.986 -22.814  0.00  0.00    +0.004 C 
ENDBRANCH  22  23
ENDBRANCH   5  22
TORSDOF 12
ENDMDL
MODEL 3
REMARK VINA RESULT:    -7.801      1.439      2.228
REMARK INTER + INTRA:         -15.058
REMARK INTER:                 -13.385
REMARK INTRA:                  -1.673
REMARK UNBOUND:                -1.785
REMARK  Name = CCCCCCCCCCCC(=O)C1=C(O)C[C@@H](CCC)OC1=O                             ZINC000100393267
REMARK  14 active torsions:
REMARK  status: ('A' for Active; 'I' for Inactive)
REMARK    1  A    between atoms: C_1  and  C_2
REMARK    2  A    between atoms: C_2  and  C_3
REMARK    3  A    between atoms: C_3  and  C_4
REMARK    4  A    between atoms: C_4  and  C_5
REMARK    5  A    between atoms: C_5  and  C_6
REMARK    6  A    between atoms: C_6  and  C_7
REMARK    7  A    between atoms: C_7  and  C_8
REMARK    8  A    between atoms: C_8  and  C_9
REMARK    9  A    between atoms: C_9  and  C_10
REMARK   10  A    between atoms: C_10  and  C_11
REMARK   11  A    between atoms: C_11  and  C_12
REMARK   12  A    between atoms: C_18  and  C_19
REMARK   13  A    between atoms: C_19  and  C_20
REMARK   14  A    between atoms: C_20  and  C_21
REMARK                            x       y       z     vdW  Elec       q    Type
REMARK                         _______ _______ _______ _____ _____    ______ ____
ROOT
ATOM      1  C   UNL     1       0.445   4.014 -23.849  0.00  0.00    -0.121 C 
ATOM      2  C   UNL     1       1.470   3.489 -23.245  0.00  0.00    -0.109 C 
ATOM      3  C   UNL     1       1.455   2.232 -22.914  0.00  0.00    +0.195 C 
ATOM      4  C   UNL     1       2.479   1.706 -22.310  0.00  0.00    +0.131 C 
ATOM      5  C   UNL     1       3.518   2.437 -22.038  0.00  0.00    +0.180 C 
ATOM      6  O   UNL     1       3.533   3.694 -22.369  0.00  0.00    -0.501 OA
ATOM      7  O   UNL     1       0.414   1.500 -23.186  0.00  0.00    -0.284 OA
ATOM      8  C   UNL     1       2.509   4.220 -22.973  0.00  0.00    +0.056 C 
ATOM      9  O   UNL     1       2.525   5.477 -23.304  0.00  0.00    -0.795 OA
ATOM     10  O   UNL     1       0.460   5.271 -24.180  0.00  0.00    -0.826 OA
ENDROOT
BRANCH   1  11
ATOM     11  C   UNL     1      -0.594   3.283 -24.121  0.00  0.00    +0.021 C 
BRANCH  11  12
ATOM     12  C   UNL     1      -1.440   3.668 -25.029  0.00  0.00    +0.004 C 
BRANCH  12  13
ATOM     13  C   UNL     1      -2.610   4.116 -24.680  0.00  0.00    +0.000 C 
BRANCH  13  14
ATOM     14  C   UNL     1      -3.620   3.997 -25.490  0.00  0.00    +0.000 C 
BRANCH  14  15
ATOM     15  C   UNL     1      -4.795   3.698 -25.023  0.00  0.00    +0.000 C 
BRANCH  15  16
ATOM     16  C   UNL     1      -5.202   4.219 -23.902  0.00  0.00    +0.000 C 
BRANCH  16  17
ATOM     17  C   UNL     1      -5.657   3.453 -22.957  0.00  0.00    -0.000 C 
BRANCH  17  18
ATOM     18  C   UNL     1      -5.056   3.414 -21.805  0.00  0.00    -0.000 C 
BRANCH  18  19
ATOM     19  C   UNL     1      -4.020   2.646 -21.638  0.00  0.00    -0.000 C 
BRANCH  19  21
ATOM     20  C   UNL     1      -3.053   3.747 -19.929  0.00  0.00    +0.004 C 
ATOM     21  C   UNL     1      -2.953   3.110 -21.058  0.00  0.00    -0.003 C 
ENDBRANCH  19  21
ENDBRANCH  18  19
ENDBRANCH  17  18
ENDBRANCH  16  17
ENDBRANCH  15  16
ENDBRANCH  14  15
ENDBRANCH  13  14
ENDBRANCH  12  13
ENDBRANCH  11  12
ENDBRANCH   1  11
BRANCH   5  22
ATOM     22  C   UNL     1       4.543   1.912 -21.434  0.00  0.00    +0.045 C 
BRANCH  22  23
ATOM     23  C   UNL     1       4.803   0.646 -21.576  0.00  0.00    +0.000 C 
ATOM     24  C   UNL     1       5.204  -0.053 -20.556  0.00  0.00    +0.004 C 
ENDBRANCH  22  23
ENDBRANCH   5  22
TORSDOF 12
ENDMDL
MODEL 4
REMARK VINA RESULT:    -7.620      1.092      3.143
REMARK INTER + INTRA:         -14.750
REMARK INTER:                 -12.919
REMARK INTRA:                  -1.831
REMARK UNBOUND:                -1.785
REMARK  Name = CCCCCCCCCCCC(=O)C1=C(O)C[C@@H](CCC)OC1=O                             ZINC000100393267
REMARK  14 active torsions:
REMARK  status: ('A' for Active; 'I' for Inactive)
REMARK    1  A    between atoms: C_1  and  C_2
REMARK    2  A    between atoms: C_2  and  C_3
REMARK    3  A    between atoms: C_3  and  C_4
REMARK    4  A    between atoms: C_4  and  C_5
REMARK    5  A    between atoms: C_5  and  C_6
REMARK    6  A    between atoms: C_6  and  C_7
REMARK    7  A    between atoms: C_7  and  C_8
REMARK    8  A    between atoms: C_8  and  C_9
REMARK    9  A    between atoms: C_9  and  C_10
REMARK   10  A    between atoms: C_10  and  C_11
REMARK   11  A    between atoms: C_11  and  C_12
REMARK   12  A    between atoms: C_18  and  C_19
REMARK   13  A    between atoms: C_19  and  C_20
REMARK   14  A    between atoms: C_20  and  C_21
REMARK                            x       y       z     vdW  Elec       q    Type
REMARK                         _______ _______ _______ _____ _____    ______ ____
ROOT
ATOM      1  C   UNL     1      -0.297   3.990 -23.148  0.00  0.00    -0.121 C 
ATOM      2  C   UNL     1       0.932   3.582 -23.273  0.00  0.00    -0.109 C 
ATOM      3  C   UNL     1       1.239   2.350 -22.997  0.00  0.00    +0.195 C 
ATOM      4  C   UNL     1       2.466   1.942 -23.121  0.00  0.00    +0.131 C 
ATOM      5  C   UNL     1       3.387   2.767 -23.523  0.00  0.00    +0.180 C 
ATOM      6  O   UNL     1       3.080   3.999 -23.800  0.00  0.00    -0.501 OA
ATOM      7  O   UNL     1       0.317   1.525 -22.594  0.00  0.00    -0.284 OA
ATOM      8  C   UNL     1       1.852   4.407 -23.675  0.00  0.00    +0.056 C 
ATOM      9  O   UNL     1       1.545   5.640 -23.952  0.00  0.00    -0.795 OA
ATOM     10  O   UNL     1      -0.604   5.223 -23.425  0.00  0.00    -0.826 OA
ENDROOT
BRANCH   1  11
ATOM     11  C   UNL     1      -1.218   3.165 -22.746  0.00  0.00    +0.021 C 
BRANCH  11  12
ATOM     12  C   UNL     1      -2.029   3.513 -21.793  0.00  0.00    +0.004 C 
BRANCH  12  13
ATOM     13  C   UNL     1      -2.686   2.603 -21.134  0.00  0.00    +0.000 C 
BRANCH  13  14
ATOM     14  C   UNL     1      -3.978   2.523 -21.250  0.00  0.00    +0.000 C 
BRANCH  14  15
ATOM     15  C   UNL     1      -4.655   3.543 -21.686  0.00  0.00    +0.000 C 
BRANCH  15  16
ATOM     16  C   UNL     1      -5.577   3.375 -22.588  0.00  0.00    +0.000 C 
BRANCH  16  17
ATOM     17  C   UNL     1      -5.542   4.064 -23.690  0.00  0.00    -0.000 C 
BRANCH  17  18
ATOM     18  C   UNL     1      -4.836   3.643 -24.697  0.00  0.00    -0.000 C 
BRANCH  18  19
ATOM     19  C   UNL     1      -3.823   4.342 -25.118  0.00  0.00    -0.000 C 
BRANCH  19  21
ATOM     20  C   UNL     1      -3.199   3.464 -27.095  0.00  0.00    +0.004 C 
ATOM     21  C   UNL     1      -2.918   3.787 -25.867  0.00  0.00    -0.003 C 
ENDBRANCH  19  21
ENDBRANCH  18  19
ENDBRANCH  17  18
ENDBRANCH  16  17
ENDBRANCH  15  16
ENDBRANCH  14  15
ENDBRANCH  13  14
ENDBRANCH  12  13
ENDBRANCH  11  12
ENDBRANCH   1  11
BRANCH   5  22
ATOM     22  C   UNL     1       4.616   2.359 -23.649  0.00  0.00    +0.045 C 
BRANCH  22  23
ATOM     23  C   UNL     1       5.594   3.103 -23.224  0.00  0.00    +0.000 C 
ATOM     24  C   UNL     1       5.952   3.053 -21.975  0.00  0.00    +0.004 C 
ENDBRANCH  22  23
ENDBRANCH   5  22
TORSDOF 12
ENDMDL
MODEL 5
REMARK VINA RESULT:    -7.287      1.558      2.956
REMARK INTER + INTRA:         -14.184
REMARK INTER:                 -12.216
REMARK INTRA:                  -1.969
REMARK UNBOUND:                -1.785
REMARK  Name = CCCCCCCCCCCC(=O)C1=C(O)C[C@@H](CCC)OC1=O                             ZINC000100393267
REMARK  14 active torsions:
REMARK  status: ('A' for Active; 'I' for Inactive)
REMARK    1  A    between atoms: C_1  and  C_2
REMARK    2  A    between atoms: C_2  and  C_3
REMARK    3  A    between atoms: C_3  and  C_4
REMARK    4  A    between atoms: C_4  and  C_5
REMARK    5  A    between atoms: C_5  and  C_6
REMARK    6  A    between atoms: C_6  and  C_7
REMARK    7  A    between atoms: C_7  and  C_8
REMARK    8  A    between atoms: C_8  and  C_9
REMARK    9  A    between atoms: C_9  and  C_10
REMARK   10  A    between atoms: C_10  and  C_11
REMARK   11  A    between atoms: C_11  and  C_12
REMARK   12  A    between atoms: C_18  and  C_19
REMARK   13  A    between atoms: C_19  and  C_20
REMARK   14  A    between atoms: C_20  and  C_21
REMARK                            x       y       z     vdW  Elec       q    Type
REMARK                         _______ _______ _______ _____ _____    ______ ____
ROOT
ATOM      1  C   UNL     1       0.091   1.666 -22.388  0.00  0.00    -0.121 C 
ATOM      2  C   UNL     1       1.387   1.681 -22.274  0.00  0.00    -0.109 C 
ATOM      3  C   UNL     1       1.936   1.616 -21.097  0.00  0.00    +0.195 C 
ATOM      4  C   UNL     1       3.230   1.630 -20.983  0.00  0.00    +0.131 C 
ATOM      5  C   UNL     1       3.976   1.710 -22.044  0.00  0.00    +0.180 C 
ATOM      6  O   UNL     1       3.427   1.774 -23.221  0.00  0.00    -0.501 OA
ATOM      7  O   UNL     1       1.189   1.536 -20.035  0.00  0.00    -0.284 OA
ATOM      8  C   UNL     1       2.132   1.760 -23.336  0.00  0.00    +0.056 C 
ATOM      9  O   UNL     1       1.583   1.825 -24.512  0.00  0.00    -0.795 OA
ATOM     10  O   UNL     1      -0.458   1.731 -23.565  0.00  0.00    -0.826 OA
ENDROOT
BRANCH   1  11
ATOM     11  C   UNL     1      -0.654   1.587 -21.326  0.00  0.00    +0.021 C 
BRANCH  11  12
ATOM     12  C   UNL     1      -1.928   1.832 -21.407  0.00  0.00    +0.004 C 
BRANCH  12  13
ATOM     13  C   UNL     1      -2.399   2.971 -20.994  0.00  0.00    +0.000 C 
BRANCH  13  14
ATOM     14  C   UNL     1      -3.675   3.111 -20.790  0.00  0.00    +0.000 C 
BRANCH  14  15
ATOM     15  C   UNL     1      -4.513   2.925 -21.766  0.00  0.00    +0.000 C 
BRANCH  15  16
ATOM     16  C   UNL     1      -4.515   3.733 -22.785  0.00  0.00    +0.000 C 
BRANCH  16  17
ATOM     17  C   UNL     1      -4.367   3.263 -23.988  0.00  0.00    -0.000 C 
BRANCH  17  18
ATOM     18  C   UNL     1      -3.494   3.795 -24.790  0.00  0.00    -0.000 C 
BRANCH  18  19
ATOM     19  C   UNL     1      -2.731   4.762 -24.372  0.00  0.00    -0.000 C 
BRANCH  19  21
ATOM     20  C   UNL     1      -0.806   5.199 -23.291  0.00  0.00    +0.004 C 
ATOM     21  C   UNL     1      -1.455   4.565 -24.222  0.00  0.00    -0.003 C 
ENDBRANCH  19  21
ENDBRANCH  18  19
ENDBRANCH  17  18
ENDBRANCH  16  17
ENDBRANCH  15  16
ENDBRANCH  14  15
ENDBRANCH  13  14
ENDBRANCH  12  13
ENDBRANCH  11  12
ENDBRANCH   1  11
BRANCH   5  22
ATOM     22  C   UNL     1       5.271   1.724 -21.930  0.00  0.00    +0.045 C 
BRANCH  22  23
ATOM     23  C   UNL     1       5.877   2.804 -21.533  0.00  0.00    +0.000 C 
ATOM     24  C   UNL     1       6.158   3.742 -22.388  0.00  0.00    +0.004 C 
ENDBRANCH  22  23
ENDBRANCH   5  22
TORSDOF 12
ENDMDL
MODEL 6
REMARK VINA RESULT:    -7.133      1.631      2.655
REMARK INTER + INTRA:         -13.922
REMARK INTER:                 -12.097
REMARK INTRA:                  -1.825
REMARK UNBOUND:                -1.785
REMARK  Name = CCCCCCCCCCCC(=O)C1=C(O)C[C@@H](CCC)OC1=O                             ZINC000100393267
REMARK  14 active torsions:
REMARK  status: ('A' for Active; 'I' for Inactive)
REMARK    1  A    between atoms: C_1  and  C_2
REMARK    2  A    between atoms: C_2  and  C_3
REMARK    3  A    between atoms: C_3  and  C_4
REMARK    4  A    between atoms: C_4  and  C_5
REMARK    5  A    between atoms: C_5  and  C_6
REMARK    6  A    between atoms: C_6  and  C_7
REMARK    7  A    between atoms: C_7  and  C_8
REMARK    8  A    between atoms: C_8  and  C_9
REMARK    9  A    between atoms: C_9  and  C_10
REMARK   10  A    between atoms: C_10  and  C_11
REMARK   11  A    between atoms: C_11  and  C_12
REMARK   12  A    between atoms: C_18  and  C_19
REMARK   13  A    between atoms: C_19  and  C_20
REMARK   14  A    between atoms: C_20  and  C_21
REMARK                            x       y       z     vdW  Elec       q    Type
REMARK                         _______ _______ _______ _____ _____    ______ ____
ROOT
ATOM      1  C   UNL     1       0.980   4.140 -24.273  0.00  0.00    -0.121 C 
ATOM      2  C   UNL     1       2.195   3.802 -23.956  0.00  0.00    -0.109 C 
ATOM      3  C   UNL     1       2.668   2.650 -24.328  0.00  0.00    +0.195 C 
ATOM      4  C   UNL     1       3.882   2.313 -24.012  0.00  0.00    +0.131 C 
ATOM      5  C   UNL     1       4.624   3.128 -23.323  0.00  0.00    +0.180 C 
ATOM      6  O   UNL     1       4.151   4.280 -22.950  0.00  0.00    -0.501 OA
ATOM      7  O   UNL     1       1.925   1.835 -25.018  0.00  0.00    -0.284 OA
ATOM      8  C   UNL     1       2.937   4.617 -23.267  0.00  0.00    +0.056 C 
ATOM      9  O   UNL     1       2.464   5.770 -22.894  0.00  0.00    -0.795 OA
ATOM     10  O   UNL     1       0.507   5.292 -23.900  0.00  0.00    -0.826 OA
ENDROOT
BRANCH   1  11
ATOM     11  C   UNL     1       0.238   3.325 -24.962  0.00  0.00    +0.021 C 
BRANCH  11  12
ATOM     12  C   UNL     1      -0.878   3.743 -25.480  0.00  0.00    +0.004 C 
BRANCH  12  13
ATOM     13  C   UNL     1      -2.012   3.277 -25.045  0.00  0.00    +0.000 C 
BRANCH  13  14
ATOM     14  C   UNL     1      -2.912   4.090 -24.576  0.00  0.00    +0.000 C 
BRANCH  14  15
ATOM     15  C   UNL     1      -3.952   3.618 -23.955  0.00  0.00    +0.000 C 
BRANCH  15  16
ATOM     16  C   UNL     1      -3.871   3.307 -22.695  0.00  0.00    +0.000 C 
BRANCH  16  17
ATOM     17  C   UNL     1      -2.829   3.659 -22.003  0.00  0.00    -0.000 C 
BRANCH  17  18
ATOM     18  C   UNL     1      -2.274   2.813 -21.188  0.00  0.00    -0.000 C 
BRANCH  18  19
ATOM     19  C   UNL     1      -1.415   1.945 -21.636  0.00  0.00    -0.000 C 
BRANCH  19  21
ATOM     20  C   UNL     1       0.752   1.341 -21.696  0.00  0.00    +0.004 C 
ATOM     21  C   UNL     1      -0.273   1.791 -21.036  0.00  0.00    -0.003 C 
ENDBRANCH  19  21
ENDBRANCH  18  19
ENDBRANCH  17  18
ENDBRANCH  16  17
ENDBRANCH  15  16
ENDBRANCH  14  15
ENDBRANCH  13  14
ENDBRANCH  12  13
ENDBRANCH  11  12
ENDBRANCH   1  11
BRANCH   5  22
ATOM     22  C   UNL     1       5.839   2.790 -23.005  0.00  0.00    +0.045 C 
BRANCH  22  23
ATOM     23  C   UNL     1       6.807   3.648 -23.135  0.00  0.00    +0.000 C 
ATOM     24  C   UNL     1       7.748   3.438 -24.007  0.00  0.00    +0.004 C 
ENDBRANCH  22  23
ENDBRANCH   5  22
TORSDOF 12
ENDMDL
MODEL 7
REMARK VINA RESULT:    -7.101      1.441      2.990
REMARK INTER + INTRA:         -13.867
REMARK INTER:                 -12.495
REMARK INTRA:                  -1.372
REMARK UNBOUND:                -1.785
REMARK  Name = CCCCCCCCCCCC(=O)C1=C(O)C[C@@H](CCC)OC1=O                             ZINC000100393267
REMARK  14 active torsions:
REMARK  status: ('A' for Active; 'I' for Inactive)
REMARK    1  A    between atoms: C_1  and  C_2
REMARK    2  A    between atoms: C_2  and  C_3
REMARK    3  A    between atoms: C_3  and  C_4
REMARK    4  A    between atoms: C_4  and  C_5
REMARK    5  A    between atoms: C_5  and  C_6
REMARK    6  A    between atoms: C_6  and  C_7
REMARK    7  A    between atoms: C_7  and  C_8
REMARK    8  A    between atoms: C_8  and  C_9
REMARK    9  A    between atoms: C_9  and  C_10
REMARK   10  A    between atoms: C_10  and  C_11
REMARK   11  A    between atoms: C_11  and  C_12
REMARK   12  A    between atoms: C_18  and  C_19
REMARK   13  A    between atoms: C_19  and  C_20
REMARK   14  A    between atoms: C_20  and  C_21
REMARK                            x       y       z     vdW  Elec       q    Type
REMARK                         _______ _______ _______ _____ _____    ______ ____
ROOT
ATOM      1  C   UNL     1       1.434   4.145 -23.975  0.00  0.00    -0.121 C 
ATOM      2  C   UNL     1       2.690   4.068 -23.644  0.00  0.00    -0.109 C 
ATOM      3  C   UNL     1       3.342   2.958 -23.824  0.00  0.00    +0.195 C 
ATOM      4  C   UNL     1       4.596   2.880 -23.493  0.00  0.00    +0.131 C 
ATOM      5  C   UNL     1       5.198   3.913 -22.982  0.00  0.00    +0.180 C 
ATOM      6  O   UNL     1       4.546   5.023 -22.802  0.00  0.00    -0.501 OA
ATOM      7  O   UNL     1       2.739   1.925 -24.335  0.00  0.00    -0.284 OA
ATOM      8  C   UNL     1       3.292   5.100 -23.133  0.00  0.00    +0.056 C 
ATOM      9  O   UNL     1       2.639   6.210 -22.953  0.00  0.00    -0.795 OA
ATOM     10  O   UNL     1       0.782   5.255 -23.795  0.00  0.00    -0.826 OA
ENDROOT
BRANCH   1  11
ATOM     11  C   UNL     1       0.832   3.113 -24.486  0.00  0.00    +0.021 C 
BRANCH  11  12
ATOM     12  C   UNL     1      -0.384   2.827 -24.128  0.00  0.00    +0.004 C 
BRANCH  12  13
ATOM     13  C   UNL     1      -0.606   2.228 -22.995  0.00  0.00    +0.000 C 
BRANCH  13  14
ATOM     14  C   UNL     1      -1.763   2.345 -22.414  0.00  0.00    +0.000 C 
BRANCH  14  15
ATOM     15  C   UNL     1      -1.891   3.111 -21.372  0.00  0.00    +0.000 C 
BRANCH  15  16
ATOM     16  C   UNL     1      -3.056   3.261 -20.814  0.00  0.00    +0.000 C 
BRANCH  16  17
ATOM     17  C   UNL     1      -3.973   2.354 -20.971  0.00  0.00    -0.000 C 
BRANCH  17  18
ATOM     18  C   UNL     1      -5.103   2.663 -21.534  0.00  0.00    -0.000 C 
BRANCH  18  19
ATOM     19  C   UNL     1      -5.197   3.743 -22.253  0.00  0.00    -0.000 C 
BRANCH  19  21
ATOM     20  C   UNL     1      -4.670   4.073 -24.416  0.00  0.00    +0.004 C 
ATOM     21  C   UNL     1      -5.507   3.660 -23.513  0.00  0.00    -0.003 C 
ENDBRANCH  19  21
ENDBRANCH  18  19
ENDBRANCH  17  18
ENDBRANCH  16  17
ENDBRANCH  15  16
ENDBRANCH  14  15
ENDBRANCH  13  14
ENDBRANCH  12  13
ENDBRANCH  11  12
ENDBRANCH   1  11
BRANCH   5  22
ATOM     22  C   UNL     1       6.454   3.836 -22.651  0.00  0.00    +0.045 C 
BRANCH  22  23
ATOM     23  C   UNL     1       6.789   3.679 -21.405  0.00  0.00    +0.000 C 
ATOM     24  C   UNL     1       7.267   4.683 -20.731  0.00  0.00    +0.004 C 
ENDBRANCH  22  23
ENDBRANCH   5  22
TORSDOF 12
ENDMDL
MODEL 8
REMARK VINA RESULT:    -7.060      1.257      2.028
REMARK INTER + INTRA:         -13.798
REMARK INTER:                 -12.216
REMARK INTRA:                  -1.583
REMARK UNBOUND:                -1.785
REMARK  Name = CCCCCCCCCCCC(=O)C1=C(O)C[C@@H](CCC)OC1=O                             ZINC000100393267
REMARK  14 active torsions:
REMARK  status: ('A' for Active; 'I' for Inactive)
REMARK    1  A    between atoms: C_1  and  C_2
REMARK    2  A    between atoms: C_2  and  C_3
REMARK    3  A    between atoms: C_3  and  C_4
REMARK    4  A    between atoms: C_4  and  C_5
REMARK    5  A    between atoms: C_5  and  C_6
REMARK    6  A    between atoms: C_6  and  C_7
REMARK    7  A    between atoms: C_7  and  C_8
REMARK    8  A    between atoms: C_8  and  C_9
REMARK    9  A    between atoms: C_9  and  C_10
REMARK   10  A    between atoms: C_10  and  C_11
REMARK   11  A    between atoms: C_11  and  C_12
REMARK   12  A    between atoms: C_18  and  C_19
REMARK   13  A    between atoms: C_19  and  C_20
REMARK   14  A    between atoms: C_20  and  C_21
REMARK                            x       y       z     vdW  Elec       q    Type
REMARK                         _______ _______ _______ _____ _____    ______ ____
ROOT
ATOM      1  C   UNL     1       1.684   1.918 -22.767  0.00  0.00    -0.121 C 
ATOM      2  C   UNL     1       2.955   2.195 -22.753  0.00  0.00    -0.109 C 
ATOM      3  C   UNL     1       3.369   3.367 -23.135  0.00  0.00    +0.195 C 
ATOM      4  C   UNL     1       4.638   3.643 -23.121  0.00  0.00    +0.131 C 
ATOM      5  C   UNL     1       5.494   2.749 -22.725  0.00  0.00    +0.180 C 
ATOM      6  O   UNL     1       5.080   1.577 -22.343  0.00  0.00    -0.501 OA
ATOM      7  O   UNL     1       2.512   4.262 -23.531  0.00  0.00    -0.284 OA
ATOM      8  C   UNL     1       3.810   1.300 -22.357  0.00  0.00    +0.056 C 
ATOM      9  O   UNL     1       3.396   0.129 -21.975  0.00  0.00    -0.795 OA
ATOM     10  O   UNL     1       1.270   0.747 -22.385  0.00  0.00    -0.826 OA
ENDROOT
BRANCH   1  11
ATOM     11  C   UNL     1       0.828   2.813 -23.162  0.00  0.00    +0.021 C 
BRANCH  11  12
ATOM     12  C   UNL     1      -0.305   2.947 -22.541  0.00  0.00    +0.004 C 
BRANCH  12  13
ATOM     13  C   UNL     1      -1.120   3.906 -22.873  0.00  0.00    +0.000 C 
BRANCH  13  14
ATOM     14  C   UNL     1      -1.535   4.008 -24.101  0.00  0.00    +0.000 C 
BRANCH  14  15
ATOM     15  C   UNL     1      -2.579   4.734 -24.374  0.00  0.00    +0.000 C 
BRANCH  15  16
ATOM     16  C   UNL     1      -3.629   4.186 -24.910  0.00  0.00    +0.000 C 
BRANCH  16  17
ATOM     17  C   UNL     1      -4.806   4.407 -24.405  0.00  0.00    -0.000 C 
BRANCH  17  18
ATOM     18  C   UNL     1      -5.346   3.532 -23.609  0.00  0.00    -0.000 C 
BRANCH  18  19
ATOM     19  C   UNL     1      -5.239   3.672 -22.320  0.00  0.00    -0.000 C 
BRANCH  19  21
ATOM     20  C   UNL     1      -3.725   2.999 -20.796  0.00  0.00    +0.004 C 
ATOM     21  C   UNL     1      -4.704   2.727 -21.606  0.00  0.00    -0.003 C 
ENDBRANCH  19  21
ENDBRANCH  18  19
ENDBRANCH  17  18
ENDBRANCH  16  17
ENDBRANCH  15  16
ENDBRANCH  14  15
ENDBRANCH  13  14
ENDBRANCH  12  13
ENDBRANCH  11  12
ENDBRANCH   1  11
BRANCH   5  22
ATOM     22  C   UNL     1       6.765   3.025 -22.712  0.00  0.00    +0.045 C 
BRANCH  22  23
ATOM     23  C   UNL     1       7.308   3.635 -23.722  0.00  0.00    +0.000 C 
ATOM     24  C   UNL     1       8.453   3.230 -24.186  0.00  0.00    +0.004 C 
ENDBRANCH  22  23
ENDBRANCH   5  22
TORSDOF 12
ENDMDL
MODEL 9
REMARK VINA RESULT:    -6.763      1.876      3.500
REMARK INTER + INTRA:         -13.293
REMARK INTER:                 -11.508
REMARK INTRA:                  -1.785
REMARK UNBOUND:                -1.785
REMARK  Name = CCCCCCCCCCCC(=O)C1=C(O)C[C@@H](CCC)OC1=O                             ZINC000100393267
REMARK  14 active torsions:
REMARK  status: ('A' for Active; 'I' for Inactive)
REMARK    1  A    between atoms: C_1  and  C_2
REMARK    2  A    between atoms: C_2  and  C_3
REMARK    3  A    between atoms: C_3  and  C_4
REMARK    4  A    between atoms: C_4  and  C_5
REMARK    5  A    between atoms: C_5  and  C_6
REMARK    6  A    between atoms: C_6  and  C_7
REMARK    7  A    between atoms: C_7  and  C_8
REMARK    8  A    between atoms: C_8  and  C_9
REMARK    9  A    between atoms: C_9  and  C_10
REMARK   10  A    between atoms: C_10  and  C_11
REMARK   11  A    between atoms: C_11  and  C_12
REMARK   12  A    between atoms: C_18  and  C_19
REMARK   13  A    between atoms: C_19  and  C_20
REMARK   14  A    between atoms: C_20  and  C_21
REMARK                            x       y       z     vdW  Elec       q    Type
REMARK                         _______ _______ _______ _____ _____    ______ ____
ROOT
ATOM      1  C   UNL     1       2.644   1.468 -22.292  0.00  0.00    -0.121 C 
ATOM      2  C   UNL     1       3.643   2.264 -22.536  0.00  0.00    -0.109 C 
ATOM      3  C   UNL     1       3.422   3.483 -22.928  0.00  0.00    +0.195 C 
ATOM      4  C   UNL     1       4.420   4.279 -23.173  0.00  0.00    +0.131 C 
ATOM      5  C   UNL     1       5.640   3.855 -23.024  0.00  0.00    +0.180 C 
ATOM      6  O   UNL     1       5.861   2.636 -22.631  0.00  0.00    -0.501 OA
ATOM      7  O   UNL     1       2.201   3.907 -23.077  0.00  0.00    -0.284 OA
ATOM      8  C   UNL     1       4.863   1.840 -22.387  0.00  0.00    +0.056 C 
ATOM      9  O   UNL     1       5.084   0.621 -21.995  0.00  0.00    -0.795 OA
ATOM     10  O   UNL     1       2.865   0.249 -21.899  0.00  0.00    -0.826 OA
ENDROOT
BRANCH   1  11
ATOM     11  C   UNL     1       1.424   1.892 -22.440  0.00  0.00    +0.021 C 
BRANCH  11  12
ATOM     12  C   UNL     1       0.427   1.139 -22.084  0.00  0.00    +0.004 C 
BRANCH  12  13
ATOM     13  C   UNL     1      -0.360   1.515 -21.119  0.00  0.00    +0.000 C 
BRANCH  13  14
ATOM     14  C   UNL     1      -1.573   1.902 -21.383  0.00  0.00    +0.000 C 
BRANCH  14  15
ATOM     15  C   UNL     1      -1.980   3.072 -20.991  0.00  0.00    +0.000 C 
BRANCH  15  16
ATOM     16  C   UNL     1      -2.327   3.968 -21.868  0.00  0.00    +0.000 C 
BRANCH  16  17
ATOM     17  C   UNL     1      -1.427   4.511 -22.633  0.00  0.00    -0.000 C 
BRANCH  17  18
ATOM     18  C   UNL     1      -1.627   4.592 -23.914  0.00  0.00    -0.000 C 
BRANCH  18  19
ATOM     19  C   UNL     1      -1.518   3.530 -24.658  0.00  0.00    -0.000 C 
BRANCH  19  21
ATOM     20  C   UNL     1      -3.134   3.467 -26.223  0.00  0.00    +0.004 C 
ATOM     21  C   UNL     1      -2.582   2.973 -25.155  0.00  0.00    -0.003 C 
ENDBRANCH  19  21
ENDBRANCH  18  19
ENDBRANCH  17  18
ENDBRANCH  16  17
ENDBRANCH  15  16
ENDBRANCH  14  15
ENDBRANCH  13  14
ENDBRANCH  12  13
ENDBRANCH  11  12
ENDBRANCH   1  11
BRANCH   5  22
ATOM     22  C   UNL     1       6.639   4.651 -23.268  0.00  0.00    +0.045 C 
BRANCH  22  23
ATOM     23  C   UNL     1       6.807   5.722 -22.551  0.00  0.00    +0.000 C 
ATOM     24  C   UNL     1       7.907   6.408 -22.657  0.00  0.00    +0.004 C 
ENDBRANCH  22  23
ENDBRANCH   5  22
TORSDOF 12
ENDMDL
