MODEL 1
REMARK VINA RESULT:    -9.042      0.000      0.000
REMARK INTER + INTRA:         -10.963
REMARK INTER:                 -12.043
REMARK INTRA:                   1.080
REMARK UNBOUND:                 1.249
REMARK  Name = ZINC000004610557
REMARK  12 active torsions:
REMARK  status: ('A' for Active; 'I' for Inactive)
REMARK    1  A    between atoms: C_1  and  C_2
REMARK    2  A    between atoms: C_2  and  N_3
REMARK    3  A    between atoms: C_8  and  O_9
REMARK    4  A    between atoms: O_9  and  C_10
REMARK    5  A    between atoms: C_11  and  O_12
REMARK    6  A    between atoms: O_12  and  C_13
REMARK    7  A    between atoms: C_16  and  C_17
REMARK    8  A    between atoms: C_17  and  C_18
REMARK    9  A    between atoms: C_21  and  O_22
REMARK   10  A    between atoms: O_22  and  C_23
REMARK   11  A    between atoms: C_24  and  O_25
REMARK   12  A    between atoms: O_25  and  C_26
REMARK                            x       y       z     vdW  Elec       q    Type
REMARK                         _______ _______ _______ _____ _____    ______ ____
ROOT
ATOM      1  N   UNL     1       0.723   1.719 -22.019  0.00  0.00    +0.241 N 
ATOM      2  H   UNL     1       1.347   1.195 -21.404  0.00  0.00    +0.204 HD
ATOM      3  C   UNL     1      -0.127   1.292 -21.133  0.00  0.00    +0.136 C 
ATOM      4  C   UNL     1      -1.386   1.598 -21.238  0.00  0.00    +0.086 C 
ATOM      5  C   UNL     1      -1.795   2.331 -22.231  0.00  0.00    -0.030 A 
ATOM      6  C   UNL     1      -3.054   2.637 -22.338  0.00  0.00    +0.053 A 
ATOM      7  C   UNL     1      -3.463   3.369 -23.331  0.00  0.00    +0.162 A 
ATOM      8  C   UNL     1      -2.613   3.796 -24.218  0.00  0.00    +0.162 A 
ATOM      9  C   UNL     1      -1.354   3.489 -24.111  0.00  0.00    +0.058 A 
ATOM     10  C   UNL     1      -0.945   2.757 -23.118  0.00  0.00    +0.008 A 
ATOM     11  C   UNL     1       0.313   2.451 -23.012  0.00  0.00    +0.100 C 
ENDROOT
BRANCH   8  12
ATOM     12  O   UNL     1      -3.022   4.528 -25.211  0.00  0.00    -0.491 OA
ATOM     13  C   UNL     1      -3.329   3.972 -26.346  0.00  0.00    +0.277 C 
ENDBRANCH   8  12
BRANCH   7  14
ATOM     14  O   UNL     1      -4.722   3.676 -23.438  0.00  0.00    -0.491 OA
ATOM     15  C   UNL     1      -5.540   3.411 -22.462  0.00  0.00    +0.277 C 
ENDBRANCH   7  14
BRANCH   1  17
ATOM     16  C   UNL     1       2.567   1.460 -20.752  0.00  0.00    +0.060 C 
ATOM     17  C   UNL     1       1.982   1.412 -21.912  0.00  0.00    +0.128 C 
ENDBRANCH   1  17
BRANCH  11  18
ATOM     18  C   UNL     1       1.164   2.877 -23.899  0.00  0.00    +0.094 C 
BRANCH  18  19
ATOM     19  C   UNL     1       2.081   3.734 -23.561  0.00  0.00    -0.038 A 
ATOM     20  C   UNL     1       1.746   4.938 -23.202  0.00  0.00    +0.007 A 
ATOM     21  C   UNL     1       2.663   5.795 -22.864  0.00  0.00    +0.049 A 
ATOM     22  C   UNL     1       3.916   5.448 -22.884  0.00  0.00    +0.161 A 
ATOM     23  C   UNL     1       4.251   4.244 -23.242  0.00  0.00    +0.162 A 
ATOM     24  C   UNL     1       3.334   3.388 -23.580  0.00  0.00    +0.053 A 
BRANCH  22  25
ATOM     25  O   UNL     1       4.833   6.304 -22.546  0.00  0.00    -0.491 OA
ATOM     26  C   UNL     1       4.499   7.428 -21.984  0.00  0.00    +0.277 C 
ENDBRANCH  22  25
BRANCH  23  27
ATOM     27  O   UNL     1       5.504   3.897 -23.262  0.00  0.00    -0.491 OA
ATOM     28  C   UNL     1       5.909   2.886 -22.553  0.00  0.00    +0.277 C 
ENDBRANCH  23  27
ENDBRANCH  18  19
ENDBRANCH  11  18
TORSDOF 7
ENDMDL
MODEL 2
REMARK VINA RESULT:    -8.803      1.946      3.714
REMARK INTER + INTRA:         -10.642
REMARK INTER:                 -11.708
REMARK INTRA:                   1.066
REMARK UNBOUND:                 1.249
REMARK  Name = ZINC000004610557
REMARK  12 active torsions:
REMARK  status: ('A' for Active; 'I' for Inactive)
REMARK    1  A    between atoms: C_1  and  C_2
REMARK    2  A    between atoms: C_2  and  N_3
REMARK    3  A    between atoms: C_8  and  O_9
REMARK    4  A    between atoms: O_9  and  C_10
REMARK    5  A    between atoms: C_11  and  O_12
REMARK    6  A    between atoms: O_12  and  C_13
REMARK    7  A    between atoms: C_16  and  C_17
REMARK    8  A    between atoms: C_17  and  C_18
REMARK    9  A    between atoms: C_21  and  O_22
REMARK   10  A    between atoms: O_22  and  C_23
REMARK   11  A    between atoms: C_24  and  O_25
REMARK   12  A    between atoms: O_25  and  C_26
REMARK                            x       y       z     vdW  Elec       q    Type
REMARK                         _______ _______ _______ _____ _____    ______ ____
ROOT
ATOM      1  N   UNL     1      -0.401   3.682 -25.171  0.00  0.00    +0.241 N 
ATOM      2  H   UNL     1       0.133   3.566 -26.032  0.00  0.00    +0.204 HD
ATOM      3  C   UNL     1      -1.360   3.405 -26.004  0.00  0.00    +0.136 C 
ATOM      4  C   UNL     1      -2.590   3.353 -25.587  0.00  0.00    +0.086 C 
ATOM      5  C   UNL     1      -2.862   3.578 -24.336  0.00  0.00    -0.030 A 
ATOM      6  C   UNL     1      -4.092   3.526 -23.918  0.00  0.00    +0.053 A 
ATOM      7  C   UNL     1      -4.363   3.751 -22.667  0.00  0.00    +0.162 A 
ATOM      8  C   UNL     1      -3.405   4.029 -21.833  0.00  0.00    +0.162 A 
ATOM      9  C   UNL     1      -2.175   4.081 -22.252  0.00  0.00    +0.058 A 
ATOM     10  C   UNL     1      -1.903   3.855 -23.503  0.00  0.00    +0.008 A 
ATOM     11  C   UNL     1      -0.674   3.907 -23.920  0.00  0.00    +0.100 C 
ENDROOT
BRANCH   8  12
ATOM     12  O   UNL     1      -3.676   4.254 -20.582  0.00  0.00    -0.491 OA
ATOM     13  C   UNL     1      -3.038   3.608 -19.652  0.00  0.00    +0.277 C 
ENDBRANCH   8  12
BRANCH   7  14
ATOM     14  O   UNL     1      -5.593   3.699 -22.249  0.00  0.00    -0.491 OA
ATOM     15  C   UNL     1      -6.073   2.587 -21.779  0.00  0.00    +0.277 C 
ENDBRANCH   7  14
BRANCH   1  17
ATOM     16  C   UNL     1       1.428   2.650 -25.983  0.00  0.00    +0.060 C 
ATOM     17  C   UNL     1       0.829   3.734 -25.589  0.00  0.00    +0.128 C 
ENDBRANCH   1  17
BRANCH  11  18
ATOM     18  C   UNL     1       0.286   4.185 -23.086  0.00  0.00    +0.094 C 
BRANCH  18  19
ATOM     19  C   UNL     1       1.162   3.276 -22.778  0.00  0.00    -0.038 A 
ATOM     20  C   UNL     1       0.770   2.088 -22.423  0.00  0.00    +0.007 A 
ATOM     21  C   UNL     1       1.646   1.179 -22.115  0.00  0.00    +0.049 A 
ATOM     22  C   UNL     1       2.915   1.457 -22.161  0.00  0.00    +0.161 A 
ATOM     23  C   UNL     1       3.308   2.645 -22.516  0.00  0.00    +0.162 A 
ATOM     24  C   UNL     1       2.431   3.554 -22.824  0.00  0.00    +0.053 A 
BRANCH  22  25
ATOM     25  O   UNL     1       3.792   0.549 -21.853  0.00  0.00    -0.491 OA
ATOM     26  C   UNL     1       3.996   0.237 -20.608  0.00  0.00    +0.277 C 
ENDBRANCH  22  25
BRANCH  23  27
ATOM     27  O   UNL     1       4.577   2.923 -22.562  0.00  0.00    -0.491 OA
ATOM     28  C   UNL     1       4.982   4.012 -23.145  0.00  0.00    +0.277 C 
ENDBRANCH  23  27
ENDBRANCH  18  19
ENDBRANCH  11  18
TORSDOF 7
ENDMDL
MODEL 3
REMARK VINA RESULT:    -8.024      1.380      1.880
REMARK INTER + INTRA:          -9.589
REMARK INTER:                 -10.719
REMARK INTRA:                   1.130
REMARK UNBOUND:                 1.249
REMARK  Name = ZINC000004610557
REMARK  12 active torsions:
REMARK  status: ('A' for Active; 'I' for Inactive)
REMARK    1  A    between atoms: C_1  and  C_2
REMARK    2  A    between atoms: C_2  and  N_3
REMARK    3  A    between atoms: C_8  and  O_9
REMARK    4  A    between atoms: O_9  and  C_10
REMARK    5  A    between atoms: C_11  and  O_12
REMARK    6  A    between atoms: O_12  and  C_13
REMARK    7  A    between atoms: C_16  and  C_17
REMARK    8  A    between atoms: C_17  and  C_18
REMARK    9  A    between atoms: C_21  and  O_22
REMARK   10  A    between atoms: O_22  and  C_23
REMARK   11  A    between atoms: C_24  and  O_25
REMARK   12  A    between atoms: O_25  and  C_26
REMARK                            x       y       z     vdW  Elec       q    Type
REMARK                         _______ _______ _______ _____ _____    ______ ____
ROOT
ATOM      1  N   UNL     1       2.778   2.009 -21.800  0.00  0.00    +0.241 N 
ATOM      2  H   UNL     1       3.523   1.604 -21.231  0.00  0.00    +0.204 HD
ATOM      3  C   UNL     1       2.075   1.320 -20.951  0.00  0.00    +0.136 C 
ATOM      4  C   UNL     1       0.777   1.319 -21.029  0.00  0.00    +0.086 C 
ATOM      5  C   UNL     1       0.183   2.008 -21.957  0.00  0.00    -0.030 A 
ATOM      6  C   UNL     1      -1.115   2.008 -22.036  0.00  0.00    +0.053 A 
ATOM      7  C   UNL     1      -1.710   2.697 -22.964  0.00  0.00    +0.162 A 
ATOM      8  C   UNL     1      -1.007   3.386 -23.814  0.00  0.00    +0.162 A 
ATOM      9  C   UNL     1       0.291   3.386 -23.735  0.00  0.00    +0.058 A 
ATOM     10  C   UNL     1       0.885   2.697 -22.806  0.00  0.00    +0.008 A 
ATOM     11  C   UNL     1       2.183   2.697 -22.728  0.00  0.00    +0.100 C 
ENDROOT
BRANCH   8  12
ATOM     12  O   UNL     1      -1.602   4.075 -24.742  0.00  0.00    -0.491 OA
ATOM     13  C   UNL     1      -1.856   3.529 -25.895  0.00  0.00    +0.277 C 
ENDBRANCH   8  12
BRANCH   7  14
ATOM     14  O   UNL     1      -3.007   2.697 -23.043  0.00  0.00    -0.491 OA
ATOM     15  C   UNL     1      -3.718   3.155 -22.056  0.00  0.00    +0.277 C 
ENDBRANCH   7  14
BRANCH   1  17
ATOM     16  C   UNL     1       4.735   0.896 -21.854  0.00  0.00    +0.060 C 
ATOM     17  C   UNL     1       4.076   2.008 -21.721  0.00  0.00    +0.128 C 
ENDBRANCH   1  17
BRANCH  11  18
ATOM     18  C   UNL     1       2.886   3.386 -23.578  0.00  0.00    +0.094 C 
BRANCH  18  19
ATOM     19  C   UNL     1       3.537   4.439 -23.180  0.00  0.00    -0.038 A 
ATOM     20  C   UNL     1       2.892   5.528 -22.880  0.00  0.00    +0.007 A 
ATOM     21  C   UNL     1       3.543   6.580 -22.482  0.00  0.00    +0.049 A 
ATOM     22  C   UNL     1       4.839   6.544 -22.385  0.00  0.00    +0.161 A 
ATOM     23  C   UNL     1       5.484   5.456 -22.685  0.00  0.00    +0.162 A 
ATOM     24  C   UNL     1       4.833   4.404 -23.082  0.00  0.00    +0.053 A 
BRANCH  22  25
ATOM     25  O   UNL     1       5.490   7.596 -21.988  0.00  0.00    -0.491 OA
ATOM     26  C   UNL     1       5.090   8.251 -20.938  0.00  0.00    +0.277 C 
ENDBRANCH  22  25
BRANCH  23  27
ATOM     27  O   UNL     1       6.780   5.420 -22.588  0.00  0.00    -0.491 OA
ATOM     28  C   UNL     1       7.348   4.568 -21.788  0.00  0.00    +0.277 C 
ENDBRANCH  23  27
ENDBRANCH  18  19
ENDBRANCH  11  18
TORSDOF 7
ENDMDL
MODEL 4
REMARK VINA RESULT:    -8.010      1.031      1.982
REMARK INTER + INTRA:          -9.570
REMARK INTER:                 -10.770
REMARK INTRA:                   1.200
REMARK UNBOUND:                 1.249
REMARK  Name = ZINC000004610557
REMARK  12 active torsions:
REMARK  status: ('A' for Active; 'I' for Inactive)
REMARK    1  A    between atoms: C_1  and  C_2
REMARK    2  A    between atoms: C_2  and  N_3
REMARK    3  A    between atoms: C_8  and  O_9
REMARK    4  A    between atoms: O_9  and  C_10
REMARK    5  A    between atoms: C_11  and  O_12
REMARK    6  A    between atoms: O_12  and  C_13
REMARK    7  A    between atoms: C_16  and  C_17
REMARK    8  A    between atoms: C_17  and  C_18
REMARK    9  A    between atoms: C_21  and  O_22
REMARK   10  A    between atoms: O_22  and  C_23
REMARK   11  A    between atoms: C_24  and  O_25
REMARK   12  A    between atoms: O_25  and  C_26
REMARK                            x       y       z     vdW  Elec       q    Type
REMARK                         _______ _______ _______ _____ _____    ______ ____
ROOT
ATOM      1  N   UNL     1       1.542   1.394 -21.925  0.00  0.00    +0.241 N 
ATOM      2  H   UNL     1       2.141   0.892 -21.268  0.00  0.00    +0.204 HD
ATOM      3  C   UNL     1       0.707   1.200 -20.948  0.00  0.00    +0.136 C 
ATOM      4  C   UNL     1      -0.515   1.635 -21.040  0.00  0.00    +0.086 C 
ATOM      5  C   UNL     1      -0.901   2.264 -22.111  0.00  0.00    -0.030 A 
ATOM      6  C   UNL     1      -2.123   2.699 -22.204  0.00  0.00    +0.053 A 
ATOM      7  C   UNL     1      -2.509   3.328 -23.275  0.00  0.00    +0.162 A 
ATOM      8  C   UNL     1      -1.673   3.521 -24.252  0.00  0.00    +0.162 A 
ATOM      9  C   UNL     1      -0.451   3.086 -24.158  0.00  0.00    +0.058 A 
ATOM     10  C   UNL     1      -0.066   2.457 -23.088  0.00  0.00    +0.008 A 
ATOM     11  C   UNL     1       1.156   2.022 -22.995  0.00  0.00    +0.100 C 
ENDROOT
BRANCH   8  12
ATOM     12  O   UNL     1      -2.059   4.150 -25.322  0.00  0.00    -0.491 OA
ATOM     13  C   UNL     1      -2.509   3.481 -26.342  0.00  0.00    +0.277 C 
ENDBRANCH   8  12
BRANCH   7  14
ATOM     14  O   UNL     1      -3.730   3.763 -23.368  0.00  0.00    -0.491 OA
ATOM     15  C   UNL     1      -4.603   3.447 -22.458  0.00  0.00    +0.277 C 
ENDBRANCH   7  14
BRANCH   1  17
ATOM     16  C   UNL     1       3.361   0.940 -20.677  0.00  0.00    +0.060 C 
ATOM     17  C   UNL     1       2.764   0.958 -21.831  0.00  0.00    +0.128 C 
ENDBRANCH   1  17
BRANCH  11  18
ATOM     18  C   UNL     1       1.992   2.216 -23.972  0.00  0.00    +0.094 C 
BRANCH  18  19
ATOM     19  C   UNL     1       3.089   2.881 -23.767  0.00  0.00    -0.038 A 
ATOM     20  C   UNL     1       4.241   2.313 -23.970  0.00  0.00    +0.007 A 
ATOM     21  C   UNL     1       5.339   2.978 -23.765  0.00  0.00    +0.049 A 
ATOM     22  C   UNL     1       5.285   4.211 -23.356  0.00  0.00    +0.161 A 
ATOM     23  C   UNL     1       4.134   4.779 -23.153  0.00  0.00    +0.162 A 
ATOM     24  C   UNL     1       3.036   4.114 -23.359  0.00  0.00    +0.053 A 
BRANCH  22  25
ATOM     25  O   UNL     1       6.383   4.876 -23.151  0.00  0.00    -0.491 OA
ATOM     26  C   UNL     1       7.489   4.498 -23.720  0.00  0.00    +0.277 C 
ENDBRANCH  22  25
BRANCH  23  27
ATOM     27  O   UNL     1       4.080   6.012 -22.745  0.00  0.00    -0.491 OA
ATOM     28  C   UNL     1       2.928   6.580 -22.543  0.00  0.00    +0.277 C 
ENDBRANCH  23  27
ENDBRANCH  18  19
ENDBRANCH  11  18
TORSDOF 7
ENDMDL
MODEL 5
REMARK VINA RESULT:    -7.747      1.441      6.795
REMARK INTER + INTRA:          -9.215
REMARK INTER:                 -10.435
REMARK INTRA:                   1.220
REMARK UNBOUND:                 1.249
REMARK  Name = ZINC000004610557
REMARK  12 active torsions:
REMARK  status: ('A' for Active; 'I' for Inactive)
REMARK    1  A    between atoms: C_1  and  C_2
REMARK    2  A    between atoms: C_2  and  N_3
REMARK    3  A    between atoms: C_8  and  O_9
REMARK    4  A    between atoms: O_9  and  C_10
REMARK    5  A    between atoms: C_11  and  O_12
REMARK    6  A    between atoms: O_12  and  C_13
REMARK    7  A    between atoms: C_16  and  C_17
REMARK    8  A    between atoms: C_17  and  C_18
REMARK    9  A    between atoms: C_21  and  O_22
REMARK   10  A    between atoms: O_22  and  C_23
REMARK   11  A    between atoms: C_24  and  O_25
REMARK   12  A    between atoms: O_25  and  C_26
REMARK                            x       y       z     vdW  Elec       q    Type
REMARK                         _______ _______ _______ _____ _____    ______ ____
ROOT
ATOM      1  N   UNL     1      -1.172   2.520 -21.675  0.00  0.00    +0.241 N 
ATOM      2  H   UNL     1      -2.072   2.244 -21.281  0.00  0.00    +0.204 HD
ATOM      3  C   UNL     1      -0.813   1.484 -20.977  0.00  0.00    +0.136 C 
ATOM      4  C   UNL     1       0.432   1.111 -20.959  0.00  0.00    +0.086 C 
ATOM      5  C   UNL     1       1.318   1.775 -21.639  0.00  0.00    -0.030 A 
ATOM      6  C   UNL     1       2.564   1.403 -21.622  0.00  0.00    +0.053 A 
ATOM      7  C   UNL     1       3.450   2.067 -22.303  0.00  0.00    +0.162 A 
ATOM      8  C   UNL     1       3.091   3.103 -23.001  0.00  0.00    +0.162 A 
ATOM      9  C   UNL     1       1.845   3.475 -23.018  0.00  0.00    +0.058 A 
ATOM     10  C   UNL     1       0.959   2.811 -22.338  0.00  0.00    +0.008 A 
ATOM     11  C   UNL     1      -0.286   3.184 -22.355  0.00  0.00    +0.100 C 
ENDROOT
BRANCH   8  12
ATOM     12  O   UNL     1       3.978   3.767 -23.682  0.00  0.00    -0.491 OA
ATOM     13  C   UNL     1       4.488   4.859 -23.194  0.00  0.00    +0.277 C 
ENDBRANCH   8  12
BRANCH   7  14
ATOM     14  O   UNL     1       4.696   1.695 -22.286  0.00  0.00    -0.491 OA
ATOM     15  C   UNL     1       5.343   1.645 -21.160  0.00  0.00    +0.277 C 
ENDBRANCH   7  14
BRANCH   1  17
ATOM     16  C   UNL     1      -2.983   3.321 -20.603  0.00  0.00    +0.060 C 
ATOM     17  C   UNL     1      -2.418   2.892 -21.692  0.00  0.00    +0.128 C 
ENDBRANCH   1  17
BRANCH  11  18
ATOM     18  C   UNL     1      -0.645   4.220 -23.054  0.00  0.00    +0.094 C 
BRANCH  18  19
ATOM     19  C   UNL     1      -1.450   4.076 -24.063  0.00  0.00    -0.038 A 
ATOM     20  C   UNL     1      -1.022   3.534 -25.165  0.00  0.00    +0.007 A 
ATOM     21  C   UNL     1      -1.827   3.390 -26.175  0.00  0.00    +0.049 A 
ATOM     22  C   UNL     1      -3.062   3.788 -26.084  0.00  0.00    +0.161 A 
ATOM     23  C   UNL     1      -3.490   4.330 -24.983  0.00  0.00    +0.162 A 
ATOM     24  C   UNL     1      -2.685   4.474 -23.973  0.00  0.00    +0.053 A 
BRANCH  22  25
ATOM     25  O   UNL     1      -3.867   3.644 -27.093  0.00  0.00    -0.491 OA
ATOM     26  C   UNL     1      -3.389   3.409 -28.279  0.00  0.00    +0.277 C 
ENDBRANCH  22  25
BRANCH  23  27
ATOM     27  O   UNL     1      -4.725   4.728 -24.892  0.00  0.00    -0.491 OA
ATOM     28  C   UNL     1      -5.535   4.147 -24.057  0.00  0.00    +0.277 C 
ENDBRANCH  23  27
ENDBRANCH  18  19
ENDBRANCH  11  18
TORSDOF 7
ENDMDL
MODEL 6
REMARK VINA RESULT:    -7.682      1.484      2.761
REMARK INTER + INTRA:          -9.126
REMARK INTER:                 -10.502
REMARK INTRA:                   1.375
REMARK UNBOUND:                 1.249
REMARK  Name = ZINC000004610557
REMARK  12 active torsions:
REMARK  status: ('A' for Active; 'I' for Inactive)
REMARK    1  A    between atoms: C_1  and  C_2
REMARK    2  A    between atoms: C_2  and  N_3
REMARK    3  A    between atoms: C_8  and  O_9
REMARK    4  A    between atoms: O_9  and  C_10
REMARK    5  A    between atoms: C_11  and  O_12
REMARK    6  A    between atoms: O_12  and  C_13
REMARK    7  A    between atoms: C_16  and  C_17
REMARK    8  A    between atoms: C_17  and  C_18
REMARK    9  A    between atoms: C_21  and  O_22
REMARK   10  A    between atoms: O_22  and  C_23
REMARK   11  A    between atoms: C_24  and  O_25
REMARK   12  A    between atoms: O_25  and  C_26
REMARK                            x       y       z     vdW  Elec       q    Type
REMARK                         _______ _______ _______ _____ _____    ______ ____
ROOT
ATOM      1  N   UNL     1       0.235   3.113 -25.188  0.00  0.00    +0.241 N 
ATOM      2  H   UNL     1       0.789   3.173 -26.042  0.00  0.00    +0.204 HD
ATOM      3  C   UNL     1      -0.702   3.354 -26.056  0.00  0.00    +0.136 C 
ATOM      4  C   UNL     1      -1.940   3.446 -25.671  0.00  0.00    +0.086 C 
ATOM      5  C   UNL     1      -2.241   3.296 -24.415  0.00  0.00    -0.030 A 
ATOM      6  C   UNL     1      -3.479   3.387 -24.028  0.00  0.00    +0.053 A 
ATOM      7  C   UNL     1      -3.780   3.237 -22.772  0.00  0.00    +0.162 A 
ATOM      8  C   UNL     1      -2.844   2.996 -21.903  0.00  0.00    +0.162 A 
ATOM      9  C   UNL     1      -1.606   2.905 -22.291  0.00  0.00    +0.058 A 
ATOM     10  C   UNL     1      -1.305   3.054 -23.546  0.00  0.00    +0.008 A 
ATOM     11  C   UNL     1      -0.067   2.963 -23.933  0.00  0.00    +0.100 C 
ENDROOT
BRANCH   8  12
ATOM     12  O   UNL     1      -3.145   2.846 -20.648  0.00  0.00    -0.491 OA
ATOM     13  C   UNL     1      -2.998   3.839 -19.821  0.00  0.00    +0.277 C 
ENDBRANCH   8  12
BRANCH   7  14
ATOM     14  O   UNL     1      -5.018   3.329 -22.386  0.00  0.00    -0.491 OA
ATOM     15  C   UNL     1      -5.942   3.661 -23.238  0.00  0.00    +0.277 C 
ENDBRANCH   7  14
BRANCH   1  17
ATOM     16  C   UNL     1       1.917   1.907 -26.074  0.00  0.00    +0.060 C 
ATOM     17  C   UNL     1       1.473   3.021 -25.575  0.00  0.00    +0.128 C 
ENDBRANCH   1  17
BRANCH  11  18
ATOM     18  C   UNL     1       0.870   2.721 -23.063  0.00  0.00    +0.094 C 
BRANCH  18  19
ATOM     19  C   UNL     1       1.860   3.552 -22.927  0.00  0.00    -0.038 A 
ATOM     20  C   UNL     1       1.663   4.829 -23.080  0.00  0.00    +0.007 A 
ATOM     21  C   UNL     1       2.653   5.660 -22.944  0.00  0.00    +0.049 A 
ATOM     22  C   UNL     1       3.840   5.215 -22.654  0.00  0.00    +0.161 A 
ATOM     23  C   UNL     1       4.037   3.940 -22.500  0.00  0.00    +0.162 A 
ATOM     24  C   UNL     1       3.047   3.109 -22.636  0.00  0.00    +0.053 A 
BRANCH  22  25
ATOM     25  O   UNL     1       4.830   6.046 -22.517  0.00  0.00    -0.491 OA
ATOM     26  C   UNL     1       4.619   7.238 -22.042  0.00  0.00    +0.277 C 
ENDBRANCH  22  25
BRANCH  23  27
ATOM     27  O   UNL     1       5.223   3.495 -22.210  0.00  0.00    -0.491 OA
ATOM     28  C   UNL     1       5.357   2.440 -21.463  0.00  0.00    +0.277 C 
ENDBRANCH  23  27
ENDBRANCH  18  19
ENDBRANCH  11  18
TORSDOF 7
ENDMDL
MODEL 7
REMARK VINA RESULT:    -7.347      1.099      6.907
REMARK INTER + INTRA:          -8.674
REMARK INTER:                  -9.924
REMARK INTRA:                   1.250
REMARK UNBOUND:                 1.249
REMARK  Name = ZINC000004610557
REMARK  12 active torsions:
REMARK  status: ('A' for Active; 'I' for Inactive)
REMARK    1  A    between atoms: C_1  and  C_2
REMARK    2  A    between atoms: C_2  and  N_3
REMARK    3  A    between atoms: C_8  and  O_9
REMARK    4  A    between atoms: O_9  and  C_10
REMARK    5  A    between atoms: C_11  and  O_12
REMARK    6  A    between atoms: O_12  and  C_13
REMARK    7  A    between atoms: C_16  and  C_17
REMARK    8  A    between atoms: C_17  and  C_18
REMARK    9  A    between atoms: C_21  and  O_22
REMARK   10  A    between atoms: O_22  and  C_23
REMARK   11  A    between atoms: C_24  and  O_25
REMARK   12  A    between atoms: O_25  and  C_26
REMARK                            x       y       z     vdW  Elec       q    Type
REMARK                         _______ _______ _______ _____ _____    ______ ____
ROOT
ATOM      1  N   UNL     1       0.933   1.829 -22.585  0.00  0.00    +0.241 N 
ATOM      2  H   UNL     1       0.369   0.983 -22.491  0.00  0.00    +0.204 HD
ATOM      3  C   UNL     1       1.867   0.925 -22.573  0.00  0.00    +0.136 C 
ATOM      4  C   UNL     1       3.115   1.277 -22.670  0.00  0.00    +0.086 C 
ATOM      5  C   UNL     1       3.427   2.534 -22.779  0.00  0.00    -0.030 A 
ATOM      6  C   UNL     1       4.675   2.888 -22.877  0.00  0.00    +0.053 A 
ATOM      7  C   UNL     1       4.988   4.145 -22.986  0.00  0.00    +0.162 A 
ATOM      8  C   UNL     1       4.053   5.049 -22.998  0.00  0.00    +0.162 A 
ATOM      9  C   UNL     1       2.806   4.695 -22.901  0.00  0.00    +0.058 A 
ATOM     10  C   UNL     1       2.493   3.438 -22.791  0.00  0.00    +0.008 A 
ATOM     11  C   UNL     1       1.246   3.085 -22.694  0.00  0.00    +0.100 C 
ENDROOT
BRANCH   8  12
ATOM     12  O   UNL     1       4.366   6.305 -23.108  0.00  0.00    -0.491 OA
ATOM     13  C   UNL     1       3.999   7.149 -22.189  0.00  0.00    +0.277 C 
ENDBRANCH   8  12
BRANCH   7  14
ATOM     14  O   UNL     1       6.235   4.498 -23.084  0.00  0.00    -0.491 OA
ATOM     15  C   UNL     1       7.150   3.599 -23.296  0.00  0.00    +0.277 C 
ENDBRANCH   7  14
BRANCH   1  17
ATOM     16  C   UNL     1      -0.797   1.104 -21.339  0.00  0.00    +0.060 C 
ATOM     17  C   UNL     1      -0.315   1.475 -22.487  0.00  0.00    +0.128 C 
ENDBRANCH   1  17
BRANCH  11  18
ATOM     18  C   UNL     1       0.311   3.990 -22.706  0.00  0.00    +0.094 C 
BRANCH  18  19
ATOM     19  C   UNL     1      -0.653   3.916 -23.574  0.00  0.00    -0.038 A 
ATOM     20  C   UNL     1      -0.381   3.764 -24.837  0.00  0.00    +0.007 A 
ATOM     21  C   UNL     1      -1.345   3.691 -25.705  0.00  0.00    +0.049 A 
ATOM     22  C   UNL     1      -2.582   3.768 -25.312  0.00  0.00    +0.161 A 
ATOM     23  C   UNL     1      -2.854   3.920 -24.050  0.00  0.00    +0.162 A 
ATOM     24  C   UNL     1      -1.890   3.993 -23.182  0.00  0.00    +0.053 A 
BRANCH  22  25
ATOM     25  O   UNL     1      -3.546   3.695 -26.180  0.00  0.00    -0.491 OA
ATOM     26  C   UNL     1      -3.281   3.444 -27.428  0.00  0.00    +0.277 C 
ENDBRANCH  22  25
BRANCH  23  27
ATOM     27  O   UNL     1      -4.091   3.998 -23.656  0.00  0.00    -0.491 OA
ATOM     28  C   UNL     1      -4.472   3.370 -22.584  0.00  0.00    +0.277 C 
ENDBRANCH  23  27
ENDBRANCH  18  19
ENDBRANCH  11  18
TORSDOF 7
ENDMDL
MODEL 8
REMARK VINA RESULT:    -6.964      1.698      7.352
REMARK INTER + INTRA:          -8.158
REMARK INTER:                 -10.137
REMARK INTRA:                   1.980
REMARK UNBOUND:                 1.249
REMARK  Name = ZINC000004610557
REMARK  12 active torsions:
REMARK  status: ('A' for Active; 'I' for Inactive)
REMARK    1  A    between atoms: C_1  and  C_2
REMARK    2  A    between atoms: C_2  and  N_3
REMARK    3  A    between atoms: C_8  and  O_9
REMARK    4  A    between atoms: O_9  and  C_10
REMARK    5  A    between atoms: C_11  and  O_12
REMARK    6  A    between atoms: O_12  and  C_13
REMARK    7  A    between atoms: C_16  and  C_17
REMARK    8  A    between atoms: C_17  and  C_18
REMARK    9  A    between atoms: C_21  and  O_22
REMARK   10  A    between atoms: O_22  and  C_23
REMARK   11  A    between atoms: C_24  and  O_25
REMARK   12  A    between atoms: O_25  and  C_26
REMARK                            x       y       z     vdW  Elec       q    Type
REMARK                         _______ _______ _______ _____ _____    ______ ____
ROOT
ATOM      1  N   UNL     1       1.168   4.630 -23.713  0.00  0.00    +0.241 N 
ATOM      2  H   UNL     1       0.518   5.370 -23.980  0.00  0.00    +0.204 HD
ATOM      3  C   UNL     1       1.933   5.673 -23.580  0.00  0.00    +0.136 C 
ATOM      4  C   UNL     1       3.166   5.530 -23.192  0.00  0.00    +0.086 C 
ATOM      5  C   UNL     1       3.634   4.345 -22.938  0.00  0.00    -0.030 A 
ATOM      6  C   UNL     1       4.867   4.201 -22.551  0.00  0.00    +0.053 A 
ATOM      7  C   UNL     1       5.334   3.015 -22.297  0.00  0.00    +0.162 A 
ATOM      8  C   UNL     1       4.569   1.972 -22.430  0.00  0.00    +0.162 A 
ATOM      9  C   UNL     1       3.336   2.116 -22.817  0.00  0.00    +0.058 A 
ATOM     10  C   UNL     1       2.869   3.302 -23.071  0.00  0.00    +0.008 A 
ATOM     11  C   UNL     1       1.636   3.445 -23.458  0.00  0.00    +0.100 C 
ENDROOT
BRANCH   8  12
ATOM     12  O   UNL     1       5.037   0.786 -22.176  0.00  0.00    -0.491 OA
ATOM     13  C   UNL     1       4.765   0.209 -21.042  0.00  0.00    +0.277 C 
ENDBRANCH   8  12
BRANCH   7  14
ATOM     14  O   UNL     1       6.567   2.872 -21.910  0.00  0.00    -0.491 OA
ATOM     15  C   UNL     1       7.210   3.881 -21.402  0.00  0.00    +0.277 C 
ENDBRANCH   7  14
BRANCH   1  17
ATOM     16  C   UNL     1      -0.850   5.601 -23.476  0.00  0.00    +0.060 C 
ATOM     17  C   UNL     1      -0.065   4.774 -24.100  0.00  0.00    +0.128 C 
ENDBRANCH   1  17
BRANCH  11  18
ATOM     18  C   UNL     1       0.871   2.402 -23.591  0.00  0.00    +0.094 C 
BRANCH  18  19
ATOM     19  C   UNL     1      -0.266   2.346 -22.965  0.00  0.00    -0.038 A 
ATOM     20  C   UNL     1      -0.291   2.162 -21.677  0.00  0.00    +0.007 A 
ATOM     21  C   UNL     1      -1.428   2.106 -21.050  0.00  0.00    +0.049 A 
ATOM     22  C   UNL     1      -2.541   2.234 -21.710  0.00  0.00    +0.161 A 
ATOM     23  C   UNL     1      -2.517   2.417 -22.997  0.00  0.00    +0.162 A 
ATOM     24  C   UNL     1      -1.380   2.473 -23.623  0.00  0.00    +0.053 A 
BRANCH  22  25
ATOM     25  O   UNL     1      -3.678   2.178 -21.083  0.00  0.00    -0.491 OA
ATOM     26  C   UNL     1      -4.047   3.159 -20.315  0.00  0.00    +0.277 C 
ENDBRANCH  22  25
BRANCH  23  27
ATOM     27  O   UNL     1      -3.630   2.545 -23.656  0.00  0.00    -0.491 OA
ATOM     28  C   UNL     1      -3.890   3.653 -24.283  0.00  0.00    +0.277 C 
ENDBRANCH  23  27
ENDBRANCH  18  19
ENDBRANCH  11  18
TORSDOF 7
ENDMDL
