MODEL 1
REMARK VINA RESULT:   -10.794      0.000      0.000
REMARK INTER + INTRA:         -14.652
REMARK INTER:                 -13.978
REMARK INTRA:                  -0.674
REMARK UNBOUND:                -1.333
REMARK  Name = COc1ccc2c(c1Oc1nnnn1-c1ccccc1)[C@]13C=CC=C[C@@H]1[C@H](C2)N(C)CC3    ZINC000096316428
REMARK  6 active torsions:
REMARK  status: ('A' for Active; 'I' for Inactive)
REMARK    1  A    between atoms: C_1  and  O_2
REMARK    2  A    between atoms: O_2  and  C_3
REMARK    3  A    between atoms: C_8  and  O_9
REMARK    4  A    between atoms: O_9  and  C_10
REMARK    5  A    between atoms: N_14  and  C_15
REMARK    6  A    between atoms: N_29  and  C_30
REMARK                            x       y       z     vdW  Elec       q    Type
REMARK                         _______ _______ _______ _____ _____    ______ ____
ROOT
ATOM      1  C   UNL     1      -1.508   3.359 -25.394  0.00  0.00    +0.163 A 
ATOM      2  C   UNL     1      -2.498   3.505 -26.164  0.00  0.00    +0.050 A 
ATOM      3  C   UNL     1      -3.651   3.618 -25.659  0.00  0.00    +0.008 A 
ATOM      4  C   UNL     1      -3.797   3.576 -24.204  0.00  0.00    -0.034 A 
ATOM      5  C   UNL     1      -2.919   3.450 -23.622  0.00  0.00    +0.013 A 
ATOM      6  C   UNL     1      -2.786   3.397 -22.688  0.00  0.00    +0.034 C 
ATOM      7  C   UNL     1      -1.743   3.248 -21.995  0.00  0.00    -0.014 C 
ATOM      8  C   UNL     1      -1.827   3.206 -20.703  0.00  0.00    -0.004 C 
ATOM      9  C   UNL     1      -2.988   3.316 -20.099  0.00  0.00    -0.004 C 
ATOM     10  C   UNL     1      -4.087   3.470 -20.773  0.00  0.00    -0.017 C 
ATOM     11  C   UNL     1      -2.814   3.468 -24.362  0.00  0.00    +0.067 C 
ATOM     12  C   UNL     1      -4.099   3.645 -25.054  0.00  0.00    +0.132 C 
ATOM     13  N   UNL     1      -5.083   3.733 -24.426  0.00  0.00    +0.236 N 
ATOM     14  H   UNL     1      -5.719   3.775 -23.629  0.00  0.00    +0.203 HD
ATOM     15  C   UNL     1      -5.800   3.861 -25.524  0.00  0.00    +0.190 C 
ATOM     16  C   UNL     1      -5.083   3.669 -22.842  0.00  0.00    +0.076 C 
ATOM     17  C   UNL     1      -4.045   3.516 -22.030  0.00  0.00    +0.075 C 
ATOM     18  C   UNL     1      -4.951   3.689 -23.697  0.00  0.00    +0.090 C 
ATOM     19  C   UNL     1      -1.705   3.330 -24.122  0.00  0.00    +0.178 A 
ENDROOT
BRANCH   1  21
ATOM     20  C   UNL     1       0.641   4.147 -25.889  0.00  0.00    +0.277 C 
ATOM     21  O   UNL     1      -0.199   3.221 -25.729  0.00  0.00    -0.491 OA
ENDBRANCH   1  21
BRANCH  19  22
ATOM     22  O   UNL     1      -0.696   3.165 -22.934  0.00  0.00    -0.418 OA
BRANCH  22  23
ATOM     23  C   UNL     1       0.280   2.222 -22.611  0.00  0.00    +0.347 A 
ATOM     24  N   UNL     1      -0.000   1.001 -22.338  0.00  0.00    -0.070 NA
ATOM     25  N   UNL     1       1.091   0.389 -22.086  0.00  0.00    -0.019 NA
ATOM     26  N   UNL     1       2.055   1.226 -22.202  0.00  0.00    -0.036 NA
ATOM     27  N   UNL     1       1.554   2.360 -22.526  0.00  0.00    -0.162 N 
BRANCH  27  28
ATOM     28  C   UNL     1       2.254   3.427 -22.723  0.00  0.00    +0.072 A 
ATOM     29  C   UNL     1       1.695   4.581 -22.783  0.00  0.00    +0.028 A 
ATOM     30  C   UNL     1       2.407   5.627 -22.978  0.00  0.00    +0.002 A 
ATOM     31  C   UNL     1       3.678   5.524 -23.114  0.00  0.00    +0.000 A 
ATOM     32  C   UNL     1       4.237   4.371 -23.055  0.00  0.00    +0.002 A 
ATOM     33  C   UNL     1       3.525   3.324 -22.859  0.00  0.00    +0.028 A 
ENDBRANCH  27  28
ENDBRANCH  22  23
ENDBRANCH  19  22
TORSDOF 4
ENDMDL
MODEL 2
REMARK VINA RESULT:   -10.614      1.666      3.685
REMARK INTER + INTRA:         -14.429
REMARK INTER:                 -13.808
REMARK INTRA:                  -0.621
REMARK UNBOUND:                -1.333
REMARK  Name = COc1ccc2c(c1Oc1nnnn1-c1ccccc1)[C@]13C=CC=C[C@@H]1[C@H](C2)N(C)CC3    ZINC000096316428
REMARK  6 active torsions:
REMARK  status: ('A' for Active; 'I' for Inactive)
REMARK    1  A    between atoms: C_1  and  O_2
REMARK    2  A    between atoms: O_2  and  C_3
REMARK    3  A    between atoms: C_8  and  O_9
REMARK    4  A    between atoms: O_9  and  C_10
REMARK    5  A    between atoms: N_14  and  C_15
REMARK    6  A    between atoms: N_29  and  C_30
REMARK                            x       y       z     vdW  Elec       q    Type
REMARK                         _______ _______ _______ _____ _____    ______ ____
ROOT
ATOM      1  C   UNL     1      -2.002   2.753 -21.250  0.00  0.00    +0.163 A 
ATOM      2  C   UNL     1      -3.136   2.763 -20.695  0.00  0.00    +0.050 A 
ATOM      3  C   UNL     1      -4.157   2.994 -21.401  0.00  0.00    +0.008 A 
ATOM      4  C   UNL     1      -3.991   3.241 -22.834  0.00  0.00    -0.034 A 
ATOM      5  C   UNL     1      -3.006   3.216 -23.228  0.00  0.00    +0.013 A 
ATOM      6  C   UNL     1      -2.677   3.344 -24.105  0.00  0.00    +0.034 C 
ATOM      7  C   UNL     1      -1.507   3.315 -24.575  0.00  0.00    -0.014 C 
ATOM      8  C   UNL     1      -1.313   3.528 -25.838  0.00  0.00    -0.004 C 
ATOM      9  C   UNL     1      -2.323   3.775 -26.642  0.00  0.00    -0.004 C 
ATOM     10  C   UNL     1      -3.542   3.815 -26.201  0.00  0.00    -0.017 C 
ATOM     11  C   UNL     1      -3.061   3.086 -22.494  0.00  0.00    +0.067 C 
ATOM     12  C   UNL     1      -4.467   3.148 -22.071  0.00  0.00    +0.132 C 
ATOM     13  N   UNL     1      -5.297   3.376 -22.864  0.00  0.00    +0.236 N 
ATOM     14  H   UNL     1      -5.750   3.584 -23.754  0.00  0.00    +0.203 HD
ATOM     15  C   UNL     1      -6.234   3.299 -21.941  0.00  0.00    +0.190 C 
ATOM     16  C   UNL     1      -4.959   3.623 -24.393  0.00  0.00    +0.076 C 
ATOM     17  C   UNL     1      -3.769   3.613 -24.980  0.00  0.00    +0.075 C 
ATOM     18  C   UNL     1      -5.013   3.472 -23.543  0.00  0.00    +0.090 C 
ATOM     19  C   UNL     1      -1.923   2.978 -22.515  0.00  0.00    +0.178 A 
ENDROOT
BRANCH   1  21
ATOM     20  C   UNL     1      -0.133   1.453 -20.700  0.00  0.00    +0.277 C 
ATOM     21  O   UNL     1      -0.791   2.528 -20.677  0.00  0.00    -0.491 OA
ENDBRANCH   1  21
BRANCH  19  22
ATOM     22  O   UNL     1      -0.681   3.030 -23.470  0.00  0.00    -0.418 OA
BRANCH  22  23
ATOM     23  C   UNL     1       0.421   3.877 -23.586  0.00  0.00    +0.347 A 
ATOM     24  N   UNL     1       0.316   5.102 -23.951  0.00  0.00    -0.070 NA
ATOM     25  N   UNL     1       1.486   5.615 -23.963  0.00  0.00    -0.019 NA
ATOM     26  N   UNL     1       2.322   4.712 -23.605  0.00  0.00    -0.036 NA
ATOM     27  N   UNL     1       1.663   3.637 -23.372  0.00  0.00    -0.162 N 
BRANCH  27  28
ATOM     28  C   UNL     1       2.206   2.530 -22.989  0.00  0.00    +0.072 A 
ATOM     29  C   UNL     1       2.086   1.461 -23.689  0.00  0.00    +0.028 A 
ATOM     30  C   UNL     1       2.632   0.372 -23.292  0.00  0.00    +0.002 A 
ATOM     31  C   UNL     1       3.297   0.348 -22.196  0.00  0.00    +0.000 A 
ATOM     32  C   UNL     1       3.417   1.417 -21.496  0.00  0.00    +0.002 A 
ATOM     33  C   UNL     1       2.871   2.506 -21.893  0.00  0.00    +0.028 A 
ENDBRANCH  27  28
ENDBRANCH  22  23
ENDBRANCH  19  22
TORSDOF 4
ENDMDL
MODEL 3
REMARK VINA RESULT:    -9.227      1.500      2.267
REMARK INTER + INTRA:         -12.718
REMARK INTER:                 -11.823
REMARK INTRA:                  -0.895
REMARK UNBOUND:                -1.333
REMARK  Name = COc1ccc2c(c1Oc1nnnn1-c1ccccc1)[C@]13C=CC=C[C@@H]1[C@H](C2)N(C)CC3    ZINC000096316428
REMARK  6 active torsions:
REMARK  status: ('A' for Active; 'I' for Inactive)
REMARK    1  A    between atoms: C_1  and  O_2
REMARK    2  A    between atoms: O_2  and  C_3
REMARK    3  A    between atoms: C_8  and  O_9
REMARK    4  A    between atoms: O_9  and  C_10
REMARK    5  A    between atoms: N_14  and  C_15
REMARK    6  A    between atoms: N_29  and  C_30
REMARK                            x       y       z     vdW  Elec       q    Type
REMARK                         _______ _______ _______ _____ _____    ______ ____
ROOT
ATOM      1  C   UNL     1      -1.284   3.625 -25.715  0.00  0.00    +0.163 A 
ATOM      2  C   UNL     1      -2.293   3.522 -26.468  0.00  0.00    +0.050 A 
ATOM      3  C   UNL     1      -3.441   3.476 -25.944  0.00  0.00    +0.008 A 
ATOM      4  C   UNL     1      -3.562   3.545 -24.488  0.00  0.00    -0.034 A 
ATOM      5  C   UNL     1      -2.669   3.631 -23.922  0.00  0.00    +0.013 A 
ATOM      6  C   UNL     1      -2.519   3.689 -22.990  0.00  0.00    +0.034 C 
ATOM      7  C   UNL     1      -1.459   3.791 -22.315  0.00  0.00    -0.014 C 
ATOM      8  C   UNL     1      -1.519   3.855 -21.023  0.00  0.00    -0.004 C 
ATOM      9  C   UNL     1      -2.675   3.814 -20.400  0.00  0.00    -0.004 C 
ATOM     10  C   UNL     1      -3.790   3.710 -21.055  0.00  0.00    -0.017 C 
ATOM     11  C   UNL     1      -2.577   3.598 -24.663  0.00  0.00    +0.067 C 
ATOM     12  C   UNL     1      -3.881   3.481 -25.332  0.00  0.00    +0.132 C 
ATOM     13  N   UNL     1      -4.857   3.453 -24.688  0.00  0.00    +0.236 N 
ATOM     14  H   UNL     1      -5.482   3.455 -23.881  0.00  0.00    +0.203 HD
ATOM     15  C   UNL     1      -5.598   3.349 -25.773  0.00  0.00    +0.190 C 
ATOM     16  C   UNL     1      -4.828   3.537 -23.105  0.00  0.00    +0.076 C 
ATOM     17  C   UNL     1      -3.771   3.645 -22.311  0.00  0.00    +0.075 C 
ATOM     18  C   UNL     1      -4.712   3.500 -23.962  0.00  0.00    +0.090 C 
ATOM     19  C   UNL     1      -1.459   3.680 -24.441  0.00  0.00    +0.178 A 
ENDROOT
BRANCH   1  21
ATOM     20  C   UNL     1       0.867   2.752 -26.025  0.00  0.00    +0.277 C 
ATOM     21  O   UNL     1       0.025   3.689 -26.073  0.00  0.00    -0.491 OA
ENDBRANCH   1  21
BRANCH  19  22
ATOM     22  O   UNL     1      -0.423   3.807 -23.271  0.00  0.00    -0.418 OA
BRANCH  22  23
ATOM     23  C   UNL     1       0.809   4.444 -23.128  0.00  0.00    +0.347 A 
ATOM     24  N   UNL     1       0.946   5.715 -23.229  0.00  0.00    -0.070 NA
ATOM     25  N   UNL     1       2.179   5.998 -23.052  0.00  0.00    -0.019 NA
ATOM     26  N   UNL     1       2.813   4.905 -22.840  0.00  0.00    -0.036 NA
ATOM     27  N   UNL     1       1.966   3.944 -22.887  0.00  0.00    -0.162 N 
BRANCH  27  28
ATOM     28  C   UNL     1       2.276   2.702 -22.715  0.00  0.00    +0.072 A 
ATOM     29  C   UNL     1       1.663   1.984 -21.845  0.00  0.00    +0.028 A 
ATOM     30  C   UNL     1       1.985   0.754 -21.689  0.00  0.00    +0.002 A 
ATOM     31  C   UNL     1       2.920   0.239 -22.401  0.00  0.00    +0.000 A 
ATOM     32  C   UNL     1       3.532   0.957 -23.270  0.00  0.00    +0.002 A 
ATOM     33  C   UNL     1       3.210   2.187 -23.426  0.00  0.00    +0.028 A 
ENDBRANCH  27  28
ENDBRANCH  22  23
ENDBRANCH  19  22
TORSDOF 4
ENDMDL
MODEL 4
REMARK VINA RESULT:    -9.017      3.704      6.537
REMARK INTER + INTRA:         -12.459
REMARK INTER:                 -11.072
REMARK INTRA:                  -1.388
REMARK UNBOUND:                -1.333
REMARK  Name = COc1ccc2c(c1Oc1nnnn1-c1ccccc1)[C@]13C=CC=C[C@@H]1[C@H](C2)N(C)CC3    ZINC000096316428
REMARK  6 active torsions:
REMARK  status: ('A' for Active; 'I' for Inactive)
REMARK    1  A    between atoms: C_1  and  O_2
REMARK    2  A    between atoms: O_2  and  C_3
REMARK    3  A    between atoms: C_8  and  O_9
REMARK    4  A    between atoms: O_9  and  C_10
REMARK    5  A    between atoms: N_14  and  C_15
REMARK    6  A    between atoms: N_29  and  C_30
REMARK                            x       y       z     vdW  Elec       q    Type
REMARK                         _______ _______ _______ _____ _____    ______ ____
ROOT
ATOM      1  C   UNL     1       3.727   5.719 -22.759  0.00  0.00    +0.163 A 
ATOM      2  C   UNL     1       2.586   6.038 -23.198  0.00  0.00    +0.050 A 
ATOM      3  C   UNL     1       1.742   5.125 -23.419  0.00  0.00    +0.008 A 
ATOM      4  C   UNL     1       2.114   3.734 -23.159  0.00  0.00    -0.034 A 
ATOM      5  C   UNL     1       3.091   3.544 -22.791  0.00  0.00    +0.013 A 
ATOM      6  C   UNL     1       3.530   2.739 -22.560  0.00  0.00    +0.034 C 
ATOM      7  C   UNL     1       4.690   2.512 -22.122  0.00  0.00    -0.014 C 
ATOM      8  C   UNL     1       5.062   1.296 -21.878  0.00  0.00    -0.004 C 
ATOM      9  C   UNL     1       4.243   0.288 -22.081  0.00  0.00    -0.004 C 
ATOM     10  C   UNL     1       3.040   0.476 -22.530  0.00  0.00    -0.017 C 
ATOM     11  C   UNL     1       2.928   4.264 -22.915  0.00  0.00    +0.067 C 
ATOM     12  C   UNL     1       1.554   4.395 -23.420  0.00  0.00    +0.132 C 
ATOM     13  N   UNL     1       0.902   3.435 -23.568  0.00  0.00    +0.236 N 
ATOM     14  H   UNL     1       0.614   2.456 -23.583  0.00  0.00    +0.203 HD
ATOM     15  C   UNL     1      -0.111   4.161 -23.998  0.00  0.00    +0.190 C 
ATOM     16  C   UNL     1       1.447   1.984 -23.240  0.00  0.00    +0.076 C 
ATOM     17  C   UNL     1       2.644   1.644 -22.779  0.00  0.00    +0.075 C 
ATOM     18  C   UNL     1       1.269   2.818 -23.380  0.00  0.00    +0.090 C 
ATOM     19  C   UNL     1       3.991   4.477 -22.552  0.00  0.00    +0.178 A 
ENDROOT
BRANCH   1  21
ATOM     20  C   UNL     1       4.732   7.571 -21.737  0.00  0.00    +0.277 C 
ATOM     21  O   UNL     1       4.768   6.538 -22.459  0.00  0.00    -0.491 OA
ENDBRANCH   1  21
BRANCH  19  22
ATOM     22  O   UNL     1       5.292   3.782 -22.021  0.00  0.00    -0.418 OA
BRANCH  22  23
ATOM     23  C   UNL     1       6.469   4.244 -21.432  0.00  0.00    +0.347 A 
ATOM     24  N   UNL     1       6.582   4.436 -20.169  0.00  0.00    -0.070 NA
ATOM     25  N   UNL     1       7.765   4.856 -19.934  0.00  0.00    -0.019 NA
ATOM     26  N   UNL     1       8.392   4.927 -21.049  0.00  0.00    -0.036 NA
ATOM     27  N   UNL     1       7.591   4.549 -21.975  0.00  0.00    -0.162 N 
BRANCH  27  28
ATOM     28  C   UNL     1       7.909   4.500 -23.226  0.00  0.00    +0.072 A 
ATOM     29  C   UNL     1       8.111   3.376 -23.812  0.00  0.00    +0.028 A 
ATOM     30  C   UNL     1       8.425   3.349 -25.054  0.00  0.00    +0.002 A 
ATOM     31  C   UNL     1       8.538   4.444 -25.712  0.00  0.00    +0.000 A 
ATOM     32  C   UNL     1       8.336   5.567 -25.127  0.00  0.00    +0.002 A 
ATOM     33  C   UNL     1       8.022   5.594 -23.885  0.00  0.00    +0.028 A 
ENDBRANCH  27  28
ENDBRANCH  22  23
ENDBRANCH  19  22
TORSDOF 4
ENDMDL
MODEL 5
REMARK VINA RESULT:    -8.768      3.399      5.994
REMARK INTER + INTRA:         -12.152
REMARK INTER:                 -11.020
REMARK INTRA:                  -1.132
REMARK UNBOUND:                -1.333
REMARK  Name = COc1ccc2c(c1Oc1nnnn1-c1ccccc1)[C@]13C=CC=C[C@@H]1[C@H](C2)N(C)CC3    ZINC000096316428
REMARK  6 active torsions:
REMARK  status: ('A' for Active; 'I' for Inactive)
REMARK    1  A    between atoms: C_1  and  O_2
REMARK    2  A    between atoms: O_2  and  C_3
REMARK    3  A    between atoms: C_8  and  O_9
REMARK    4  A    between atoms: O_9  and  C_10
REMARK    5  A    between atoms: N_14  and  C_15
REMARK    6  A    between atoms: N_29  and  C_30
REMARK                            x       y       z     vdW  Elec       q    Type
REMARK                         _______ _______ _______ _____ _____    ______ ____
ROOT
ATOM      1  C   UNL     1       2.404   5.122 -23.213  0.00  0.00    +0.163 A 
ATOM      2  C   UNL     1       1.182   4.961 -23.488  0.00  0.00    +0.050 A 
ATOM      3  C   UNL     1       0.658   3.828 -23.289  0.00  0.00    +0.008 A 
ATOM      4  C   UNL     1       1.482   2.747 -22.749  0.00  0.00    -0.034 A 
ATOM      5  C   UNL     1       2.501   2.959 -22.542  0.00  0.00    +0.013 A 
ATOM      6  C   UNL     1       3.197   2.421 -22.197  0.00  0.00    +0.034 C 
ATOM      7  C   UNL     1       4.408   2.671 -21.951  0.00  0.00    -0.014 C 
ATOM      8  C   UNL     1       5.175   1.743 -21.472  0.00  0.00    -0.004 C 
ATOM      9  C   UNL     1       4.707   0.538 -21.237  0.00  0.00    -0.004 C 
ATOM     10  C   UNL     1       3.467   0.237 -21.475  0.00  0.00    -0.017 C 
ATOM     11  C   UNL     1       2.104   3.530 -22.818  0.00  0.00    +0.067 C 
ATOM     12  C   UNL     1       0.716   3.113 -23.061  0.00  0.00    +0.132 C 
ATOM     13  N   UNL     1       0.394   2.014 -22.818  0.00  0.00    +0.236 N 
ATOM     14  H   UNL     1       0.437   1.040 -22.517  0.00  0.00    +0.203 HD
ATOM     15  C   UNL     1      -0.837   2.261 -23.218  0.00  0.00    +0.190 C 
ATOM     16  C   UNL     1       1.409   0.947 -22.231  0.00  0.00    +0.076 C 
ATOM     17  C   UNL     1       2.693   1.113 -21.941  0.00  0.00    +0.075 C 
ATOM     18  C   UNL     1       0.958   1.613 -22.549  0.00  0.00    +0.090 C 
ATOM     19  C   UNL     1       3.074   4.130 -22.740  0.00  0.00    +0.178 A 
ENDROOT
BRANCH   1  21
ATOM     20  C   UNL     1       3.529   7.020 -22.429  0.00  0.00    +0.277 C 
ATOM     21  O   UNL     1       3.152   6.247 -23.350  0.00  0.00    -0.491 OA
ENDBRANCH   1  21
BRANCH  19  22
ATOM     22  O   UNL     1       4.578   4.023 -22.310  0.00  0.00    -0.418 OA
BRANCH  22  23
ATOM     23  C   UNL     1       5.788   4.014 -23.002  0.00  0.00    +0.347 A 
ATOM     24  N   UNL     1       5.949   3.382 -24.107  0.00  0.00    -0.070 NA
ATOM     25  N   UNL     1       7.152   3.560 -24.496  0.00  0.00    -0.019 NA
ATOM     26  N   UNL     1       7.744   4.303 -23.635  0.00  0.00    -0.036 NA
ATOM     27  N   UNL     1       6.901   4.583 -22.712  0.00  0.00    -0.162 N 
BRANCH  27  28
ATOM     28  C   UNL     1       7.175   5.318 -21.686  0.00  0.00    +0.072 A 
ATOM     29  C   UNL     1       6.960   6.584 -21.705  0.00  0.00    +0.028 A 
ATOM     30  C   UNL     1       7.239   7.296 -20.677  0.00  0.00    +0.002 A 
ATOM     31  C   UNL     1       7.733   6.745 -19.629  0.00  0.00    +0.000 A 
ATOM     32  C   UNL     1       7.948   5.481 -19.610  0.00  0.00    +0.002 A 
ATOM     33  C   UNL     1       7.669   4.769 -20.638  0.00  0.00    +0.028 A 
ENDBRANCH  27  28
ENDBRANCH  22  23
ENDBRANCH  19  22
TORSDOF 4
ENDMDL
MODEL 6
REMARK VINA RESULT:    -8.370      1.764      6.562
REMARK INTER + INTRA:         -11.661
REMARK INTER:                 -11.304
REMARK INTRA:                  -0.357
REMARK UNBOUND:                -1.333
REMARK  Name = COc1ccc2c(c1Oc1nnnn1-c1ccccc1)[C@]13C=CC=C[C@@H]1[C@H](C2)N(C)CC3    ZINC000096316428
REMARK  6 active torsions:
REMARK  status: ('A' for Active; 'I' for Inactive)
REMARK    1  A    between atoms: C_1  and  O_2
REMARK    2  A    between atoms: O_2  and  C_3
REMARK    3  A    between atoms: C_8  and  O_9
REMARK    4  A    between atoms: O_9  and  C_10
REMARK    5  A    between atoms: N_14  and  C_15
REMARK    6  A    between atoms: N_29  and  C_30
REMARK                            x       y       z     vdW  Elec       q    Type
REMARK                         _______ _______ _______ _____ _____    ______ ____
ROOT
ATOM      1  C   UNL     1       1.462   5.207 -23.386  0.00  0.00    +0.163 A 
ATOM      2  C   UNL     1       2.426   6.019 -23.296  0.00  0.00    +0.050 A 
ATOM      3  C   UNL     1       3.583   5.567 -23.071  0.00  0.00    +0.008 A 
ATOM      4  C   UNL     1       3.767   4.123 -22.923  0.00  0.00    -0.034 A 
ATOM      5  C   UNL     1       2.910   3.504 -23.012  0.00  0.00    +0.013 A 
ATOM      6  C   UNL     1       2.803   2.567 -22.953  0.00  0.00    +0.034 C 
ATOM      7  C   UNL     1       1.785   1.830 -23.058  0.00  0.00    -0.014 C 
ATOM      8  C   UNL     1       1.902   0.546 -22.934  0.00  0.00    -0.004 C 
ATOM      9  C   UNL     1       3.072  -0.004 -22.699  0.00  0.00    -0.004 C 
ATOM     10  C   UNL     1       4.145   0.716 -22.583  0.00  0.00    -0.017 C 
ATOM     11  C   UNL     1       2.787   4.237 -23.092  0.00  0.00    +0.067 C 
ATOM     12  C   UNL     1       4.045   4.983 -22.949  0.00  0.00    +0.132 C 
ATOM     13  N   UNL     1       5.038   4.401 -22.740  0.00  0.00    +0.236 N 
ATOM     14  H   UNL     1       5.691   3.635 -22.571  0.00  0.00    +0.203 HD
ATOM     15  C   UNL     1       5.722   5.527 -22.721  0.00  0.00    +0.190 C 
ATOM     16  C   UNL     1       5.080   2.823 -22.604  0.00  0.00    +0.076 C 
ATOM     17  C   UNL     1       4.070   1.967 -22.698  0.00  0.00    +0.075 C 
ATOM     18  C   UNL     1       4.927   3.669 -22.698  0.00  0.00    +0.090 C 
ATOM     19  C   UNL     1       1.691   3.948 -23.246  0.00  0.00    +0.178 A 
ENDROOT
BRANCH   1  21
ATOM     20  C   UNL     1      -0.721   5.781 -22.764  0.00  0.00    +0.277 C 
ATOM     21  O   UNL     1       0.153   5.483 -23.622  0.00  0.00    -0.491 OA
ENDBRANCH   1  21
BRANCH  19  22
ATOM     22  O   UNL     1       0.720   2.719 -23.304  0.00  0.00    -0.418 OA
BRANCH  22  23
ATOM     23  C   UNL     1      -0.343   2.282 -22.513  0.00  0.00    +0.347 A 
ATOM     24  N   UNL     1      -0.171   1.713 -21.376  0.00  0.00    -0.070 NA
ATOM     25  N   UNL     1      -1.320   1.430 -20.895  0.00  0.00    -0.019 NA
ATOM     26  N   UNL     1      -2.210   1.822 -21.731  0.00  0.00    -0.036 NA
ATOM     27  N   UNL     1      -1.606   2.348 -22.731  0.00  0.00    -0.162 N 
BRANCH  27  28
ATOM     28  C   UNL     1      -2.212   2.846 -23.757  0.00  0.00    +0.072 A 
ATOM     29  C   UNL     1      -1.645   2.872 -24.908  0.00  0.00    +0.028 A 
ATOM     30  C   UNL     1      -2.262   3.370 -25.914  0.00  0.00    +0.002 A 
ATOM     31  C   UNL     1      -3.446   3.842 -25.772  0.00  0.00    +0.000 A 
ATOM     32  C   UNL     1      -4.012   3.816 -24.622  0.00  0.00    +0.002 A 
ATOM     33  C   UNL     1      -3.395   3.318 -23.615  0.00  0.00    +0.028 A 
ENDBRANCH  27  28
ENDBRANCH  22  23
ENDBRANCH  19  22
TORSDOF 4
ENDMDL
