MODEL 1
REMARK VINA RESULT:   -10.352      0.000      0.000
REMARK INTER + INTRA:         -10.655
REMARK INTER:                 -10.655
REMARK INTRA:                   0.000
REMARK UNBOUND:                 0.000
REMARK  Name = ZINC000071325819
REMARK  4 active torsions:
REMARK  status: ('A' for Active; 'I' for Inactive)
REMARK    1  A    between atoms: C_1  and  C_2
REMARK    2  A    between atoms: C_6  and  C_7
REMARK    3  A    between atoms: C_6  and  O_8
REMARK    4  A    between atoms: C_14  and  C_15
REMARK                            x       y       z     vdW  Elec       q    Type
REMARK                         _______ _______ _______ _____ _____    ______ ____
ROOT
ATOM      1  C   UNL     1      -5.758   3.382 -22.145  0.00  0.00    +0.039 C 
ATOM      2  C   UNL     1      -4.511   3.112 -22.394  0.00  0.00    -0.073 C 
ATOM      3  C   UNL     1      -4.134   3.270 -23.627  0.00  0.00    -0.061 C 
ATOM      4  C   UNL     1      -4.930   3.671 -24.573  0.00  0.00    +0.034 C 
ATOM      5  C   UNL     1      -4.247   3.724 -25.678  0.00  0.00    +0.039 C 
ATOM      6  C   UNL     1      -3.028   3.356 -25.415  0.00  0.00    +0.073 C 
ATOM      7  C   UNL     1      -2.835   3.569 -26.683  0.00  0.00    +0.042 C 
ATOM      8  C   UNL     1      -2.958   3.075 -24.147  0.00  0.00    +0.087 C 
ATOM      9  C   UNL     1      -1.869   2.673 -23.562  0.00  0.00    +0.190 C 
ATOM     10  O   UNL     1      -0.739   2.511 -24.184  0.00  0.00    -0.460 OA
ATOM     11  C   UNL     1       0.141   2.105 -23.318  0.00  0.00    +0.311 C 
ATOM     12  C   UNL     1      -0.445   2.016 -22.161  0.00  0.00    +0.101 C 
ATOM     13  C   UNL     1       0.114   1.642 -21.048  0.00  0.00    +0.019 C 
ATOM     14  O   UNL     1       1.389   1.835 -23.565  0.00  0.00    -0.251 OA
ATOM     15  C   UNL     1      -1.687   2.368 -22.311  0.00  0.00    +0.044 C 
ATOM     16  C   UNL     1      -2.548   2.388 -21.338  0.00  0.00    +0.012 C 
ATOM     17  C   UNL     1      -3.805   2.719 -21.374  0.00  0.00    +0.031 C 
ENDROOT
BRANCH   6  18
ATOM     18  O   UNL     1      -1.769   3.032 -25.417  0.00  0.00    -0.388 OA
ATOM     19  H   UNL     1      -1.259   3.712 -24.951  0.00  0.00    +0.210 HD
ENDBRANCH   6  18
TORSDOF 1
ENDMDL
MODEL 2
REMARK VINA RESULT:    -9.863      1.620      3.168
REMARK INTER + INTRA:         -10.151
REMARK INTER:                 -10.151
REMARK INTRA:                   0.000
REMARK UNBOUND:                 0.000
REMARK  Name = ZINC000071325819
REMARK  4 active torsions:
REMARK  status: ('A' for Active; 'I' for Inactive)
REMARK    1  A    between atoms: C_1  and  C_2
REMARK    2  A    between atoms: C_6  and  C_7
REMARK    3  A    between atoms: C_6  and  O_8
REMARK    4  A    between atoms: C_14  and  C_15
REMARK                            x       y       z     vdW  Elec       q    Type
REMARK                         _______ _______ _______ _____ _____    ______ ____
ROOT
ATOM      1  C   UNL     1      -3.809   4.443 -25.875  0.00  0.00    +0.039 C 
ATOM      2  C   UNL     1      -3.077   3.885 -24.958  0.00  0.00    -0.073 C 
ATOM      3  C   UNL     1      -3.694   3.569 -23.858  0.00  0.00    -0.061 C 
ATOM      4  C   UNL     1      -4.960   3.785 -23.660  0.00  0.00    +0.034 C 
ATOM      5  C   UNL     1      -5.260   3.356 -22.470  0.00  0.00    +0.039 C 
ATOM      6  C   UNL     1      -4.179   2.875 -21.932  0.00  0.00    +0.073 C 
ATOM      7  C   UNL     1      -4.955   2.632 -20.918  0.00  0.00    +0.042 C 
ATOM      8  C   UNL     1      -3.210   3.006 -22.790  0.00  0.00    +0.087 C 
ATOM      9  C   UNL     1      -1.991   2.620 -22.558  0.00  0.00    +0.190 C 
ATOM     10  O   UNL     1      -1.615   2.064 -21.445  0.00  0.00    -0.460 OA
ATOM     11  C   UNL     1      -0.345   1.802 -21.536  0.00  0.00    +0.311 C 
ATOM     12  C   UNL     1       0.064   2.196 -22.706  0.00  0.00    +0.101 C 
ATOM     13  C   UNL     1       1.277   2.101 -23.163  0.00  0.00    +0.019 C 
ATOM     14  O   UNL     1       0.388   1.243 -20.619  0.00  0.00    -0.251 OA
ATOM     15  C   UNL     1      -0.953   2.702 -23.338  0.00  0.00    +0.044 C 
ATOM     16  C   UNL     1      -0.879   3.189 -24.540  0.00  0.00    +0.012 C 
ATOM     17  C   UNL     1      -1.824   3.716 -25.261  0.00  0.00    +0.031 C 
ENDROOT
BRANCH   6  18
ATOM     18  O   UNL     1      -3.260   2.342 -21.182  0.00  0.00    -0.388 OA
ATOM     19  H   UNL     1      -3.544   1.460 -20.900  0.00  0.00    +0.210 HD
ENDBRANCH   6  18
TORSDOF 1
ENDMDL
MODEL 3
REMARK VINA RESULT:    -9.488      1.496      4.213
REMARK INTER + INTRA:          -9.765
REMARK INTER:                  -9.765
REMARK INTRA:                   0.000
REMARK UNBOUND:                 0.000
REMARK  Name = ZINC000071325819
REMARK  4 active torsions:
REMARK  status: ('A' for Active; 'I' for Inactive)
REMARK    1  A    between atoms: C_1  and  C_2
REMARK    2  A    between atoms: C_6  and  C_7
REMARK    3  A    between atoms: C_6  and  O_8
REMARK    4  A    between atoms: C_14  and  C_15
REMARK                            x       y       z     vdW  Elec       q    Type
REMARK                         _______ _______ _______ _____ _____    ______ ____
ROOT
ATOM      1  C   UNL     1       0.114   1.499 -20.890  0.00  0.00    +0.039 C 
ATOM      2  C   UNL     1      -0.706   2.081 -21.714  0.00  0.00    -0.073 C 
ATOM      3  C   UNL     1      -0.172   2.559 -22.798  0.00  0.00    -0.061 C 
ATOM      4  C   UNL     1       1.097   2.475 -23.069  0.00  0.00    +0.034 C 
ATOM      5  C   UNL     1       1.302   3.047 -24.219  0.00  0.00    +0.039 C 
ATOM      6  C   UNL     1       0.159   3.484 -24.659  0.00  0.00    +0.073 C 
ATOM      7  C   UNL     1       0.862   3.895 -25.673  0.00  0.00    +0.042 C 
ATOM      8  C   UNL     1      -0.752   3.183 -23.781  0.00  0.00    +0.087 C 
ATOM      9  C   UNL     1      -2.009   3.483 -23.922  0.00  0.00    +0.190 C 
ATOM     10  O   UNL     1      -2.484   4.114 -24.954  0.00  0.00    -0.460 OA
ATOM     11  C   UNL     1      -3.765   4.254 -24.785  0.00  0.00    +0.311 C 
ATOM     12  C   UNL     1      -4.082   3.709 -23.648  0.00  0.00    +0.101 C 
ATOM     13  C   UNL     1      -5.275   3.651 -23.135  0.00  0.00    +0.019 C 
ATOM     14  O   UNL     1      -4.586   4.837 -25.608  0.00  0.00    -0.251 OA
ATOM     15  C   UNL     1      -2.997   3.232 -23.114  0.00  0.00    +0.044 C 
ATOM     16  C   UNL     1      -2.972   2.621 -21.967  0.00  0.00    +0.012 C 
ATOM     17  C   UNL     1      -1.952   2.109 -21.344  0.00  0.00    +0.031 C 
ENDROOT
BRANCH   6  18
ATOM     18  O   UNL     1      -0.836   4.008 -25.311  0.00  0.00    -0.388 OA
ATOM     19  H   UNL     1      -0.507   4.703 -25.900  0.00  0.00    +0.210 HD
ENDBRANCH   6  18
TORSDOF 1
ENDMDL
MODEL 4
REMARK VINA RESULT:    -9.001      1.923      5.113
REMARK INTER + INTRA:          -9.264
REMARK INTER:                  -9.264
REMARK INTRA:                   0.000
REMARK UNBOUND:                 0.000
REMARK  Name = ZINC000071325819
REMARK  4 active torsions:
REMARK  status: ('A' for Active; 'I' for Inactive)
REMARK    1  A    between atoms: C_1  and  C_2
REMARK    2  A    between atoms: C_6  and  C_7
REMARK    3  A    between atoms: C_6  and  O_8
REMARK    4  A    between atoms: C_14  and  C_15
REMARK                            x       y       z     vdW  Elec       q    Type
REMARK                         _______ _______ _______ _____ _____    ______ ____
ROOT
ATOM      1  C   UNL     1       1.186   3.380 -25.583  0.00  0.00    +0.039 C 
ATOM      2  C   UNL     1       0.071   3.304 -24.920  0.00  0.00    -0.073 C 
ATOM      3  C   UNL     1       0.154   2.776 -23.735  0.00  0.00    -0.061 C 
ATOM      4  C   UNL     1       1.266   2.343 -23.220  0.00  0.00    +0.034 C 
ATOM      5  C   UNL     1       1.007   1.879 -22.034  0.00  0.00    +0.039 C 
ATOM      6  C   UNL     1      -0.266   2.025 -21.815  0.00  0.00    +0.073 C 
ATOM      7  C   UNL     1       0.006   1.477 -20.668  0.00  0.00    +0.042 C 
ATOM      8  C   UNL     1      -0.794   2.580 -22.866  0.00  0.00    +0.087 C 
ATOM      9  C   UNL     1      -2.058   2.864 -22.969  0.00  0.00    +0.190 C 
ATOM     10  O   UNL     1      -2.925   2.622 -22.030  0.00  0.00    -0.460 OA
ATOM     11  C   UNL     1      -4.089   3.022 -22.446  0.00  0.00    +0.311 C 
ATOM     12  C   UNL     1      -3.942   3.512 -23.641  0.00  0.00    +0.101 C 
ATOM     13  C   UNL     1      -4.886   4.011 -24.383  0.00  0.00    +0.019 C 
ATOM     14  O   UNL     1      -5.205   2.947 -21.783  0.00  0.00    -0.251 OA
ATOM     15  C   UNL     1      -2.687   3.414 -23.965  0.00  0.00    +0.044 C 
ATOM     16  C   UNL     1      -2.208   3.815 -25.104  0.00  0.00    +0.012 C 
ATOM     17  C   UNL     1      -0.980   3.767 -25.529  0.00  0.00    +0.031 C 
ENDROOT
BRANCH   6  18
ATOM     18  O   UNL     1      -1.483   2.057 -21.357  0.00  0.00    -0.388 OA
ATOM     19  H   UNL     1      -1.491   2.496 -20.492  0.00  0.00    +0.210 HD
ENDBRANCH   6  18
TORSDOF 1
ENDMDL
MODEL 5
REMARK VINA RESULT:    -8.911      1.857      4.113
REMARK INTER + INTRA:          -9.172
REMARK INTER:                  -9.172
REMARK INTRA:                   0.000
REMARK UNBOUND:                 0.000
REMARK  Name = ZINC000071325819
REMARK  4 active torsions:
REMARK  status: ('A' for Active; 'I' for Inactive)
REMARK    1  A    between atoms: C_1  and  C_2
REMARK    2  A    between atoms: C_6  and  C_7
REMARK    3  A    between atoms: C_6  and  O_8
REMARK    4  A    between atoms: C_14  and  C_15
REMARK                            x       y       z     vdW  Elec       q    Type
REMARK                         _______ _______ _______ _____ _____    ______ ____
ROOT
ATOM      1  C   UNL     1      -2.942   3.653 -27.195  0.00  0.00    +0.039 C 
ATOM      2  C   UNL     1      -3.062   3.569 -25.904  0.00  0.00    -0.073 C 
ATOM      3  C   UNL     1      -1.951   3.581 -25.231  0.00  0.00    -0.061 C 
ATOM      4  C   UNL     1      -0.778   3.671 -25.786  0.00  0.00    +0.034 C 
ATOM      5  C   UNL     1       0.116   3.657 -24.842  0.00  0.00    +0.039 C 
ATOM      6  C   UNL     1      -0.504   3.558 -23.703  0.00  0.00    +0.073 C 
ATOM      7  C   UNL     1       0.696   3.585 -23.203  0.00  0.00    +0.042 C 
ATOM      8  C   UNL     1      -1.781   3.511 -23.943  0.00  0.00    +0.087 C 
ATOM      9  C   UNL     1      -2.682   3.411 -23.011  0.00  0.00    +0.190 C 
ATOM     10  O   UNL     1      -2.398   3.347 -21.744  0.00  0.00    -0.460 OA
ATOM     11  C   UNL     1      -3.515   3.253 -21.086  0.00  0.00    +0.311 C 
ATOM     12  C   UNL     1      -4.489   3.259 -21.947  0.00  0.00    +0.101 C 
ATOM     13  C   UNL     1      -5.756   3.181 -21.667  0.00  0.00    +0.019 C 
ATOM     14  O   UNL     1      -3.637   3.169 -19.795  0.00  0.00    -0.251 OA
ATOM     15  C   UNL     1      -3.975   3.356 -23.137  0.00  0.00    +0.044 C 
ATOM     16  C   UNL     1      -4.686   3.388 -24.224  0.00  0.00    +0.012 C 
ATOM     17  C   UNL     1      -4.280   3.483 -25.455  0.00  0.00    +0.031 C 
ENDROOT
BRANCH   6  18
ATOM     18  O   UNL     1      -0.872   3.464 -22.460  0.00  0.00    -0.388 OA
ATOM     19  H   UNL     1      -0.089   3.459 -21.890  0.00  0.00    +0.210 HD
ENDBRANCH   6  18
TORSDOF 1
ENDMDL
MODEL 6
REMARK VINA RESULT:    -8.866      1.956      3.826
REMARK INTER + INTRA:          -9.126
REMARK INTER:                  -9.126
REMARK INTRA:                   0.000
REMARK UNBOUND:                 0.000
REMARK  Name = ZINC000071325819
REMARK  4 active torsions:
REMARK  status: ('A' for Active; 'I' for Inactive)
REMARK    1  A    between atoms: C_1  and  C_2
REMARK    2  A    between atoms: C_6  and  C_7
REMARK    3  A    between atoms: C_6  and  O_8
REMARK    4  A    between atoms: C_14  and  C_15
REMARK                            x       y       z     vdW  Elec       q    Type
REMARK                         _______ _______ _______ _____ _____    ______ ____
ROOT
ATOM      1  C   UNL     1       0.892   2.841 -23.578  0.00  0.00    +0.039 C 
ATOM      2  C   UNL     1      -0.365   2.868 -23.248  0.00  0.00    -0.073 C 
ATOM      3  C   UNL     1      -1.197   3.125 -24.214  0.00  0.00    -0.061 C 
ATOM      4  C   UNL     1      -0.825   3.345 -25.439  0.00  0.00    +0.034 C 
ATOM      5  C   UNL     1      -1.891   3.568 -26.150  0.00  0.00    +0.039 C 
ATOM      6  C   UNL     1      -2.922   3.486 -25.362  0.00  0.00    +0.073 C 
ATOM      7  C   UNL     1      -3.596   3.754 -26.441  0.00  0.00    +0.042 C 
ATOM      8  C   UNL     1      -2.494   3.211 -24.166  0.00  0.00    +0.087 C 
ATOM      9  C   UNL     1      -3.279   3.062 -23.140  0.00  0.00    +0.190 C 
ATOM     10  O   UNL     1      -4.572   3.172 -23.207  0.00  0.00    -0.460 OA
ATOM     11  C   UNL     1      -5.054   2.967 -22.017  0.00  0.00    +0.311 C 
ATOM     12  C   UNL     1      -4.058   2.730 -21.215  0.00  0.00    +0.101 C 
ATOM     13  C   UNL     1      -4.145   2.479 -19.943  0.00  0.00    +0.019 C 
ATOM     14  O   UNL     1      -6.311   2.993 -21.686  0.00  0.00    -0.251 OA
ATOM     15  C   UNL     1      -2.960   2.789 -21.909  0.00  0.00    +0.044 C 
ATOM     16  C   UNL     1      -1.780   2.598 -21.400  0.00  0.00    +0.012 C 
ATOM     17  C   UNL     1      -0.625   2.633 -21.996  0.00  0.00    +0.031 C 
ENDROOT
BRANCH   6  18
ATOM     18  O   UNL     1      -4.094   3.459 -24.801  0.00  0.00    -0.388 OA
ATOM     19  H   UNL     1      -4.307   4.339 -24.455  0.00  0.00    +0.210 HD
ENDBRANCH   6  18
TORSDOF 1
ENDMDL
MODEL 7
REMARK VINA RESULT:    -8.026      2.330      3.654
REMARK INTER + INTRA:          -8.260
REMARK INTER:                  -8.260
REMARK INTRA:                   0.000
REMARK UNBOUND:                 0.000
REMARK  Name = ZINC000071325819
REMARK  4 active torsions:
REMARK  status: ('A' for Active; 'I' for Inactive)
REMARK    1  A    between atoms: C_1  and  C_2
REMARK    2  A    between atoms: C_6  and  C_7
REMARK    3  A    between atoms: C_6  and  O_8
REMARK    4  A    between atoms: C_14  and  C_15
REMARK                            x       y       z     vdW  Elec       q    Type
REMARK                         _______ _______ _______ _____ _____    ______ ____
ROOT
ATOM      1  C   UNL     1      -2.360   2.407 -21.738  0.00  0.00    +0.039 C 
ATOM      2  C   UNL     1      -1.079   2.283 -21.921  0.00  0.00    -0.073 C 
ATOM      3  C   UNL     1      -0.609   2.821 -23.007  0.00  0.00    -0.061 C 
ATOM      4  C   UNL     1      -1.347   3.449 -23.872  0.00  0.00    +0.034 C 
ATOM      5  C   UNL     1      -0.576   3.863 -24.834  0.00  0.00    +0.039 C 
ATOM      6  C   UNL     1       0.639   3.489 -24.563  0.00  0.00    +0.073 C 
ATOM      7  C   UNL     1       0.926   4.081 -25.685  0.00  0.00    +0.042 C 
ATOM      8  C   UNL     1       0.620   2.845 -23.434  0.00  0.00    +0.087 C 
ATOM      9  C   UNL     1       1.680   2.337 -22.880  0.00  0.00    +0.190 C 
ATOM     10  O   UNL     1       2.869   2.421 -23.399  0.00  0.00    -0.460 OA
ATOM     11  C   UNL     1       3.699   1.815 -22.603  0.00  0.00    +0.311 C 
ATOM     12  C   UNL     1       3.022   1.357 -21.591  0.00  0.00    +0.101 C 
ATOM     13  C   UNL     1       3.509   0.693 -20.585  0.00  0.00    +0.019 C 
ATOM     14  O   UNL     1       4.980   1.690 -22.785  0.00  0.00    -0.251 OA
ATOM     15  C   UNL     1       1.775   1.679 -21.763  0.00  0.00    +0.044 C 
ATOM     16  C   UNL     1       0.833   1.367 -20.923  0.00  0.00    +0.012 C 
ATOM     17  C   UNL     1      -0.437   1.635 -20.994  0.00  0.00    +0.031 C 
ENDROOT
BRANCH   6  18
ATOM     18  O   UNL     1       1.915   3.239 -24.527  0.00  0.00    -0.388 OA
ATOM     19  H   UNL     1       2.126   2.543 -25.167  0.00  0.00    +0.210 HD
ENDBRANCH   6  18
TORSDOF 1
ENDMDL
MODEL 8
REMARK VINA RESULT:    -8.002      2.826      5.102
REMARK INTER + INTRA:          -8.236
REMARK INTER:                  -8.236
REMARK INTRA:                   0.000
REMARK UNBOUND:                 0.000
REMARK  Name = ZINC000071325819
REMARK  4 active torsions:
REMARK  status: ('A' for Active; 'I' for Inactive)
REMARK    1  A    between atoms: C_1  and  C_2
REMARK    2  A    between atoms: C_6  and  C_7
REMARK    3  A    between atoms: C_6  and  O_8
REMARK    4  A    between atoms: C_14  and  C_15
REMARK                            x       y       z     vdW  Elec       q    Type
REMARK                         _______ _______ _______ _____ _____    ______ ____
ROOT
ATOM      1  C   UNL     1       0.741   4.116 -25.708  0.00  0.00    +0.039 C 
ATOM      2  C   UNL     1       1.246   3.400 -24.748  0.00  0.00    -0.073 C 
ATOM      3  C   UNL     1       0.407   3.003 -23.838  0.00  0.00    -0.061 C 
ATOM      4  C   UNL     1      -0.862   3.288 -23.860  0.00  0.00    +0.034 C 
ATOM      5  C   UNL     1      -1.414   2.745 -22.816  0.00  0.00    +0.039 C 
ATOM      6  C   UNL     1      -0.488   2.125 -22.148  0.00  0.00    +0.073 C 
ATOM      7  C   UNL     1      -1.462   1.822 -21.342  0.00  0.00    +0.042 C 
ATOM      8  C   UNL     1       0.638   2.284 -22.779  0.00  0.00    +0.087 C 
ATOM      9  C   UNL     1       1.766   1.783 -22.370  0.00  0.00    +0.190 C 
ATOM     10  O   UNL     1       1.883   1.073 -21.288  0.00  0.00    -0.460 OA
ATOM     11  C   UNL     1       3.131   0.730 -21.166  0.00  0.00    +0.311 C 
ATOM     12  C   UNL     1       3.785   1.228 -22.174  0.00  0.00    +0.101 C 
ATOM     13  C   UNL     1       5.059   1.097 -22.398  0.00  0.00    +0.019 C 
ATOM     14  O   UNL     1       3.638   0.014 -20.207  0.00  0.00    -0.251 OA
ATOM     15  C   UNL     1       2.941   1.879 -22.918  0.00  0.00    +0.044 C 
ATOM     16  C   UNL     1       3.279   2.498 -24.010  0.00  0.00    +0.012 C 
ATOM     17  C   UNL     1       2.524   3.175 -24.824  0.00  0.00    +0.031 C 
ENDROOT
BRANCH   6  18
ATOM     18  O   UNL     1       0.235   1.440 -21.312  0.00  0.00    -0.388 OA
ATOM     19  H   UNL     1       0.512   2.013 -20.580  0.00  0.00    +0.210 HD
ENDBRANCH   6  18
TORSDOF 1
ENDMDL
