MODEL 1
REMARK VINA RESULT:    -8.243      0.000      0.000
REMARK INTER + INTRA:          -8.243
REMARK INTER:                  -8.243
REMARK INTRA:                   0.000
REMARK UNBOUND:                 0.000
REMARK  Name = ZINC000013130932
REMARK  1 active torsions:
REMARK  status: ('A' for Active; 'I' for Inactive)
REMARK    1  A    between atoms: C_1  and  C_2
REMARK                            x       y       z     vdW  Elec       q    Type
REMARK                         _______ _______ _______ _____ _____    ______ ____
ROOT
ATOM      1  C   UNL     1       0.466   1.504 -21.447  0.00  0.00    +0.067 C 
ATOM      2  C   UNL     1      -0.093   2.084 -22.469  0.00  0.00    +0.056 C 
ATOM      3  N   UNL     1       0.614   2.366 -23.523  0.00  0.00    -0.286 NA
ATOM      4  C   UNL     1       0.054   2.945 -24.543  0.00  0.00    +0.146 C 
ATOM      5  C   UNL     1      -1.210   3.242 -24.510  0.00  0.00    +0.061 C 
ATOM      6  C   UNL     1      -1.916   2.960 -23.455  0.00  0.00    -0.012 A 
ATOM      7  C   UNL     1      -3.172   3.147 -23.173  0.00  0.00    +0.004 A 
ATOM      8  C   UNL     1      -4.145   3.680 -23.851  0.00  0.00    +0.010 A 
ATOM      9  C   UNL     1      -5.335   3.749 -23.333  0.00  0.00    +0.001 A 
ATOM     10  C   UNL     1      -5.552   3.286 -22.138  0.00  0.00    +0.002 A 
ATOM     11  C   UNL     1      -4.579   2.753 -21.461  0.00  0.00    +0.026 A 
ATOM     12  C   UNL     1      -3.389   2.684 -21.979  0.00  0.00    +0.047 A 
ATOM     13  N   UNL     1      -2.267   2.210 -21.522  0.00  0.00    -0.353 N 
ATOM     14  H   UNL     1      -2.131   1.795 -20.640  0.00  0.00    +0.166 HD
ATOM     15  C   UNL     1      -1.357   2.381 -22.435  0.00  0.00    +0.064 A 
ENDROOT
TORSDOF 0
ENDMDL
MODEL 2
REMARK VINA RESULT:    -8.141      1.433      4.733
REMARK INTER + INTRA:          -8.141
REMARK INTER:                  -8.141
REMARK INTRA:                   0.000
REMARK UNBOUND:                 0.000
REMARK  Name = ZINC000013130932
REMARK  1 active torsions:
REMARK  status: ('A' for Active; 'I' for Inactive)
REMARK    1  A    between atoms: C_1  and  C_2
REMARK                            x       y       z     vdW  Elec       q    Type
REMARK                         _______ _______ _______ _____ _____    ______ ____
ROOT
ATOM      1  C   UNL     1      -4.782   4.260 -24.848  0.00  0.00    +0.067 C 
ATOM      2  C   UNL     1      -4.512   3.714 -23.699  0.00  0.00    +0.056 C 
ATOM      3  N   UNL     1      -5.452   3.566 -22.814  0.00  0.00    -0.286 NA
ATOM      4  C   UNL     1      -5.182   3.020 -21.665  0.00  0.00    +0.146 C 
ATOM      5  C   UNL     1      -3.973   2.623 -21.401  0.00  0.00    +0.061 C 
ATOM      6  C   UNL     1      -3.033   2.771 -22.288  0.00  0.00    -0.012 A 
ATOM      7  C   UNL     1      -1.770   2.466 -22.275  0.00  0.00    +0.004 A 
ATOM      8  C   UNL     1      -1.019   1.908 -21.371  0.00  0.00    +0.010 A 
ATOM      9  C   UNL     1       0.243   1.708 -21.609  0.00  0.00    +0.001 A 
ATOM     10  C   UNL     1       0.755   2.065 -22.749  0.00  0.00    +0.002 A 
ATOM     11  C   UNL     1       0.004   2.622 -23.652  0.00  0.00    +0.026 A 
ATOM     12  C   UNL     1      -1.258   2.822 -23.415  0.00  0.00    +0.047 A 
ATOM     13  N   UNL     1      -2.206   3.348 -24.133  0.00  0.00    -0.353 N 
ATOM     14  H   UNL     1      -2.109   3.708 -25.044  0.00  0.00    +0.166 HD
ATOM     15  C   UNL     1      -3.303   3.317 -23.436  0.00  0.00    +0.064 A 
ENDROOT
TORSDOF 0
ENDMDL
MODEL 3
REMARK VINA RESULT:    -8.057      0.973      2.243
REMARK INTER + INTRA:          -8.057
REMARK INTER:                  -8.057
REMARK INTRA:                   0.000
REMARK UNBOUND:                 0.000
REMARK  Name = ZINC000013130932
REMARK  1 active torsions:
REMARK  status: ('A' for Active; 'I' for Inactive)
REMARK    1  A    between atoms: C_1  and  C_2
REMARK                            x       y       z     vdW  Elec       q    Type
REMARK                         _______ _______ _______ _____ _____    ______ ____
ROOT
ATOM      1  C   UNL     1       0.104   3.556 -25.108  0.00  0.00    +0.067 C 
ATOM      2  C   UNL     1      -0.235   3.016 -23.974  0.00  0.00    +0.056 C 
ATOM      3  N   UNL     1       0.661   2.414 -23.248  0.00  0.00    -0.286 NA
ATOM      4  C   UNL     1       0.322   1.875 -22.115  0.00  0.00    +0.146 C 
ATOM      5  C   UNL     1      -0.910   1.936 -21.707  0.00  0.00    +0.061 C 
ATOM      6  C   UNL     1      -1.805   2.538 -22.434  0.00  0.00    -0.012 A 
ATOM      7  C   UNL     1      -3.078   2.735 -22.259  0.00  0.00    +0.004 A 
ATOM      8  C   UNL     1      -3.887   2.397 -21.297  0.00  0.00    +0.010 A 
ATOM      9  C   UNL     1      -5.144   2.722 -21.363  0.00  0.00    +0.001 A 
ATOM     10  C   UNL     1      -5.592   3.383 -22.387  0.00  0.00    +0.002 A 
ATOM     11  C   UNL     1      -4.784   3.721 -23.348  0.00  0.00    +0.026 A 
ATOM     12  C   UNL     1      -3.527   3.397 -23.283  0.00  0.00    +0.047 A 
ATOM     13  N   UNL     1      -2.531   3.608 -24.092  0.00  0.00    -0.353 N 
ATOM     14  H   UNL     1      -2.575   4.086 -24.951  0.00  0.00    +0.166 HD
ATOM     15  C   UNL     1      -1.467   3.077 -23.567  0.00  0.00    +0.064 A 
ENDROOT
TORSDOF 0
ENDMDL
MODEL 4
REMARK VINA RESULT:    -7.293      1.955      5.154
REMARK INTER + INTRA:          -7.293
REMARK INTER:                  -7.293
REMARK INTRA:                   0.000
REMARK UNBOUND:                 0.000
REMARK  Name = ZINC000013130932
REMARK  1 active torsions:
REMARK  status: ('A' for Active; 'I' for Inactive)
REMARK    1  A    between atoms: C_1  and  C_2
REMARK                            x       y       z     vdW  Elec       q    Type
REMARK                         _______ _______ _______ _____ _____    ______ ____
ROOT
ATOM      1  C   UNL     1      -3.494   3.535 -26.677  0.00  0.00    +0.067 C 
ATOM      2  C   UNL     1      -3.121   3.473 -25.432  0.00  0.00    +0.056 C 
ATOM      3  N   UNL     1      -4.014   3.463 -24.487  0.00  0.00    -0.286 NA
ATOM      4  C   UNL     1      -3.641   3.401 -23.243  0.00  0.00    +0.146 C 
ATOM      5  C   UNL     1      -2.378   3.348 -22.944  0.00  0.00    +0.061 C 
ATOM      6  C   UNL     1      -1.486   3.358 -23.890  0.00  0.00    -0.012 A 
ATOM      7  C   UNL     1      -0.187   3.315 -23.861  0.00  0.00    +0.004 A 
ATOM      8  C   UNL     1       0.660   3.247 -22.876  0.00  0.00    +0.010 A 
ATOM      9  C   UNL     1       1.936   3.216 -23.118  0.00  0.00    +0.001 A 
ATOM     10  C   UNL     1       2.367   3.252 -24.343  0.00  0.00    +0.002 A 
ATOM     11  C   UNL     1       1.521   3.319 -25.328  0.00  0.00    +0.026 A 
ATOM     12  C   UNL     1       0.244   3.351 -25.087  0.00  0.00    +0.047 A 
ATOM     13  N   UNL     1      -0.789   3.416 -25.874  0.00  0.00    -0.353 N 
ATOM     14  H   UNL     1      -0.765   3.455 -26.857  0.00  0.00    +0.166 HD
ATOM     15  C   UNL     1      -1.858   3.420 -25.134  0.00  0.00    +0.064 A 
ENDROOT
TORSDOF 0
ENDMDL
MODEL 5
REMARK VINA RESULT:    -6.861      2.323      3.703
REMARK INTER + INTRA:          -6.861
REMARK INTER:                  -6.861
REMARK INTRA:                   0.000
REMARK UNBOUND:                 0.000
REMARK  Name = ZINC000013130932
REMARK  1 active torsions:
REMARK  status: ('A' for Active; 'I' for Inactive)
REMARK    1  A    between atoms: C_1  and  C_2
REMARK                            x       y       z     vdW  Elec       q    Type
REMARK                         _______ _______ _______ _____ _____    ______ ____
ROOT
ATOM      1  C   UNL     1       3.807   0.375 -21.028  0.00  0.00    +0.067 C 
ATOM      2  C   UNL     1       3.393   1.075 -22.043  0.00  0.00    +0.056 C 
ATOM      3  N   UNL     1       4.215   1.370 -23.007  0.00  0.00    -0.286 NA
ATOM      4  C   UNL     1       3.801   2.069 -24.021  0.00  0.00    +0.146 C 
ATOM      5  C   UNL     1       2.567   2.473 -24.074  0.00  0.00    +0.061 C 
ATOM      6  C   UNL     1       1.746   2.178 -23.109  0.00  0.00    -0.012 A 
ATOM      7  C   UNL     1       0.489   2.453 -22.922  0.00  0.00    +0.004 A 
ATOM      8  C   UNL     1      -0.371   3.118 -23.636  0.00  0.00    +0.010 A 
ATOM      9  C   UNL     1      -1.594   3.253 -23.218  0.00  0.00    +0.001 A 
ATOM     10  C   UNL     1      -1.958   2.725 -22.087  0.00  0.00    +0.002 A 
ATOM     11  C   UNL     1      -1.097   2.061 -21.374  0.00  0.00    +0.026 A 
ATOM     12  C   UNL     1       0.126   1.925 -21.792  0.00  0.00    +0.047 A 
ATOM     13  N   UNL     1       1.158   1.322 -21.280  0.00  0.00    -0.353 N 
ATOM     14  H   UNL     1       1.178   0.834 -20.426  0.00  0.00    +0.166 HD
ATOM     15  C   UNL     1       2.159   1.478 -22.095  0.00  0.00    +0.064 A 
ENDROOT
TORSDOF 0
ENDMDL
MODEL 6
REMARK VINA RESULT:    -6.837      2.448      3.697
REMARK INTER + INTRA:          -6.837
REMARK INTER:                  -6.837
REMARK INTRA:                   0.000
REMARK UNBOUND:                 0.000
REMARK  Name = ZINC000013130932
REMARK  1 active torsions:
REMARK  status: ('A' for Active; 'I' for Inactive)
REMARK    1  A    between atoms: C_1  and  C_2
REMARK                            x       y       z     vdW  Elec       q    Type
REMARK                         _______ _______ _______ _____ _____    ______ ____
ROOT
ATOM      1  C   UNL     1       3.041   5.973 -22.905  0.00  0.00    +0.067 C 
ATOM      2  C   UNL     1       2.606   4.747 -22.919  0.00  0.00    +0.056 C 
ATOM      3  N   UNL     1       3.416   3.766 -22.652  0.00  0.00    -0.286 NA
ATOM      4  C   UNL     1       2.980   2.542 -22.665  0.00  0.00    +0.146 C 
ATOM      5  C   UNL     1       1.735   2.297 -22.945  0.00  0.00    +0.061 C 
ATOM      6  C   UNL     1       0.925   3.279 -23.212  0.00  0.00    -0.012 A 
ATOM      7  C   UNL     1      -0.339   3.305 -23.516  0.00  0.00    +0.004 A 
ATOM      8  C   UNL     1      -1.220   2.359 -23.656  0.00  0.00    +0.010 A 
ATOM      9  C   UNL     1      -2.445   2.655 -23.972  0.00  0.00    +0.001 A 
ATOM     10  C   UNL     1      -2.791   3.895 -24.146  0.00  0.00    +0.002 A 
ATOM     11  C   UNL     1      -1.910   4.841 -24.006  0.00  0.00    +0.026 A 
ATOM     12  C   UNL     1      -0.685   4.546 -23.691  0.00  0.00    +0.047 A 
ATOM     13  N   UNL     1       0.366   5.287 -23.495  0.00  0.00    -0.353 N 
ATOM     14  H   UNL     1       0.401   6.268 -23.559  0.00  0.00    +0.166 HD
ATOM     15  C   UNL     1       1.360   4.504 -23.198  0.00  0.00    +0.064 A 
ENDROOT
TORSDOF 0
ENDMDL
MODEL 7
REMARK VINA RESULT:    -6.802      2.762      4.440
REMARK INTER + INTRA:          -6.802
REMARK INTER:                  -6.802
REMARK INTRA:                   0.000
REMARK UNBOUND:                 0.000
REMARK  Name = ZINC000013130932
REMARK  1 active torsions:
REMARK  status: ('A' for Active; 'I' for Inactive)
REMARK    1  A    between atoms: C_1  and  C_2
REMARK                            x       y       z     vdW  Elec       q    Type
REMARK                         _______ _______ _______ _____ _____    ______ ____
ROOT
ATOM      1  C   UNL     1       4.859   2.994 -23.620  0.00  0.00    +0.067 C 
ATOM      2  C   UNL     1       3.844   2.344 -23.132  0.00  0.00    +0.056 C 
ATOM      3  N   UNL     1       4.008   1.145 -22.656  0.00  0.00    -0.286 NA
ATOM      4  C   UNL     1       2.993   0.496 -22.168  0.00  0.00    +0.146 C 
ATOM      5  C   UNL     1       1.815   1.044 -22.156  0.00  0.00    +0.061 C 
ATOM      6  C   UNL     1       1.651   2.244 -22.632  0.00  0.00    -0.012 A 
ATOM      7  C   UNL     1       0.601   3.002 -22.736  0.00  0.00    +0.004 A 
ATOM      8  C   UNL     1      -0.642   2.819 -22.399  0.00  0.00    +0.010 A 
ATOM      9  C   UNL     1      -1.518   3.754 -22.615  0.00  0.00    +0.001 A 
ATOM     10  C   UNL     1      -1.152   4.873 -23.167  0.00  0.00    +0.002 A 
ATOM     11  C   UNL     1       0.090   5.056 -23.504  0.00  0.00    +0.026 A 
ATOM     12  C   UNL     1       0.966   4.121 -23.288  0.00  0.00    +0.047 A 
ATOM     13  N   UNL     1       2.243   4.053 -23.526  0.00  0.00    -0.353 N 
ATOM     14  H   UNL     1       2.792   4.757 -23.940  0.00  0.00    +0.166 HD
ATOM     15  C   UNL     1       2.666   2.893 -23.120  0.00  0.00    +0.064 A 
ENDROOT
TORSDOF 0
ENDMDL
MODEL 8
REMARK VINA RESULT:    -6.567      1.902      5.438
REMARK INTER + INTRA:          -6.567
REMARK INTER:                  -6.567
REMARK INTRA:                   0.000
REMARK UNBOUND:                 0.000
REMARK  Name = ZINC000013130932
REMARK  1 active torsions:
REMARK  status: ('A' for Active; 'I' for Inactive)
REMARK    1  A    between atoms: C_1  and  C_2
REMARK                            x       y       z     vdW  Elec       q    Type
REMARK                         _______ _______ _______ _____ _____    ______ ____
ROOT
ATOM      1  C   UNL     1      -2.081   4.379 -24.113  0.00  0.00    +0.067 C 
ATOM      2  C   UNL     1      -1.687   3.480 -23.259  0.00  0.00    +0.056 C 
ATOM      3  N   UNL     1      -2.507   3.046 -22.348  0.00  0.00    -0.286 NA
ATOM      4  C   UNL     1      -2.114   2.148 -21.495  0.00  0.00    +0.146 C 
ATOM      5  C   UNL     1      -0.901   1.684 -21.551  0.00  0.00    +0.061 C 
ATOM      6  C   UNL     1      -0.081   2.119 -22.463  0.00  0.00    -0.012 A 
ATOM      7  C   UNL     1       1.156   1.825 -22.731  0.00  0.00    +0.004 A 
ATOM      8  C   UNL     1       1.993   0.997 -22.178  0.00  0.00    +0.010 A 
ATOM      9  C   UNL     1       3.201   0.886 -22.645  0.00  0.00    +0.001 A 
ATOM     10  C   UNL     1       3.573   1.602 -23.663  0.00  0.00    +0.002 A 
ATOM     11  C   UNL     1       2.736   2.430 -24.216  0.00  0.00    +0.026 A 
ATOM     12  C   UNL     1       1.528   2.541 -23.749  0.00  0.00    +0.047 A 
ATOM     13  N   UNL     1       0.520   3.278 -24.111  0.00  0.00    -0.353 N 
ATOM     14  H   UNL     1       0.511   3.920 -24.856  0.00  0.00    +0.166 HD
ATOM     15  C   UNL     1      -0.475   3.017 -23.316  0.00  0.00    +0.064 A 
ENDROOT
TORSDOF 0
ENDMDL
MODEL 9
REMARK VINA RESULT:    -6.518      2.954      4.270
REMARK INTER + INTRA:          -6.518
REMARK INTER:                  -6.518
REMARK INTRA:                   0.000
REMARK UNBOUND:                 0.000
REMARK  Name = ZINC000013130932
REMARK  1 active torsions:
REMARK  status: ('A' for Active; 'I' for Inactive)
REMARK    1  A    between atoms: C_1  and  C_2
REMARK                            x       y       z     vdW  Elec       q    Type
REMARK                         _______ _______ _______ _____ _____    ______ ____
ROOT
ATOM      1  C   UNL     1       4.414   2.391 -23.666  0.00  0.00    +0.067 C 
ATOM      2  C   UNL     1       3.748   3.484 -23.433  0.00  0.00    +0.056 C 
ATOM      3  N   UNL     1       4.381   4.578 -23.126  0.00  0.00    -0.286 NA
ATOM      4  C   UNL     1       3.715   5.670 -22.893  0.00  0.00    +0.146 C 
ATOM      5  C   UNL     1       2.418   5.669 -22.968  0.00  0.00    +0.061 C 
ATOM      6  C   UNL     1       1.785   4.575 -23.275  0.00  0.00    -0.012 A 
ATOM      7  C   UNL     1       0.520   4.312 -23.413  0.00  0.00    +0.004 A 
ATOM      8  C   UNL     1      -0.542   5.054 -23.290  0.00  0.00    +0.010 A 
ATOM      9  C   UNL     1      -1.719   4.539 -23.485  0.00  0.00    +0.001 A 
ATOM     10  C   UNL     1      -1.836   3.284 -23.803  0.00  0.00    +0.002 A 
ATOM     11  C   UNL     1      -0.775   2.543 -23.926  0.00  0.00    +0.026 A 
ATOM     12  C   UNL     1       0.403   3.057 -23.731  0.00  0.00    +0.047 A 
ATOM     13  N   UNL     1       1.596   2.545 -23.789  0.00  0.00    -0.353 N 
ATOM     14  H   UNL     1       1.815   1.611 -24.008  0.00  0.00    +0.166 HD
ATOM     15  C   UNL     1       2.451   3.483 -23.508  0.00  0.00    +0.064 A 
ENDROOT
TORSDOF 0
ENDMDL
