MODEL 1
REMARK VINA RESULT:    -9.990      0.000      0.000
REMARK INTER + INTRA:         -10.646
REMARK INTER:                 -10.574
REMARK INTRA:                  -0.073
REMARK UNBOUND:                -0.073
REMARK  Name = ZINC000002048856
REMARK  2 active torsions:
REMARK  status: ('A' for Active; 'I' for Inactive)
REMARK    1  A    between atoms: C_1  and  O_2
REMARK    2  A    between atoms: O_2  and  C_3
REMARK                            x       y       z     vdW  Elec       q    Type
REMARK                         _______ _______ _______ _____ _____    ______ ____
ROOT
ATOM      1  C   UNL     1       4.296   2.204 -22.690  0.00  0.00    +0.124 A 
ATOM      2  C   UNL     1       3.786   2.950 -23.624  0.00  0.00    +0.046 A 
ATOM      3  C   UNL     1       2.501   3.148 -23.669  0.00  0.00    +0.014 A 
ATOM      4  C   UNL     1       1.727   2.598 -22.781  0.00  0.00    +0.035 A 
ATOM      5  C   UNL     1       2.237   1.852 -21.847  0.00  0.00    +0.131 A 
ATOM      6  O   UNL     1       1.464   1.302 -20.958  0.00  0.00    -0.491 OA
ATOM      7  C   UNL     1       0.180   1.500 -21.003  0.00  0.00    +0.241 C 
ATOM      8  C   UNL     1      -0.331   2.246 -21.937  0.00  0.00    +0.105 C 
ATOM      9  C   UNL     1      -1.556   2.595 -22.201  0.00  0.00    +0.008 A 
ATOM     10  C   UNL     1      -2.683   2.314 -21.618  0.00  0.00    +0.057 A 
ATOM     11  C   UNL     1      -3.795   2.799 -22.088  0.00  0.00    +0.167 A 
ATOM     12  C   UNL     1      -3.777   3.564 -23.139  0.00  0.00    +0.170 A 
ATOM     13  O   UNL     1      -5.002   3.913 -23.403  0.00  0.00    -0.452 OA
ATOM     14  C   UNL     1      -5.776   3.363 -22.514  0.00  0.00    +0.466 C 
ATOM     15  C   UNL     1      -2.650   3.844 -23.721  0.00  0.00    +0.095 A 
ATOM     16  O   UNL     1      -5.030   2.675 -21.701  0.00  0.00    -0.453 OA
ATOM     17  C   UNL     1      -1.539   3.360 -23.252  0.00  0.00    +0.129 A 
ATOM     18  O   UNL     1      -0.303   3.484 -23.638  0.00  0.00    -0.483 OA
ATOM     19  C   UNL     1       0.443   2.795 -22.826  0.00  0.00    +0.218 C 
ATOM     20  C   UNL     1       3.522   1.654 -21.801  0.00  0.00    +0.091 A 
ENDROOT
BRANCH   1  22
ATOM     21  C   UNL     1       6.377   2.988 -22.344  0.00  0.00    +0.277 C 
ATOM     22  O   UNL     1       5.579   2.006 -22.644  0.00  0.00    -0.495 OA
ENDBRANCH   1  22
TORSDOF 1
ENDMDL
MODEL 2
REMARK VINA RESULT:    -9.480      0.859      2.035
REMARK INTER + INTRA:         -10.107
REMARK INTER:                 -10.038
REMARK INTRA:                  -0.068
REMARK UNBOUND:                -0.073
REMARK  Name = ZINC000002048856
REMARK  2 active torsions:
REMARK  status: ('A' for Active; 'I' for Inactive)
REMARK    1  A    between atoms: C_1  and  O_2
REMARK    2  A    between atoms: O_2  and  C_3
REMARK                            x       y       z     vdW  Elec       q    Type
REMARK                         _______ _______ _______ _____ _____    ______ ____
ROOT
ATOM      1  C   UNL     1       4.226   1.811 -22.389  0.00  0.00    +0.124 A 
ATOM      2  C   UNL     1       3.560   1.369 -21.363  0.00  0.00    +0.046 A 
ATOM      3  C   UNL     1       2.272   1.536 -21.304  0.00  0.00    +0.014 A 
ATOM      4  C   UNL     1       1.650   2.144 -22.271  0.00  0.00    +0.035 A 
ATOM      5  C   UNL     1       2.316   2.585 -23.296  0.00  0.00    +0.131 A 
ATOM      6  O   UNL     1       1.694   3.193 -24.263  0.00  0.00    -0.491 OA
ATOM      7  C   UNL     1       0.406   3.359 -24.203  0.00  0.00    +0.241 C 
ATOM      8  C   UNL     1      -0.260   2.918 -23.178  0.00  0.00    +0.105 C 
ATOM      9  C   UNL     1      -1.526   2.955 -22.880  0.00  0.00    +0.008 A 
ATOM     10  C   UNL     1      -2.552   3.446 -23.509  0.00  0.00    +0.057 A 
ATOM     11  C   UNL     1      -3.740   3.352 -22.987  0.00  0.00    +0.167 A 
ATOM     12  C   UNL     1      -3.898   2.767 -21.837  0.00  0.00    +0.170 A 
ATOM     13  O   UNL     1      -5.164   2.804 -21.540  0.00  0.00    -0.452 OA
ATOM     14  C   UNL     1      -5.786   3.411 -22.506  0.00  0.00    +0.466 C 
ATOM     15  C   UNL     1      -2.872   2.276 -21.209  0.00  0.00    +0.095 A 
ATOM     16  O   UNL     1      -4.905   3.750 -23.401  0.00  0.00    -0.453 OA
ATOM     17  C   UNL     1      -1.686   2.370 -21.730  0.00  0.00    +0.129 A 
ATOM     18  O   UNL     1      -0.519   1.972 -21.317  0.00  0.00    -0.483 OA
ATOM     19  C   UNL     1       0.362   2.311 -22.212  0.00  0.00    +0.218 C 
ATOM     20  C   UNL     1       3.604   2.418 -23.355  0.00  0.00    +0.091 A 
ENDROOT
BRANCH   1  22
ATOM     21  C   UNL     1       6.297   2.675 -22.568  0.00  0.00    +0.277 C 
ATOM     22  O   UNL     1       5.513   1.644 -22.449  0.00  0.00    -0.495 OA
ENDBRANCH   1  22
TORSDOF 1
ENDMDL
MODEL 3
REMARK VINA RESULT:    -9.437      1.165      7.301
REMARK INTER + INTRA:         -10.061
REMARK INTER:                  -9.986
REMARK INTRA:                  -0.075
REMARK UNBOUND:                -0.073
REMARK  Name = ZINC000002048856
REMARK  2 active torsions:
REMARK  status: ('A' for Active; 'I' for Inactive)
REMARK    1  A    between atoms: C_1  and  O_2
REMARK    2  A    between atoms: O_2  and  C_3
REMARK                            x       y       z     vdW  Elec       q    Type
REMARK                         _______ _______ _______ _____ _____    ______ ____
ROOT
ATOM      1  C   UNL     1      -4.640   3.137 -22.207  0.00  0.00    +0.124 A 
ATOM      2  C   UNL     1      -4.170   2.623 -21.109  0.00  0.00    +0.046 A 
ATOM      3  C   UNL     1      -2.905   2.333 -21.018  0.00  0.00    +0.014 A 
ATOM      4  C   UNL     1      -2.113   2.556 -22.024  0.00  0.00    +0.035 A 
ATOM      5  C   UNL     1      -2.584   3.069 -23.122  0.00  0.00    +0.131 A 
ATOM      6  O   UNL     1      -1.791   3.292 -24.128  0.00  0.00    -0.491 OA
ATOM      7  C   UNL     1      -0.528   3.001 -24.036  0.00  0.00    +0.241 C 
ATOM      8  C   UNL     1      -0.056   2.488 -22.939  0.00  0.00    +0.105 C 
ATOM      9  C   UNL     1       1.142   2.115 -22.596  0.00  0.00    +0.008 A 
ATOM     10  C   UNL     1       2.273   2.130 -23.237  0.00  0.00    +0.057 A 
ATOM     11  C   UNL     1       3.353   1.692 -22.659  0.00  0.00    +0.167 A 
ATOM     12  C   UNL     1       3.299   1.239 -21.442  0.00  0.00    +0.170 A 
ATOM     13  O   UNL     1       4.497   0.866 -21.099  0.00  0.00    -0.452 OA
ATOM     14  C   UNL     1       5.289   1.089 -22.105  0.00  0.00    +0.466 C 
ATOM     15  C   UNL     1       2.168   1.224 -20.801  0.00  0.00    +0.095 A 
ATOM     16  O   UNL     1       4.582   1.599 -23.070  0.00  0.00    -0.453 OA
ATOM     17  C   UNL     1       1.089   1.662 -21.379  0.00  0.00    +0.129 A 
ATOM     18  O   UNL     1      -0.141   1.755 -20.968  0.00  0.00    -0.483 OA
ATOM     19  C   UNL     1      -0.849   2.265 -21.933  0.00  0.00    +0.218 C 
ATOM     20  C   UNL     1      -3.848   3.359 -23.213  0.00  0.00    +0.091 A 
ENDROOT
BRANCH   1  22
ATOM     21  C   UNL     1      -6.790   2.652 -21.747  0.00  0.00    +0.277 C 
ATOM     22  O   UNL     1      -5.904   3.427 -22.298  0.00  0.00    -0.495 OA
ENDBRANCH   1  22
TORSDOF 1
ENDMDL
MODEL 4
REMARK VINA RESULT:    -9.388      0.949      7.000
REMARK INTER + INTRA:         -10.009
REMARK INTER:                  -9.940
REMARK INTRA:                  -0.069
REMARK UNBOUND:                -0.073
REMARK  Name = ZINC000002048856
REMARK  2 active torsions:
REMARK  status: ('A' for Active; 'I' for Inactive)
REMARK    1  A    between atoms: C_1  and  O_2
REMARK    2  A    between atoms: O_2  and  C_3
REMARK                            x       y       z     vdW  Elec       q    Type
REMARK                         _______ _______ _______ _____ _____    ______ ____
ROOT
ATOM      1  C   UNL     1      -3.941   3.430 -23.071  0.00  0.00    +0.124 A 
ATOM      2  C   UNL     1      -3.259   4.119 -23.937  0.00  0.00    +0.046 A 
ATOM      3  C   UNL     1      -1.961   4.043 -23.950  0.00  0.00    +0.014 A 
ATOM      4  C   UNL     1      -1.346   3.278 -23.098  0.00  0.00    +0.035 A 
ATOM      5  C   UNL     1      -2.028   2.589 -22.232  0.00  0.00    +0.131 A 
ATOM      6  O   UNL     1      -1.414   1.824 -21.380  0.00  0.00    -0.491 OA
ATOM      7  C   UNL     1      -0.116   1.748 -21.394  0.00  0.00    +0.241 C 
ATOM      8  C   UNL     1       0.567   2.436 -22.259  0.00  0.00    +0.105 C 
ATOM      9  C   UNL     1       1.845   2.537 -22.479  0.00  0.00    +0.008 A 
ATOM     10  C   UNL     1       2.871   1.981 -21.906  0.00  0.00    +0.057 A 
ATOM     11  C   UNL     1       4.073   2.253 -22.322  0.00  0.00    +0.167 A 
ATOM     12  C   UNL     1       4.247   3.080 -23.310  0.00  0.00    +0.170 A 
ATOM     13  O   UNL     1       5.524   3.180 -23.529  0.00  0.00    -0.452 OA
ATOM     14  C   UNL     1       6.139   2.415 -22.677  0.00  0.00    +0.466 C 
ATOM     15  C   UNL     1       3.220   3.635 -23.882  0.00  0.00    +0.095 A 
ATOM     16  O   UNL     1       5.242   1.842 -21.930  0.00  0.00    -0.453 OA
ATOM     17  C   UNL     1       2.020   3.364 -23.467  0.00  0.00    +0.129 A 
ATOM     18  O   UNL     1       0.849   3.775 -23.858  0.00  0.00    -0.483 OA
ATOM     19  C   UNL     1      -0.048   3.201 -23.111  0.00  0.00    +0.218 C 
ATOM     20  C   UNL     1      -3.326   2.665 -22.219  0.00  0.00    +0.091 A 
ENDROOT
BRANCH   1  22
ATOM     21  C   UNL     1      -5.905   3.063 -22.034  0.00  0.00    +0.277 C 
ATOM     22  O   UNL     1      -5.239   3.506 -23.058  0.00  0.00    -0.495 OA
ENDBRANCH   1  22
TORSDOF 1
ENDMDL
MODEL 5
REMARK VINA RESULT:    -9.095      1.280      7.120
REMARK INTER + INTRA:          -9.700
REMARK INTER:                  -9.632
REMARK INTRA:                  -0.068
REMARK UNBOUND:                -0.073
REMARK  Name = ZINC000002048856
REMARK  2 active torsions:
REMARK  status: ('A' for Active; 'I' for Inactive)
REMARK    1  A    between atoms: C_1  and  O_2
REMARK    2  A    between atoms: O_2  and  C_3
REMARK                            x       y       z     vdW  Elec       q    Type
REMARK                         _______ _______ _______ _____ _____    ______ ____
ROOT
ATOM      1  C   UNL     1      -3.180   3.382 -23.257  0.00  0.00    +0.124 A 
ATOM      2  C   UNL     1      -2.569   4.467 -23.629  0.00  0.00    +0.046 A 
ATOM      3  C   UNL     1      -1.272   4.538 -23.565  0.00  0.00    +0.014 A 
ATOM      4  C   UNL     1      -0.587   3.523 -23.128  0.00  0.00    +0.035 A 
ATOM      5  C   UNL     1      -1.198   2.438 -22.755  0.00  0.00    +0.131 A 
ATOM      6  O   UNL     1      -0.512   1.424 -22.318  0.00  0.00    -0.491 OA
ATOM      7  C   UNL     1       0.784   1.495 -22.254  0.00  0.00    +0.241 C 
ATOM      8  C   UNL     1       1.395   2.580 -22.626  0.00  0.00    +0.105 C 
ATOM      9  C   UNL     1       2.655   2.901 -22.661  0.00  0.00    +0.008 A 
ATOM     10  C   UNL     1       3.728   2.246 -22.334  0.00  0.00    +0.057 A 
ATOM     11  C   UNL     1       4.896   2.804 -22.466  0.00  0.00    +0.167 A 
ATOM     12  C   UNL     1       4.988   4.016 -22.924  0.00  0.00    +0.170 A 
ATOM     13  O   UNL     1       6.247   4.338 -22.958  0.00  0.00    -0.452 OA
ATOM     14  C   UNL     1       6.932   3.324 -22.521  0.00  0.00    +0.466 C 
ATOM     15  C   UNL     1       3.914   4.672 -23.251  0.00  0.00    +0.095 A 
ATOM     16  O   UNL     1       6.097   2.375 -22.217  0.00  0.00    -0.453 OA
ATOM     17  C   UNL     1       2.748   4.115 -23.119  0.00  0.00    +0.129 A 
ATOM     18  O   UNL     1       1.545   4.543 -23.368  0.00  0.00    -0.483 OA
ATOM     19  C   UNL     1       0.710   3.594 -23.064  0.00  0.00    +0.218 C 
ATOM     20  C   UNL     1      -2.495   2.367 -22.819  0.00  0.00    +0.091 A 
ENDROOT
BRANCH   1  22
ATOM     21  C   UNL     1      -5.185   3.376 -22.233  0.00  0.00    +0.277 C 
ATOM     22  O   UNL     1      -4.476   3.311 -23.321  0.00  0.00    -0.495 OA
ENDBRANCH   1  22
TORSDOF 1
ENDMDL
MODEL 6
REMARK VINA RESULT:    -8.694      1.376      7.477
REMARK INTER + INTRA:          -9.275
REMARK INTER:                  -9.202
REMARK INTRA:                  -0.073
REMARK UNBOUND:                -0.073
REMARK  Name = ZINC000002048856
REMARK  2 active torsions:
REMARK  status: ('A' for Active; 'I' for Inactive)
REMARK    1  A    between atoms: C_1  and  O_2
REMARK    2  A    between atoms: O_2  and  C_3
REMARK                            x       y       z     vdW  Elec       q    Type
REMARK                         _______ _______ _______ _____ _____    ______ ____
ROOT
ATOM      1  C   UNL     1      -2.530   2.925 -22.477  0.00  0.00    +0.124 A 
ATOM      2  C   UNL     1      -1.852   1.880 -22.106  0.00  0.00    +0.046 A 
ATOM      3  C   UNL     1      -0.552   1.897 -22.158  0.00  0.00    +0.014 A 
ATOM      4  C   UNL     1       0.067   2.959 -22.580  0.00  0.00    +0.035 A 
ATOM      5  C   UNL     1      -0.612   4.004 -22.950  0.00  0.00    +0.131 A 
ATOM      6  O   UNL     1       0.008   5.066 -23.372  0.00  0.00    -0.491 OA
ATOM      7  C   UNL     1       1.307   5.083 -23.423  0.00  0.00    +0.241 C 
ATOM      8  C   UNL     1       1.986   4.039 -23.053  0.00  0.00    +0.105 C 
ATOM      9  C   UNL     1       3.264   3.802 -23.008  0.00  0.00    +0.008 A 
ATOM     10  C   UNL     1       4.294   4.531 -23.318  0.00  0.00    +0.057 A 
ATOM     11  C   UNL     1       5.496   4.052 -23.179  0.00  0.00    +0.167 A 
ATOM     12  C   UNL     1       5.664   2.844 -22.730  0.00  0.00    +0.170 A 
ATOM     13  O   UNL     1       6.942   2.607 -22.685  0.00  0.00    -0.452 OA
ATOM     14  C   UNL     1       7.562   3.669 -23.107  0.00  0.00    +0.466 C 
ATOM     15  C   UNL     1       4.634   2.115 -22.420  0.00  0.00    +0.095 A 
ATOM     16  O   UNL     1       6.668   4.563 -23.413  0.00  0.00    -0.453 OA
ATOM     17  C   UNL     1       3.434   2.594 -22.558  0.00  0.00    +0.129 A 
ATOM     18  O   UNL     1       2.261   2.083 -22.326  0.00  0.00    -0.483 OA
ATOM     19  C   UNL     1       1.367   2.976 -22.631  0.00  0.00    +0.218 C 
ATOM     20  C   UNL     1      -1.911   3.987 -22.898  0.00  0.00    +0.091 A 
ENDROOT
BRANCH   1  22
ATOM     21  C   UNL     1      -4.433   2.849 -21.276  0.00  0.00    +0.277 C 
ATOM     22  O   UNL     1      -3.829   2.908 -22.425  0.00  0.00    -0.495 OA
ENDBRANCH   1  22
TORSDOF 1
ENDMDL
MODEL 7
REMARK VINA RESULT:    -8.584      2.129      7.719
REMARK INTER + INTRA:          -9.158
REMARK INTER:                  -9.084
REMARK INTRA:                  -0.074
REMARK UNBOUND:                -0.073
REMARK  Name = ZINC000002048856
REMARK  2 active torsions:
REMARK  status: ('A' for Active; 'I' for Inactive)
REMARK    1  A    between atoms: C_1  and  O_2
REMARK    2  A    between atoms: O_2  and  C_3
REMARK                            x       y       z     vdW  Elec       q    Type
REMARK                         _______ _______ _______ _____ _____    ______ ____
ROOT
ATOM      1  C   UNL     1      -1.526   3.466 -23.641  0.00  0.00    +0.124 A 
ATOM      2  C   UNL     1      -1.109   4.635 -23.253  0.00  0.00    +0.046 A 
ATOM      3  C   UNL     1       0.165   4.863 -23.132  0.00  0.00    +0.014 A 
ATOM      4  C   UNL     1       1.022   3.923 -23.398  0.00  0.00    +0.035 A 
ATOM      5  C   UNL     1       0.606   2.754 -23.786  0.00  0.00    +0.131 A 
ATOM      6  O   UNL     1       1.463   1.814 -24.052  0.00  0.00    -0.491 OA
ATOM      7  C   UNL     1       2.737   2.043 -23.931  0.00  0.00    +0.241 C 
ATOM      8  C   UNL     1       3.154   3.212 -23.543  0.00  0.00    +0.105 C 
ATOM      9  C   UNL     1       4.347   3.689 -23.346  0.00  0.00    +0.008 A 
ATOM     10  C   UNL     1       5.527   3.158 -23.470  0.00  0.00    +0.057 A 
ATOM     11  C   UNL     1       6.588   3.862 -23.206  0.00  0.00    +0.167 A 
ATOM     12  C   UNL     1       6.467   5.097 -22.818  0.00  0.00    +0.170 A 
ATOM     13  O   UNL     1       7.660   5.575 -22.621  0.00  0.00    -0.452 OA
ATOM     14  C   UNL     1       8.518   4.634 -22.887  0.00  0.00    +0.466 C 
ATOM     15  C   UNL     1       5.287   5.628 -22.694  0.00  0.00    +0.095 A 
ATOM     16  O   UNL     1       7.855   3.576 -23.249  0.00  0.00    -0.453 OA
ATOM     17  C   UNL     1       4.228   4.924 -22.958  0.00  0.00    +0.129 A 
ATOM     18  O   UNL     1       2.959   5.210 -22.915  0.00  0.00    -0.483 OA
ATOM     19  C   UNL     1       2.297   4.152 -23.277  0.00  0.00    +0.218 C 
ATOM     20  C   UNL     1      -0.668   2.526 -23.907  0.00  0.00    +0.091 A 
ENDROOT
BRANCH   1  22
ATOM     21  C   UNL     1      -3.554   4.085 -24.395  0.00  0.00    +0.277 C 
ATOM     22  O   UNL     1      -2.799   3.237 -23.762  0.00  0.00    -0.495 OA
ENDBRANCH   1  22
TORSDOF 1
ENDMDL
