MODEL 1
REMARK VINA RESULT:   -12.479      0.000      0.000
REMARK INTER + INTRA:         -12.479
REMARK INTER:                 -12.479
REMARK INTRA:                   0.000
REMARK UNBOUND:                 0.000
REMARK  Name = ZINC000004104638
REMARK  2 active torsions:
REMARK  status: ('A' for Active; 'I' for Inactive)
REMARK    1  A    between atoms: C_1  and  C_2
REMARK    2  A    between atoms: C_16  and  C_17
REMARK                            x       y       z     vdW  Elec       q    Type
REMARK                         _______ _______ _______ _____ _____    ______ ____
ROOT
ATOM      1  C   UNL     1      -4.817   2.856 -21.592  0.00  0.00    +0.019 C 
ATOM      2  C   UNL     1      -3.965   3.126 -22.536  0.00  0.00    +0.029 C 
ATOM      3  C   UNL     1      -3.443   2.528 -21.507  0.00  0.00    +0.015 C 
ATOM      4  C   UNL     1      -2.172   2.254 -21.490  0.00  0.00    +0.005 C 
ATOM      5  C   UNL     1      -1.424   2.579 -22.502  0.00  0.00    -0.001 C 
ATOM      6  C   UNL     1      -1.946   3.177 -23.531  0.00  0.00    +0.004 C 
ATOM      7  C   UNL     1      -1.198   3.502 -24.543  0.00  0.00    +0.078 C 
ATOM      8  C   UNL     1       0.072   3.229 -24.526  0.00  0.00    +0.138 C 
ATOM      9  C   UNL     1       0.595   2.630 -23.497  0.00  0.00    +0.068 C 
ATOM     10  C   UNL     1       1.866   2.356 -23.480  0.00  0.00    +0.086 C 
ATOM     11  C   UNL     1       2.388   1.758 -22.451  0.00  0.00    +0.134 C 
ATOM     12  C   UNL     1       1.640   1.433 -21.439  0.00  0.00    +0.075 C 
ATOM     13  C   UNL     1       0.369   1.706 -21.456  0.00  0.00    +0.015 C 
ATOM     14  O   UNL     1       3.659   1.484 -22.434  0.00  0.00    -0.297 OA
ATOM     15  O   UNL     1       0.821   3.553 -25.538  0.00  0.00    -0.297 OA
ATOM     16  C   UNL     1      -0.154   2.305 -22.485  0.00  0.00    -0.019 C 
ATOM     17  C   UNL     1      -0.902   1.980 -21.473  0.00  0.00    +0.012 C 
ATOM     18  C   UNL     1      -5.181   3.505 -22.797  0.00  0.00    +0.139 C 
ATOM     19  O   UNL     1      -6.214   3.352 -22.022  0.00  0.00    -0.297 OA
ATOM     20  C   UNL     1      -5.184   4.064 -23.971  0.00  0.00    +0.075 C 
ATOM     21  C   UNL     1      -3.971   4.031 -24.435  0.00  0.00    +0.012 C 
ATOM     22  C   UNL     1      -3.217   3.451 -23.548  0.00  0.00    +0.006 C 
ENDROOT
TORSDOF 0
ENDMDL
MODEL 2
REMARK VINA RESULT:   -12.157      1.124      2.648
REMARK INTER + INTRA:         -12.157
REMARK INTER:                 -12.157
REMARK INTRA:                   0.000
REMARK UNBOUND:                 0.000
REMARK  Name = ZINC000004104638
REMARK  2 active torsions:
REMARK  status: ('A' for Active; 'I' for Inactive)
REMARK    1  A    between atoms: C_1  and  C_2
REMARK    2  A    between atoms: C_16  and  C_17
REMARK                            x       y       z     vdW  Elec       q    Type
REMARK                         _______ _______ _______ _____ _____    ______ ____
ROOT
ATOM      1  C   UNL     1      -4.601   3.799 -23.929  0.00  0.00    +0.019 C 
ATOM      2  C   UNL     1      -3.766   3.274 -23.082  0.00  0.00    +0.029 C 
ATOM      3  C   UNL     1      -3.226   3.618 -24.213  0.00  0.00    +0.015 C 
ATOM      4  C   UNL     1      -1.955   3.425 -24.412  0.00  0.00    +0.005 C 
ATOM      5  C   UNL     1      -1.226   2.889 -23.479  0.00  0.00    -0.001 C 
ATOM      6  C   UNL     1      -1.766   2.545 -22.348  0.00  0.00    +0.004 C 
ATOM      7  C   UNL     1      -1.037   2.009 -21.415  0.00  0.00    +0.078 C 
ATOM      8  C   UNL     1       0.233   1.816 -21.614  0.00  0.00    +0.138 C 
ATOM      9  C   UNL     1       0.774   2.160 -22.745  0.00  0.00    +0.068 C 
ATOM     10  C   UNL     1       2.044   1.967 -22.944  0.00  0.00    +0.086 C 
ATOM     11  C   UNL     1       2.584   2.311 -24.075  0.00  0.00    +0.134 C 
ATOM     12  C   UNL     1       1.855   2.847 -25.008  0.00  0.00    +0.075 C 
ATOM     13  C   UNL     1       0.585   3.040 -24.809  0.00  0.00    +0.015 C 
ATOM     14  O   UNL     1       3.855   2.118 -24.274  0.00  0.00    -0.297 OA
ATOM     15  O   UNL     1       0.963   1.280 -20.681  0.00  0.00    -0.297 OA
ATOM     16  C   UNL     1       0.044   2.696 -23.678  0.00  0.00    -0.019 C 
ATOM     17  C   UNL     1      -0.686   3.233 -24.611  0.00  0.00    +0.012 C 
ATOM     18  C   UNL     1      -4.986   3.357 -22.640  0.00  0.00    +0.139 C 
ATOM     19  O   UNL     1      -6.004   3.840 -23.289  0.00  0.00    -0.297 OA
ATOM     20  C   UNL     1      -5.010   2.872 -21.434  0.00  0.00    +0.075 C 
ATOM     21  C   UNL     1      -3.806   2.490 -21.131  0.00  0.00    +0.012 C 
ATOM     22  C   UNL     1      -3.037   2.738 -22.149  0.00  0.00    +0.006 C 
ENDROOT
TORSDOF 0
ENDMDL
MODEL 3
REMARK VINA RESULT:   -11.810      1.123      5.528
REMARK INTER + INTRA:         -11.810
REMARK INTER:                 -11.810
REMARK INTRA:                   0.000
REMARK UNBOUND:                 0.000
REMARK  Name = ZINC000004104638
REMARK  2 active torsions:
REMARK  status: ('A' for Active; 'I' for Inactive)
REMARK    1  A    between atoms: C_1  and  C_2
REMARK    2  A    between atoms: C_16  and  C_17
REMARK                            x       y       z     vdW  Elec       q    Type
REMARK                         _______ _______ _______ _____ _____    ______ ____
ROOT
ATOM      1  C   UNL     1       2.113   1.479 -21.862  0.00  0.00    +0.019 C 
ATOM      2  C   UNL     1       1.352   2.028 -22.761  0.00  0.00    +0.029 C 
ATOM      3  C   UNL     1       0.730   1.708 -21.666  0.00  0.00    +0.015 C 
ATOM      4  C   UNL     1      -0.543   1.945 -21.548  0.00  0.00    +0.005 C 
ATOM      5  C   UNL     1      -1.193   2.503 -22.525  0.00  0.00    -0.001 C 
ATOM      6  C   UNL     1      -0.571   2.824 -23.621  0.00  0.00    +0.004 C 
ATOM      7  C   UNL     1      -1.221   3.381 -24.598  0.00  0.00    +0.078 C 
ATOM      8  C   UNL     1      -2.494   3.619 -24.481  0.00  0.00    +0.138 C 
ATOM      9  C   UNL     1      -3.117   3.298 -23.385  0.00  0.00    +0.068 C 
ATOM     10  C   UNL     1      -4.389   3.535 -23.267  0.00  0.00    +0.086 C 
ATOM     11  C   UNL     1      -5.011   3.214 -22.171  0.00  0.00    +0.134 C 
ATOM     12  C   UNL     1      -4.361   2.657 -21.194  0.00  0.00    +0.075 C 
ATOM     13  C   UNL     1      -3.088   2.419 -21.311  0.00  0.00    +0.015 C 
ATOM     14  O   UNL     1      -6.284   3.452 -22.053  0.00  0.00    -0.297 OA
ATOM     15  O   UNL     1      -3.145   4.176 -25.458  0.00  0.00    -0.297 OA
ATOM     16  C   UNL     1      -2.465   2.740 -22.407  0.00  0.00    -0.019 C 
ATOM     17  C   UNL     1      -1.815   2.182 -21.430  0.00  0.00    +0.012 C 
ATOM     18  C   UNL     1       2.594   1.902 -23.126  0.00  0.00    +0.139 C 
ATOM     19  O   UNL     1       3.551   1.386 -22.413  0.00  0.00    -0.297 OA
ATOM     20  C   UNL     1       2.711   2.382 -24.328  0.00  0.00    +0.075 C 
ATOM     21  C   UNL     1       1.542   2.804 -24.707  0.00  0.00    +0.012 C 
ATOM     22  C   UNL     1       0.702   2.586 -23.739  0.00  0.00    +0.006 C 
ENDROOT
TORSDOF 0
ENDMDL
MODEL 4
REMARK VINA RESULT:   -10.844      1.371      6.141
REMARK INTER + INTRA:         -10.844
REMARK INTER:                 -10.844
REMARK INTRA:                   0.000
REMARK UNBOUND:                 0.000
REMARK  Name = ZINC000004104638
REMARK  2 active torsions:
REMARK  status: ('A' for Active; 'I' for Inactive)
REMARK    1  A    between atoms: C_1  and  C_2
REMARK    2  A    between atoms: C_16  and  C_17
REMARK                            x       y       z     vdW  Elec       q    Type
REMARK                         _______ _______ _______ _____ _____    ______ ____
ROOT
ATOM      1  C   UNL     1       2.815   2.346 -23.967  0.00  0.00    +0.019 C 
ATOM      2  C   UNL     1       1.804   2.207 -23.161  0.00  0.00    +0.029 C 
ATOM      3  C   UNL     1       1.502   2.759 -24.299  0.00  0.00    +0.015 C 
ATOM      4  C   UNL     1       0.275   3.115 -24.543  0.00  0.00    +0.005 C 
ATOM      5  C   UNL     1      -0.648   2.920 -23.649  0.00  0.00    -0.001 C 
ATOM      6  C   UNL     1      -0.346   2.368 -22.512  0.00  0.00    +0.004 C 
ATOM      7  C   UNL     1      -1.269   2.172 -21.618  0.00  0.00    +0.078 C 
ATOM      8  C   UNL     1      -2.495   2.529 -21.861  0.00  0.00    +0.138 C 
ATOM      9  C   UNL     1      -2.798   3.081 -22.999  0.00  0.00    +0.068 C 
ATOM     10  C   UNL     1      -4.024   3.437 -23.243  0.00  0.00    +0.086 C 
ATOM     11  C   UNL     1      -4.326   3.989 -24.380  0.00  0.00    +0.134 C 
ATOM     12  C   UNL     1      -3.403   4.185 -25.274  0.00  0.00    +0.075 C 
ATOM     13  C   UNL     1      -2.177   3.828 -25.031  0.00  0.00    +0.015 C 
ATOM     14  O   UNL     1      -5.553   4.346 -24.624  0.00  0.00    -0.297 OA
ATOM     15  O   UNL     1      -3.419   2.334 -20.968  0.00  0.00    -0.297 OA
ATOM     16  C   UNL     1      -1.874   3.276 -23.893  0.00  0.00    -0.019 C 
ATOM     17  C   UNL     1      -0.951   3.472 -24.786  0.00  0.00    +0.012 C 
ATOM     18  C   UNL     1       2.929   1.768 -22.679  0.00  0.00    +0.139 C 
ATOM     19  O   UNL     1       4.081   1.792 -23.282  0.00  0.00    -0.297 OA
ATOM     20  C   UNL     1       2.700   1.302 -21.487  0.00  0.00    +0.075 C 
ATOM     21  C   UNL     1       1.435   1.452 -21.233  0.00  0.00    +0.012 C 
ATOM     22  C   UNL     1       0.881   2.011 -22.268  0.00  0.00    +0.006 C 
ENDROOT
TORSDOF 0
ENDMDL
MODEL 5
REMARK VINA RESULT:   -10.648      2.004      3.930
REMARK INTER + INTRA:         -10.648
REMARK INTER:                 -10.648
REMARK INTRA:                   0.000
REMARK UNBOUND:                 0.000
REMARK  Name = ZINC000004104638
REMARK  2 active torsions:
REMARK  status: ('A' for Active; 'I' for Inactive)
REMARK    1  A    between atoms: C_1  and  C_2
REMARK    2  A    between atoms: C_16  and  C_17
REMARK                            x       y       z     vdW  Elec       q    Type
REMARK                         _______ _______ _______ _____ _____    ______ ____
ROOT
ATOM      1  C   UNL     1      -1.552   4.582 -23.790  0.00  0.00    +0.019 C 
ATOM      2  C   UNL     1      -0.937   3.654 -23.119  0.00  0.00    +0.029 C 
ATOM      3  C   UNL     1      -0.141   4.504 -23.698  0.00  0.00    +0.015 C 
ATOM      4  C   UNL     1       1.147   4.376 -23.574  0.00  0.00    +0.005 C 
ATOM      5  C   UNL     1       1.639   3.399 -22.872  0.00  0.00    -0.001 C 
ATOM      6  C   UNL     1       0.843   2.550 -22.293  0.00  0.00    +0.004 C 
ATOM      7  C   UNL     1       1.335   1.573 -21.591  0.00  0.00    +0.078 C 
ATOM      8  C   UNL     1       2.622   1.445 -21.467  0.00  0.00    +0.138 C 
ATOM      9  C   UNL     1       3.419   2.295 -22.046  0.00  0.00    +0.068 C 
ATOM     10  C   UNL     1       4.706   2.167 -21.922  0.00  0.00    +0.086 C 
ATOM     11  C   UNL     1       5.502   3.017 -22.501  0.00  0.00    +0.134 C 
ATOM     12  C   UNL     1       5.010   3.994 -23.204  0.00  0.00    +0.075 C 
ATOM     13  C   UNL     1       3.722   4.122 -23.327  0.00  0.00    +0.015 C 
ATOM     14  O   UNL     1       6.790   2.890 -22.378  0.00  0.00    -0.297 OA
ATOM     15  O   UNL     1       3.115   0.468 -20.765  0.00  0.00    -0.297 OA
ATOM     16  C   UNL     1       2.926   3.272 -22.748  0.00  0.00    -0.019 C 
ATOM     17  C   UNL     1       2.434   4.249 -23.451  0.00  0.00    +0.012 C 
ATOM     18  C   UNL     1      -2.233   3.559 -23.086  0.00  0.00    +0.139 C 
ATOM     19  O   UNL     1      -3.074   4.359 -23.673  0.00  0.00    -0.297 OA
ATOM     20  C   UNL     1      -2.542   2.524 -22.363  0.00  0.00    +0.075 C 
ATOM     21  C   UNL     1      -1.437   1.979 -21.950  0.00  0.00    +0.012 C 
ATOM     22  C   UNL     1      -0.445   2.677 -22.417  0.00  0.00    +0.006 C 
ENDROOT
TORSDOF 0
ENDMDL
MODEL 6
REMARK VINA RESULT:   -10.562      1.587      6.032
REMARK INTER + INTRA:         -10.562
REMARK INTER:                 -10.562
REMARK INTRA:                   0.000
REMARK UNBOUND:                 0.000
REMARK  Name = ZINC000004104638
REMARK  2 active torsions:
REMARK  status: ('A' for Active; 'I' for Inactive)
REMARK    1  A    between atoms: C_1  and  C_2
REMARK    2  A    between atoms: C_16  and  C_17
REMARK                            x       y       z     vdW  Elec       q    Type
REMARK                         _______ _______ _______ _____ _____    ______ ____
ROOT
ATOM      1  C   UNL     1       3.766   0.765 -21.846  0.00  0.00    +0.019 C 
ATOM      2  C   UNL     1       3.196   1.809 -22.370  0.00  0.00    +0.029 C 
ATOM      3  C   UNL     1       2.378   1.021 -21.737  0.00  0.00    +0.015 C 
ATOM      4  C   UNL     1       1.113   1.313 -21.674  0.00  0.00    +0.005 C 
ATOM      5  C   UNL     1       0.666   2.393 -22.243  0.00  0.00    -0.001 C 
ATOM      6  C   UNL     1       1.484   3.181 -22.875  0.00  0.00    +0.004 C 
ATOM      7  C   UNL     1       1.037   4.261 -23.444  0.00  0.00    +0.078 C 
ATOM      8  C   UNL     1      -0.227   4.554 -23.381  0.00  0.00    +0.138 C 
ATOM      9  C   UNL     1      -1.046   3.765 -22.749  0.00  0.00    +0.068 C 
ATOM     10  C   UNL     1      -2.311   4.058 -22.686  0.00  0.00    +0.086 C 
ATOM     11  C   UNL     1      -3.129   3.270 -22.053  0.00  0.00    +0.134 C 
ATOM     12  C   UNL     1      -2.682   2.190 -21.484  0.00  0.00    +0.075 C 
ATOM     13  C   UNL     1      -1.418   1.897 -21.547  0.00  0.00    +0.015 C 
ATOM     14  O   UNL     1      -4.395   3.562 -21.990  0.00  0.00    -0.297 OA
ATOM     15  O   UNL     1      -0.675   5.633 -23.950  0.00  0.00    -0.297 OA
ATOM     16  C   UNL     1      -0.599   2.686 -22.180  0.00  0.00    -0.019 C 
ATOM     17  C   UNL     1      -0.152   1.605 -21.611  0.00  0.00    +0.012 C 
ATOM     18  C   UNL     1       4.479   1.748 -22.576  0.00  0.00    +0.139 C 
ATOM     19  O   UNL     1       5.276   0.809 -22.159  0.00  0.00    -0.297 OA
ATOM     20  C   UNL     1       4.824   2.790 -23.272  0.00  0.00    +0.075 C 
ATOM     21  C   UNL     1       3.756   3.495 -23.496  0.00  0.00    +0.012 C 
ATOM     22  C   UNL     1       2.750   2.889 -22.939  0.00  0.00    +0.006 C 
ENDROOT
TORSDOF 0
ENDMDL
MODEL 7
REMARK VINA RESULT:   -10.210      1.973      6.427
REMARK INTER + INTRA:         -10.210
REMARK INTER:                 -10.210
REMARK INTRA:                   0.000
REMARK UNBOUND:                 0.000
REMARK  Name = ZINC000004104638
REMARK  2 active torsions:
REMARK  status: ('A' for Active; 'I' for Inactive)
REMARK    1  A    between atoms: C_1  and  C_2
REMARK    2  A    between atoms: C_16  and  C_17
REMARK                            x       y       z     vdW  Elec       q    Type
REMARK                         _______ _______ _______ _____ _____    ______ ____
ROOT
ATOM      1  C   UNL     1       4.263   2.689 -23.519  0.00  0.00    +0.019 C 
ATOM      2  C   UNL     1       3.189   2.384 -22.853  0.00  0.00    +0.029 C 
ATOM      3  C   UNL     1       2.957   2.911 -24.019  0.00  0.00    +0.015 C 
ATOM      4  C   UNL     1       1.734   3.090 -24.421  0.00  0.00    +0.005 C 
ATOM      5  C   UNL     1       0.742   2.740 -23.657  0.00  0.00    -0.001 C 
ATOM      6  C   UNL     1       0.973   2.213 -22.491  0.00  0.00    +0.004 C 
ATOM      7  C   UNL     1      -0.019   1.864 -21.727  0.00  0.00    +0.078 C 
ATOM      8  C   UNL     1      -1.242   2.042 -22.128  0.00  0.00    +0.138 C 
ATOM      9  C   UNL     1      -1.474   2.569 -23.294  0.00  0.00    +0.068 C 
ATOM     10  C   UNL     1      -2.697   2.747 -23.696  0.00  0.00    +0.086 C 
ATOM     11  C   UNL     1      -2.929   3.275 -24.861  0.00  0.00    +0.134 C 
ATOM     12  C   UNL     1      -1.937   3.624 -25.625  0.00  0.00    +0.075 C 
ATOM     13  C   UNL     1      -0.713   3.446 -25.224  0.00  0.00    +0.015 C 
ATOM     14  O   UNL     1      -4.152   3.453 -25.263  0.00  0.00    -0.297 OA
ATOM     15  O   UNL     1      -2.235   1.693 -21.365  0.00  0.00    -0.297 OA
ATOM     16  C   UNL     1      -0.482   2.918 -24.058  0.00  0.00    -0.019 C 
ATOM     17  C   UNL     1       0.510   3.268 -24.822  0.00  0.00    +0.012 C 
ATOM     18  C   UNL     1       4.294   2.105 -22.229  0.00  0.00    +0.139 C 
ATOM     19  O   UNL     1       5.498   2.311 -22.676  0.00  0.00    -0.297 OA
ATOM     20  C   UNL     1       3.985   1.583 -21.079  0.00  0.00    +0.075 C 
ATOM     21  C   UNL     1       2.689   1.540 -20.993  0.00  0.00    +0.012 C 
ATOM     22  C   UNL     1       2.197   2.035 -22.089  0.00  0.00    +0.006 C 
ENDROOT
TORSDOF 0
ENDMDL
