MODEL 1
REMARK VINA RESULT:    -9.647      0.000      0.000
REMARK INTER + INTRA:          -9.929
REMARK INTER:                  -9.929
REMARK INTRA:                   0.000
REMARK UNBOUND:                 0.000
REMARK  Name = ZINC000004104714
REMARK  4 active torsions:
REMARK  status: ('A' for Active; 'I' for Inactive)
REMARK    1  A    between atoms: C_1  and  C_2
REMARK    2  A    between atoms: C_9  and  O_10
REMARK    3  A    between atoms: C_14  and  C_15
REMARK    4  A    between atoms: C_14  and  C_16
REMARK                            x       y       z     vdW  Elec       q    Type
REMARK                         _______ _______ _______ _____ _____    ______ ____
ROOT
ATOM      1  C   UNL     1      -3.915   2.557 -20.628  0.00  0.00    +0.008 C 
ATOM      2  C   UNL     1      -4.271   2.990 -21.801  0.00  0.00    -0.010 C 
ATOM      3  C   UNL     1      -5.470   3.359 -22.147  0.00  0.00    +0.004 C 
ATOM      4  C   UNL     1      -5.432   3.727 -23.393  0.00  0.00    +0.011 C 
ATOM      5  C   UNL     1      -4.212   3.586 -23.817  0.00  0.00    +0.059 C 
ATOM      6  C   UNL     1      -3.837   3.869 -25.030  0.00  0.00    +0.139 C 
ATOM      7  C   UNL     1      -2.654   3.768 -25.558  0.00  0.00    +0.106 C 
ATOM      8  C   UNL     1      -1.552   3.357 -25.003  0.00  0.00    +0.126 C 
ATOM      9  C   UNL     1      -1.362   2.947 -23.784  0.00  0.00    +0.028 C 
ATOM     10  C   UNL     1      -2.226   2.846 -22.819  0.00  0.00    +0.005 C 
ATOM     11  C   UNL     1      -0.986   2.512 -22.618  0.00  0.00    -0.026 C 
ATOM     12  C   UNL     1      -1.049   2.149 -21.372  0.00  0.00    +0.011 C 
ATOM     13  C   UNL     1       0.276   2.304 -22.851  0.00  0.00    +0.011 C 
ATOM     14  O   UNL     1      -4.771   4.313 -25.819  0.00  0.00    -0.297 OA
ATOM     15  C   UNL     1      -3.495   3.130 -22.834  0.00  0.00    +0.006 C 
ENDROOT
BRANCH   8  16
ATOM     16  O   UNL     1      -0.502   3.357 -25.769  0.00  0.00    -0.391 OA
ATOM     17  H   UNL     1      -0.776   3.461 -26.694  0.00  0.00    +0.210 HD
ENDBRANCH   8  16
TORSDOF 1
ENDMDL
MODEL 2
REMARK VINA RESULT:    -9.308      1.366      3.408
REMARK INTER + INTRA:          -9.580
REMARK INTER:                  -9.580
REMARK INTRA:                   0.000
REMARK UNBOUND:                 0.000
REMARK  Name = ZINC000004104714
REMARK  4 active torsions:
REMARK  status: ('A' for Active; 'I' for Inactive)
REMARK    1  A    between atoms: C_1  and  C_2
REMARK    2  A    between atoms: C_9  and  O_10
REMARK    3  A    between atoms: C_14  and  C_15
REMARK    4  A    between atoms: C_14  and  C_16
REMARK                            x       y       z     vdW  Elec       q    Type
REMARK                         _______ _______ _______ _____ _____    ______ ____
ROOT
ATOM      1  C   UNL     1      -5.567   3.407 -22.499  0.00  0.00    +0.008 C 
ATOM      2  C   UNL     1      -4.363   3.130 -22.098  0.00  0.00    -0.010 C 
ATOM      3  C   UNL     1      -4.006   2.865 -20.876  0.00  0.00    +0.004 C 
ATOM      4  C   UNL     1      -2.726   2.641 -20.870  0.00  0.00    +0.011 C 
ATOM      5  C   UNL     1      -2.290   2.767 -22.089  0.00  0.00    +0.059 C 
ATOM      6  C   UNL     1      -1.045   2.606 -22.425  0.00  0.00    +0.139 C 
ATOM      7  C   UNL     1      -0.503   2.707 -23.602  0.00  0.00    +0.106 C 
ATOM      8  C   UNL     1      -1.074   2.994 -24.735  0.00  0.00    +0.126 C 
ATOM      9  C   UNL     1      -2.326   3.251 -24.969  0.00  0.00    +0.028 C 
ATOM     10  C   UNL     1      -3.317   3.285 -24.129  0.00  0.00    +0.005 C 
ATOM     11  C   UNL     1      -3.525   3.530 -25.389  0.00  0.00    -0.026 C 
ATOM     12  C   UNL     1      -4.806   3.750 -25.368  0.00  0.00    +0.011 C 
ATOM     13  C   UNL     1      -3.287   3.699 -26.656  0.00  0.00    +0.011 C 
ATOM     14  O   UNL     1      -0.233   2.303 -21.455  0.00  0.00    -0.297 OA
ATOM     15  C   UNL     1      -3.302   3.069 -22.847  0.00  0.00    +0.006 C 
ENDROOT
BRANCH   8  16
ATOM     16  O   UNL     1      -0.288   3.029 -25.769  0.00  0.00    -0.391 OA
ATOM     17  H   UNL     1      -0.279   3.926 -26.139  0.00  0.00    +0.210 HD
ENDBRANCH   8  16
TORSDOF 1
ENDMDL
MODEL 3
REMARK VINA RESULT:    -8.736      1.298      2.755
REMARK INTER + INTRA:          -8.992
REMARK INTER:                  -8.992
REMARK INTRA:                   0.000
REMARK UNBOUND:                 0.000
REMARK  Name = ZINC000004104714
REMARK  4 active torsions:
REMARK  status: ('A' for Active; 'I' for Inactive)
REMARK    1  A    between atoms: C_1  and  C_2
REMARK    2  A    between atoms: C_9  and  O_10
REMARK    3  A    between atoms: C_14  and  C_15
REMARK    4  A    between atoms: C_14  and  C_16
REMARK                            x       y       z     vdW  Elec       q    Type
REMARK                         _______ _______ _______ _____ _____    ______ ____
ROOT
ATOM      1  C   UNL     1      -1.019   2.248 -21.379  0.00  0.00    +0.008 C 
ATOM      2  C   UNL     1      -2.291   2.508 -21.437  0.00  0.00    -0.010 C 
ATOM      3  C   UNL     1      -3.146   2.362 -20.467  0.00  0.00    +0.004 C 
ATOM      4  C   UNL     1      -4.315   2.723 -20.905  0.00  0.00    +0.011 C 
ATOM      5  C   UNL     1      -4.184   3.092 -22.144  0.00  0.00    +0.059 C 
ATOM      6  C   UNL     1      -5.174   3.513 -22.876  0.00  0.00    +0.139 C 
ATOM      7  C   UNL     1      -5.158   3.904 -24.115  0.00  0.00    +0.106 C 
ATOM      8  C   UNL     1      -4.147   3.972 -24.930  0.00  0.00    +0.126 C 
ATOM      9  C   UNL     1      -2.904   3.665 -24.707  0.00  0.00    +0.028 C 
ATOM     10  C   UNL     1      -2.364   3.214 -23.613  0.00  0.00    +0.005 C 
ATOM     11  C   UNL     1      -1.629   3.410 -24.668  0.00  0.00    -0.026 C 
ATOM     12  C   UNL     1      -0.470   3.044 -24.207  0.00  0.00    +0.011 C 
ATOM     13  C   UNL     1      -1.298   3.734 -25.883  0.00  0.00    +0.011 C 
ATOM     14  O   UNL     1      -6.334   3.546 -22.289  0.00  0.00    -0.297 OA
ATOM     15  C   UNL     1      -2.934   2.960 -22.473  0.00  0.00    +0.006 C 
ENDROOT
BRANCH   8  16
ATOM     16  O   UNL     1      -4.416   4.403 -26.126  0.00  0.00    -0.391 OA
ATOM     17  H   UNL     1      -3.661   4.911 -26.464  0.00  0.00    +0.210 HD
ENDBRANCH   8  16
TORSDOF 1
ENDMDL
MODEL 4
REMARK VINA RESULT:    -8.732      2.022      3.283
REMARK INTER + INTRA:          -8.987
REMARK INTER:                  -8.987
REMARK INTRA:                   0.000
REMARK UNBOUND:                 0.000
REMARK  Name = ZINC000004104714
REMARK  4 active torsions:
REMARK  status: ('A' for Active; 'I' for Inactive)
REMARK    1  A    between atoms: C_1  and  C_2
REMARK    2  A    between atoms: C_9  and  O_10
REMARK    3  A    between atoms: C_14  and  C_15
REMARK    4  A    between atoms: C_14  and  C_16
REMARK                            x       y       z     vdW  Elec       q    Type
REMARK                         _______ _______ _______ _____ _____    ______ ____
ROOT
ATOM      1  C   UNL     1      -4.057   4.321 -25.519  0.00  0.00    +0.008 C 
ATOM      2  C   UNL     1      -4.250   3.894 -24.306  0.00  0.00    -0.010 C 
ATOM      3  C   UNL     1      -5.384   3.890 -23.670  0.00  0.00    +0.004 C 
ATOM      4  C   UNL     1      -5.179   3.390 -22.487  0.00  0.00    +0.011 C 
ATOM      5  C   UNL     1      -3.919   3.087 -22.392  0.00  0.00    +0.059 C 
ATOM      6  C   UNL     1      -3.385   2.563 -21.328  0.00  0.00    +0.139 C 
ATOM      7  C   UNL     1      -2.148   2.223 -21.125  0.00  0.00    +0.106 C 
ATOM      8  C   UNL     1      -1.137   2.321 -21.936  0.00  0.00    +0.126 C 
ATOM      9  C   UNL     1      -1.114   2.784 -23.150  0.00  0.00    +0.028 C 
ATOM     10  C   UNL     1      -2.097   3.263 -23.853  0.00  0.00    +0.005 C 
ATOM     11  C   UNL     1      -0.902   3.206 -24.362  0.00  0.00    -0.026 C 
ATOM     12  C   UNL     1      -1.132   3.708 -25.538  0.00  0.00    +0.011 C 
ATOM     13  C   UNL     1       0.374   2.973 -24.461  0.00  0.00    +0.011 C 
ATOM     14  O   UNL     1      -4.199   2.353 -20.335  0.00  0.00    -0.297 OA
ATOM     15  C   UNL     1      -3.345   3.398 -23.516  0.00  0.00    +0.006 C 
ENDROOT
BRANCH   8  16
ATOM     16  O   UNL     1       0.002   1.900 -21.471  0.00  0.00    -0.391 OA
ATOM     17  H   UNL     1       0.166   0.997 -21.786  0.00  0.00    +0.210 HD
ENDBRANCH   8  16
TORSDOF 1
ENDMDL
MODEL 5
REMARK VINA RESULT:    -8.619      1.292      3.546
REMARK INTER + INTRA:          -8.871
REMARK INTER:                  -8.871
REMARK INTRA:                   0.000
REMARK UNBOUND:                 0.000
REMARK  Name = ZINC000004104714
REMARK  4 active torsions:
REMARK  status: ('A' for Active; 'I' for Inactive)
REMARK    1  A    between atoms: C_1  and  C_2
REMARK    2  A    between atoms: C_9  and  O_10
REMARK    3  A    between atoms: C_14  and  C_15
REMARK    4  A    between atoms: C_14  and  C_16
REMARK                            x       y       z     vdW  Elec       q    Type
REMARK                         _______ _______ _______ _____ _____    ______ ____
ROOT
ATOM      1  C   UNL     1      -0.093   2.759 -23.442  0.00  0.00    +0.008 C 
ATOM      2  C   UNL     1      -1.064   3.121 -24.227  0.00  0.00    -0.010 C 
ATOM      3  C   UNL     1      -0.960   3.389 -25.496  0.00  0.00    +0.004 C 
ATOM      4  C   UNL     1      -2.141   3.712 -25.935  0.00  0.00    +0.011 C 
ATOM      5  C   UNL     1      -2.973   3.642 -24.940  0.00  0.00    +0.059 C 
ATOM      6  C   UNL     1      -4.242   3.906 -25.046  0.00  0.00    +0.139 C 
ATOM      7  C   UNL     1      -5.158   3.869 -24.125  0.00  0.00    +0.106 C 
ATOM      8  C   UNL     1      -5.032   3.560 -22.869  0.00  0.00    +0.126 C 
ATOM      9  C   UNL     1      -3.959   3.211 -22.224  0.00  0.00    +0.028 C 
ATOM     10  C   UNL     1      -2.747   3.086 -22.676  0.00  0.00    +0.005 C 
ATOM     11  C   UNL     1      -3.000   2.849 -21.423  0.00  0.00    -0.026 C 
ATOM     12  C   UNL     1      -1.811   2.530 -21.007  0.00  0.00    +0.011 C 
ATOM     13  C   UNL     1      -3.669   2.723 -20.315  0.00  0.00    +0.011 C 
ATOM     14  O   UNL     1      -4.648   4.252 -26.233  0.00  0.00    -0.297 OA
ATOM     15  C   UNL     1      -2.308   3.277 -23.885  0.00  0.00    +0.006 C 
ENDROOT
BRANCH   8  16
ATOM     16  O   UNL     1      -6.124   3.606 -22.165  0.00  0.00    -0.391 OA
ATOM     17  H   UNL     1      -6.693   2.857 -22.401  0.00  0.00    +0.210 HD
ENDBRANCH   8  16
TORSDOF 1
ENDMDL
MODEL 6
REMARK VINA RESULT:    -8.513      1.835      4.328
REMARK INTER + INTRA:          -8.761
REMARK INTER:                  -8.761
REMARK INTRA:                   0.000
REMARK UNBOUND:                 0.000
REMARK  Name = ZINC000004104714
REMARK  4 active torsions:
REMARK  status: ('A' for Active; 'I' for Inactive)
REMARK    1  A    between atoms: C_1  and  C_2
REMARK    2  A    between atoms: C_9  and  O_10
REMARK    3  A    between atoms: C_14  and  C_15
REMARK    4  A    between atoms: C_14  and  C_16
REMARK                            x       y       z     vdW  Elec       q    Type
REMARK                         _______ _______ _______ _____ _____    ______ ____
ROOT
ATOM      1  C   UNL     1       0.104   2.600 -24.029  0.00  0.00    +0.008 C 
ATOM      2  C   UNL     1      -0.665   2.578 -22.982  0.00  0.00    -0.010 C 
ATOM      3  C   UNL     1      -0.306   2.245 -21.777  0.00  0.00    +0.004 C 
ATOM      4  C   UNL     1      -1.348   2.346 -21.006  0.00  0.00    +0.011 C 
ATOM      5  C   UNL     1      -2.350   2.741 -21.733  0.00  0.00    +0.059 C 
ATOM      6  C   UNL     1      -3.545   2.940 -21.259  0.00  0.00    +0.139 C 
ATOM      7  C   UNL     1      -4.612   3.331 -21.889  0.00  0.00    +0.106 C 
ATOM      8  C   UNL     1      -4.748   3.621 -23.150  0.00  0.00    +0.126 C 
ATOM      9  C   UNL     1      -3.852   3.590 -24.090  0.00  0.00    +0.028 C 
ATOM     10  C   UNL     1      -2.597   3.262 -24.003  0.00  0.00    +0.005 C 
ATOM     11  C   UNL     1      -3.097   3.618 -25.149  0.00  0.00    -0.026 C 
ATOM     12  C   UNL     1      -2.042   3.509 -25.900  0.00  0.00    +0.011 C 
ATOM     13  C   UNL     1      -3.965   4.012 -26.033  0.00  0.00    +0.011 C 
ATOM     14  O   UNL     1      -3.691   2.718 -19.986  0.00  0.00    -0.297 OA
ATOM     15  C   UNL     1      -1.929   2.884 -22.954  0.00  0.00    +0.006 C 
ENDROOT
BRANCH   8  16
ATOM     16  O   UNL     1      -5.939   3.989 -23.517  0.00  0.00    -0.391 OA
ATOM     17  H   UNL     1      -6.158   4.839 -23.103  0.00  0.00    +0.210 HD
ENDBRANCH   8  16
TORSDOF 1
ENDMDL
MODEL 7
REMARK VINA RESULT:    -8.277      0.557      3.632
REMARK INTER + INTRA:          -8.519
REMARK INTER:                  -8.519
REMARK INTRA:                   0.000
REMARK UNBOUND:                 0.000
REMARK  Name = ZINC000004104714
REMARK  4 active torsions:
REMARK  status: ('A' for Active; 'I' for Inactive)
REMARK    1  A    between atoms: C_1  and  C_2
REMARK    2  A    between atoms: C_9  and  O_10
REMARK    3  A    between atoms: C_14  and  C_15
REMARK    4  A    between atoms: C_14  and  C_16
REMARK                            x       y       z     vdW  Elec       q    Type
REMARK                         _______ _______ _______ _____ _____    ______ ____
ROOT
ATOM      1  C   UNL     1      -1.154   1.810 -20.976  0.00  0.00    +0.008 C 
ATOM      2  C   UNL     1      -0.919   2.223 -22.185  0.00  0.00    -0.010 C 
ATOM      3  C   UNL     1       0.226   2.173 -22.800  0.00  0.00    +0.004 C 
ATOM      4  C   UNL     1       0.066   2.678 -23.988  0.00  0.00    +0.011 C 
ATOM      5  C   UNL     1      -1.177   3.041 -24.106  0.00  0.00    +0.059 C 
ATOM      6  C   UNL     1      -1.665   3.586 -25.181  0.00  0.00    +0.139 C 
ATOM      7  C   UNL     1      -2.881   3.984 -25.408  0.00  0.00    +0.106 C 
ATOM      8  C   UNL     1      -3.910   3.936 -24.615  0.00  0.00    +0.126 C 
ATOM      9  C   UNL     1      -3.977   3.478 -23.400  0.00  0.00    +0.028 C 
ATOM     10  C   UNL     1      -3.032   2.955 -22.679  0.00  0.00    +0.005 C 
ATOM     11  C   UNL     1      -4.232   3.070 -22.192  0.00  0.00    -0.026 C 
ATOM     12  C   UNL     1      -4.047   2.561 -21.011  0.00  0.00    +0.011 C 
ATOM     13  C   UNL     1      -5.496   3.363 -22.117  0.00  0.00    +0.011 C 
ATOM     14  O   UNL     1      -0.825   3.754 -26.159  0.00  0.00    -0.297 OA
ATOM     15  C   UNL     1      -1.785   2.760 -22.993  0.00  0.00    +0.006 C 
ENDROOT
BRANCH   8  16
ATOM     16  O   UNL     1      -5.019   4.409 -25.101  0.00  0.00    -0.391 OA
ATOM     17  H   UNL     1      -5.398   5.051 -24.480  0.00  0.00    +0.210 HD
ENDBRANCH   8  16
TORSDOF 1
ENDMDL
MODEL 8
REMARK VINA RESULT:    -8.158      1.862      3.386
REMARK INTER + INTRA:          -8.397
REMARK INTER:                  -8.397
REMARK INTRA:                   0.000
REMARK UNBOUND:                 0.000
REMARK  Name = ZINC000004104714
REMARK  4 active torsions:
REMARK  status: ('A' for Active; 'I' for Inactive)
REMARK    1  A    between atoms: C_1  and  C_2
REMARK    2  A    between atoms: C_9  and  O_10
REMARK    3  A    between atoms: C_14  and  C_15
REMARK    4  A    between atoms: C_14  and  C_16
REMARK                            x       y       z     vdW  Elec       q    Type
REMARK                         _______ _______ _______ _____ _____    ______ ____
ROOT
ATOM      1  C   UNL     1      -1.105   3.383 -25.520  0.00  0.00    +0.008 C 
ATOM      2  C   UNL     1      -2.332   3.541 -25.124  0.00  0.00    -0.010 C 
ATOM      3  C   UNL     1      -3.317   3.988 -25.847  0.00  0.00    +0.004 C 
ATOM      4  C   UNL     1      -4.385   4.003 -25.106  0.00  0.00    +0.011 C 
ATOM      5  C   UNL     1      -4.062   3.566 -23.926  0.00  0.00    +0.059 C 
ATOM      6  C   UNL     1      -4.908   3.457 -22.945  0.00  0.00    +0.139 C 
ATOM      7  C   UNL     1      -4.696   3.036 -21.734  0.00  0.00    +0.106 C 
ATOM      8  C   UNL     1      -3.585   2.620 -21.203  0.00  0.00    +0.126 C 
ATOM      9  C   UNL     1      -2.411   2.522 -21.754  0.00  0.00    +0.028 C 
ATOM     10  C   UNL     1      -2.059   2.816 -22.970  0.00  0.00    +0.005 C 
ATOM     11  C   UNL     1      -1.177   2.358 -22.132  0.00  0.00    -0.026 C 
ATOM     12  C   UNL     1      -0.124   2.352 -22.892  0.00  0.00    +0.011 C 
ATOM     13  C   UNL     1      -0.663   1.901 -21.028  0.00  0.00    +0.011 C 
ATOM     14  O   UNL     1      -6.129   3.817 -23.212  0.00  0.00    -0.297 OA
ATOM     15  C   UNL     1      -2.794   3.281 -23.937  0.00  0.00    +0.006 C 
ENDROOT
BRANCH   8  16
ATOM     16  O   UNL     1      -3.657   2.253 -19.959  0.00  0.00    -0.391 OA
ATOM     17  H   UNL     1      -3.220   2.916 -19.400  0.00  0.00    +0.210 HD
ENDBRANCH   8  16
TORSDOF 1
ENDMDL
MODEL 9
REMARK VINA RESULT:    -7.988      1.818      3.021
REMARK INTER + INTRA:          -8.222
REMARK INTER:                  -8.222
REMARK INTRA:                   0.000
REMARK UNBOUND:                 0.000
REMARK  Name = ZINC000004104714
REMARK  4 active torsions:
REMARK  status: ('A' for Active; 'I' for Inactive)
REMARK    1  A    between atoms: C_1  and  C_2
REMARK    2  A    between atoms: C_9  and  O_10
REMARK    3  A    between atoms: C_14  and  C_15
REMARK    4  A    between atoms: C_14  and  C_16
REMARK                            x       y       z     vdW  Elec       q    Type
REMARK                         _______ _______ _______ _____ _____    ______ ____
ROOT
ATOM      1  C   UNL     1       0.123   1.533 -20.723  0.00  0.00    +0.008 C 
ATOM      2  C   UNL     1      -0.715   2.028 -21.584  0.00  0.00    -0.010 C 
ATOM      3  C   UNL     1      -2.007   2.089 -21.445  0.00  0.00    +0.004 C 
ATOM      4  C   UNL     1      -2.500   2.648 -22.510  0.00  0.00    +0.011 C 
ATOM      5  C   UNL     1      -1.514   2.933 -23.307  0.00  0.00    +0.059 C 
ATOM      6  C   UNL     1      -1.670   3.504 -24.465  0.00  0.00    +0.139 C 
ATOM      7  C   UNL     1      -0.763   3.832 -25.336  0.00  0.00    +0.106 C 
ATOM      8  C   UNL     1       0.525   3.672 -25.265  0.00  0.00    +0.126 C 
ATOM      9  C   UNL     1       1.224   3.143 -24.305  0.00  0.00    +0.028 C 
ATOM     10  C   UNL     1       0.807   2.644 -23.179  0.00  0.00    +0.005 C 
ATOM     11  C   UNL     1       2.078   2.651 -23.456  0.00  0.00    -0.026 C 
ATOM     12  C   UNL     1       2.546   2.090 -22.381  0.00  0.00    +0.011 C 
ATOM     13  C   UNL     1       3.185   2.855 -24.106  0.00  0.00    +0.011 C 
ATOM     14  O   UNL     1      -2.896   3.783 -24.795  0.00  0.00    -0.297 OA
ATOM     15  C   UNL     1      -0.411   2.551 -22.735  0.00  0.00    +0.006 C 
ENDROOT
BRANCH   8  16
ATOM     16  O   UNL     1       1.204   4.096 -26.289  0.00  0.00    -0.391 OA
ATOM     17  H   UNL     1       0.611   4.561 -26.900  0.00  0.00    +0.210 HD
ENDBRANCH   8  16
TORSDOF 1
ENDMDL
