MODEL 1
REMARK VINA RESULT:    -9.502      0.000      0.000
REMARK INTER + INTRA:         -10.336
REMARK INTER:                 -10.336
REMARK INTRA:                   0.000
REMARK UNBOUND:                 0.000
REMARK  Name = ZINC000004104721
REMARK  6 active torsions:
REMARK  status: ('A' for Active; 'I' for Inactive)
REMARK    1  A    between atoms: C_1  and  C_2
REMARK    2  A    between atoms: C_2  and  C_3
REMARK    3  A    between atoms: C_7  and  O_8
REMARK    4  A    between atoms: C_9  and  C_10
REMARK    5  A    between atoms: C_13  and  C_14
REMARK    6  A    between atoms: C_13  and  O_15
REMARK                            x       y       z     vdW  Elec       q    Type
REMARK                         _______ _______ _______ _____ _____    ______ ____
ROOT
ATOM      1  C   UNL     1      -0.317   1.871 -21.283  0.00  0.00    +0.011 C 
ATOM      2  C   UNL     1      -1.043   2.282 -22.281  0.00  0.00    -0.028 C 
ATOM      3  C   UNL     1      -2.175   2.477 -21.673  0.00  0.00    -0.001 C 
ATOM      4  C   UNL     1      -3.214   2.613 -20.905  0.00  0.00    +0.007 C 
ATOM      5  C   UNL     1      -4.408   3.016 -21.221  0.00  0.00    +0.032 C 
ATOM      6  C   UNL     1      -4.858   3.384 -22.383  0.00  0.00    +0.121 C 
ATOM      7  C   UNL     1      -4.225   3.439 -23.518  0.00  0.00    -0.000 C 
ATOM      8  C   UNL     1      -4.778   3.825 -24.629  0.00  0.00    +0.012 C 
ATOM      9  C   UNL     1      -3.879   3.764 -25.567  0.00  0.00    +0.035 C 
ATOM     10  C   UNL     1      -2.771   3.340 -25.035  0.00  0.00    +0.067 C 
ATOM     11  C   UNL     1      -2.307   3.458 -26.244  0.00  0.00    +0.041 C 
ATOM     12  C   UNL     1      -5.476   3.788 -23.493  0.00  0.00    +0.014 C 
ATOM     13  C   UNL     1      -2.985   3.139 -23.769  0.00  0.00    +0.033 C 
ATOM     14  C   UNL     1      -0.161   2.230 -23.236  0.00  0.00    +0.011 C 
ATOM     15  C   UNL     1      -2.072   2.711 -22.948  0.00  0.00    +0.005 C 
ENDROOT
BRANCH  10  16
ATOM     16  O   UNL     1      -1.566   2.941 -24.756  0.00  0.00    -0.389 OA
ATOM     17  H   UNL     1      -1.106   3.631 -24.254  0.00  0.00    +0.210 HD
ENDBRANCH  10  16
BRANCH   6  18
ATOM     18  O   UNL     1      -6.107   3.745 -22.417  0.00  0.00    -0.391 OA
ATOM     19  H   UNL     1      -6.660   2.976 -22.630  0.00  0.00    +0.210 HD
ENDBRANCH   6  18
TORSDOF 2
ENDMDL
MODEL 2
REMARK VINA RESULT:    -9.339      1.422      3.097
REMARK INTER + INTRA:         -10.157
REMARK INTER:                 -10.157
REMARK INTRA:                   0.000
REMARK UNBOUND:                 0.000
REMARK  Name = ZINC000004104721
REMARK  6 active torsions:
REMARK  status: ('A' for Active; 'I' for Inactive)
REMARK    1  A    between atoms: C_1  and  C_2
REMARK    2  A    between atoms: C_2  and  C_3
REMARK    3  A    between atoms: C_7  and  O_8
REMARK    4  A    between atoms: C_9  and  C_10
REMARK    5  A    between atoms: C_13  and  C_14
REMARK    6  A    between atoms: C_13  and  O_15
REMARK                            x       y       z     vdW  Elec       q    Type
REMARK                         _______ _______ _______ _____ _____    ______ ____
ROOT
ATOM      1  C   UNL     1       0.517   2.275 -23.249  0.00  0.00    +0.011 C 
ATOM      2  C   UNL     1      -0.730   2.477 -22.936  0.00  0.00    -0.028 C 
ATOM      3  C   UNL     1      -1.170   2.956 -24.061  0.00  0.00    -0.001 C 
ATOM      4  C   UNL     1      -1.429   3.412 -25.251  0.00  0.00    +0.007 C 
ATOM      5  C   UNL     1      -2.559   3.845 -25.725  0.00  0.00    +0.032 C 
ATOM      6  C   UNL     1      -3.709   3.929 -25.126  0.00  0.00    +0.121 C 
ATOM      7  C   UNL     1      -4.015   3.602 -23.906  0.00  0.00    -0.000 C 
ATOM      8  C   UNL     1      -5.208   3.730 -23.406  0.00  0.00    +0.012 C 
ATOM      9  C   UNL     1      -5.174   3.315 -22.174  0.00  0.00    +0.035 C 
ATOM     10  C   UNL     1      -3.960   2.931 -21.912  0.00  0.00    +0.067 C 
ATOM     11  C   UNL     1      -4.446   2.662 -20.736  0.00  0.00    +0.041 C 
ATOM     12  C   UNL     1      -4.952   4.082 -24.667  0.00  0.00    +0.014 C 
ATOM     13  C   UNL     1      -3.244   3.108 -22.982  0.00  0.00    +0.033 C 
ATOM     14  C   UNL     1      -0.721   2.068 -21.702  0.00  0.00    +0.011 C 
ATOM     15  C   UNL     1      -1.978   2.821 -23.051  0.00  0.00    +0.005 C 
ENDROOT
BRANCH  10  16
ATOM     16  O   UNL     1      -2.848   2.491 -21.404  0.00  0.00    -0.389 OA
ATOM     17  H   UNL     1      -3.013   1.656 -20.940  0.00  0.00    +0.210 HD
ENDBRANCH  10  16
BRANCH   6  18
ATOM     18  O   UNL     1      -4.685   4.405 -25.843  0.00  0.00    -0.391 OA
ATOM     19  H   UNL     1      -4.386   5.204 -26.305  0.00  0.00    +0.210 HD
ENDBRANCH   6  18
TORSDOF 2
ENDMDL
MODEL 3
REMARK VINA RESULT:    -8.991      1.386      2.536
REMARK INTER + INTRA:          -9.780
REMARK INTER:                  -9.780
REMARK INTRA:                   0.000
REMARK UNBOUND:                 0.000
REMARK  Name = ZINC000004104721
REMARK  6 active torsions:
REMARK  status: ('A' for Active; 'I' for Inactive)
REMARK    1  A    between atoms: C_1  and  C_2
REMARK    2  A    between atoms: C_2  and  C_3
REMARK    3  A    between atoms: C_7  and  O_8
REMARK    4  A    between atoms: C_9  and  C_10
REMARK    5  A    between atoms: C_13  and  C_14
REMARK    6  A    between atoms: C_13  and  O_15
REMARK                            x       y       z     vdW  Elec       q    Type
REMARK                         _______ _______ _______ _____ _____    ______ ____
ROOT
ATOM      1  C   UNL     1      -3.581   3.131 -19.974  0.00  0.00    +0.011 C 
ATOM      2  C   UNL     1      -3.006   3.184 -21.139  0.00  0.00    -0.028 C 
ATOM      3  C   UNL     1      -4.043   3.404 -21.893  0.00  0.00    -0.001 C 
ATOM      4  C   UNL     1      -5.181   3.620 -22.481  0.00  0.00    +0.007 C 
ATOM      5  C   UNL     1      -5.420   3.792 -23.747  0.00  0.00    +0.032 C 
ATOM      6  C   UNL     1      -4.578   3.790 -24.737  0.00  0.00    +0.121 C 
ATOM      7  C   UNL     1      -3.290   3.616 -24.707  0.00  0.00    -0.000 C 
ATOM      8  C   UNL     1      -2.539   3.634 -25.768  0.00  0.00    +0.012 C 
ATOM      9  C   UNL     1      -1.311   3.430 -25.394  0.00  0.00    +0.035 C 
ATOM     10  C   UNL     1      -1.302   3.286 -24.102  0.00  0.00    +0.067 C 
ATOM     11  C   UNL     1      -0.021   3.135 -24.265  0.00  0.00    +0.041 C 
ATOM     12  C   UNL     1      -3.857   3.819 -25.858  0.00  0.00    +0.014 C 
ATOM     13  C   UNL     1      -2.525   3.401 -23.677  0.00  0.00    +0.033 C 
ATOM     14  C   UNL     1      -1.770   2.981 -20.790  0.00  0.00    +0.011 C 
ATOM     15  C   UNL     1      -2.860   3.307 -22.425  0.00  0.00    +0.005 C 
ENDROOT
BRANCH  10  16
ATOM     16  O   UNL     1      -1.026   3.110 -22.844  0.00  0.00    -0.389 OA
ATOM     17  H   UNL     1      -0.914   2.164 -22.667  0.00  0.00    +0.210 HD
ENDBRANCH  10  16
BRANCH   6  18
ATOM     18  O   UNL     1      -5.092   3.988 -25.915  0.00  0.00    -0.391 OA
ATOM     19  H   UNL     1      -5.054   4.934 -26.130  0.00  0.00    +0.210 HD
ENDBRANCH   6  18
TORSDOF 2
ENDMDL
MODEL 4
REMARK VINA RESULT:    -8.710      0.747      3.380
REMARK INTER + INTRA:          -9.474
REMARK INTER:                  -9.474
REMARK INTRA:                   0.000
REMARK UNBOUND:                 0.000
REMARK  Name = ZINC000004104721
REMARK  6 active torsions:
REMARK  status: ('A' for Active; 'I' for Inactive)
REMARK    1  A    between atoms: C_1  and  C_2
REMARK    2  A    between atoms: C_2  and  C_3
REMARK    3  A    between atoms: C_7  and  O_8
REMARK    4  A    between atoms: C_9  and  C_10
REMARK    5  A    between atoms: C_13  and  C_14
REMARK    6  A    between atoms: C_13  and  O_15
REMARK                            x       y       z     vdW  Elec       q    Type
REMARK                         _______ _______ _______ _____ _____    ______ ____
ROOT
ATOM      1  C   UNL     1      -2.907   3.809 -26.958  0.00  0.00    +0.011 C 
ATOM      2  C   UNL     1      -2.623   3.548 -25.716  0.00  0.00    -0.028 C 
ATOM      3  C   UNL     1      -3.805   3.657 -25.186  0.00  0.00    -0.001 C 
ATOM      4  C   UNL     1      -5.047   3.807 -24.836  0.00  0.00    +0.007 C 
ATOM      5  C   UNL     1      -5.575   3.693 -23.654  0.00  0.00    +0.032 C 
ATOM      6  C   UNL     1      -4.991   3.402 -22.530  0.00  0.00    +0.121 C 
ATOM      7  C   UNL     1      -3.735   3.153 -22.310  0.00  0.00    -0.000 C 
ATOM      8  C   UNL     1      -3.255   2.871 -21.135  0.00  0.00    +0.012 C 
ATOM      9  C   UNL     1      -1.975   2.676 -21.260  0.00  0.00    +0.035 C 
ATOM     10  C   UNL     1      -1.664   2.838 -22.512  0.00  0.00    +0.067 C 
ATOM     11  C   UNL     1      -0.459   2.565 -22.105  0.00  0.00    +0.041 C 
ATOM     12  C   UNL     1      -4.554   3.118 -21.302  0.00  0.00    +0.014 C 
ATOM     13  C   UNL     1      -2.751   3.132 -23.161  0.00  0.00    +0.033 C 
ATOM     14  C   UNL     1      -1.342   3.349 -25.816  0.00  0.00    +0.011 C 
ATOM     15  C   UNL     1      -2.782   3.357 -24.441  0.00  0.00    +0.005 C 
ENDROOT
BRANCH  10  16
ATOM     16  O   UNL     1      -1.101   2.943 -23.679  0.00  0.00    -0.389 OA
ATOM     17  H   UNL     1      -0.236   2.506 -23.660  0.00  0.00    +0.210 HD
ENDBRANCH  10  16
BRANCH   6  18
ATOM     18  O   UNL     1      -5.767   3.355 -21.486  0.00  0.00    -0.391 OA
ATOM     19  H   UNL     1      -5.538   2.579 -20.950  0.00  0.00    +0.210 HD
ENDBRANCH   6  18
TORSDOF 2
ENDMDL
MODEL 5
REMARK VINA RESULT:    -8.609      1.623      4.597
REMARK INTER + INTRA:          -9.363
REMARK INTER:                  -9.363
REMARK INTRA:                   0.000
REMARK UNBOUND:                 0.000
REMARK  Name = ZINC000004104721
REMARK  6 active torsions:
REMARK  status: ('A' for Active; 'I' for Inactive)
REMARK    1  A    between atoms: C_1  and  C_2
REMARK    2  A    between atoms: C_2  and  C_3
REMARK    3  A    between atoms: C_7  and  O_8
REMARK    4  A    between atoms: C_9  and  C_10
REMARK    5  A    between atoms: C_13  and  C_14
REMARK    6  A    between atoms: C_13  and  O_15
REMARK                            x       y       z     vdW  Elec       q    Type
REMARK                         _______ _______ _______ _____ _____    ______ ____
ROOT
ATOM      1  C   UNL     1      -4.860   3.205 -22.227  0.00  0.00    +0.011 C 
ATOM      2  C   UNL     1      -3.589   2.927 -22.211  0.00  0.00    -0.028 C 
ATOM      3  C   UNL     1      -3.266   3.275 -23.421  0.00  0.00    -0.001 C 
ATOM      4  C   UNL     1      -3.131   3.670 -24.652  0.00  0.00    +0.007 C 
ATOM      5  C   UNL     1      -2.056   3.692 -25.382  0.00  0.00    +0.032 C 
ATOM      6  C   UNL     1      -0.851   3.323 -25.062  0.00  0.00    +0.121 C 
ATOM      7  C   UNL     1      -0.423   2.842 -23.933  0.00  0.00    -0.000 C 
ATOM      8  C   UNL     1       0.814   2.503 -23.721  0.00  0.00    +0.012 C 
ATOM      9  C   UNL     1       0.906   2.063 -22.501  0.00  0.00    +0.035 C 
ATOM     10  C   UNL     1      -0.274   2.129 -21.959  0.00  0.00    +0.067 C 
ATOM     11  C   UNL     1       0.328   1.640 -20.915  0.00  0.00    +0.041 C 
ATOM     12  C   UNL     1       0.430   2.992 -24.901  0.00  0.00    +0.014 C 
ATOM     13  C   UNL     1      -1.096   2.610 -22.844  0.00  0.00    +0.033 C 
ATOM     14  C   UNL     1      -3.472   2.483 -20.995  0.00  0.00    +0.011 C 
ATOM     15  C   UNL     1      -2.361   2.803 -22.616  0.00  0.00    +0.005 C 
ENDROOT
BRANCH  10  16
ATOM     16  O   UNL     1      -1.328   2.093 -21.199  0.00  0.00    -0.389 OA
ATOM     17  H   UNL     1      -2.102   2.382 -21.707  0.00  0.00    +0.210 HD
ENDBRANCH  10  16
BRANCH   6  18
ATOM     18  O   UNL     1       0.045   3.452 -25.996  0.00  0.00    -0.391 OA
ATOM     19  H   UNL     1      -0.384   3.734 -26.819  0.00  0.00    +0.210 HD
ENDBRANCH   6  18
TORSDOF 2
ENDMDL
MODEL 6
REMARK VINA RESULT:    -8.557      1.243      2.223
REMARK INTER + INTRA:          -9.307
REMARK INTER:                  -9.307
REMARK INTRA:                   0.000
REMARK UNBOUND:                 0.000
REMARK  Name = ZINC000004104721
REMARK  6 active torsions:
REMARK  status: ('A' for Active; 'I' for Inactive)
REMARK    1  A    between atoms: C_1  and  C_2
REMARK    2  A    between atoms: C_2  and  C_3
REMARK    3  A    between atoms: C_7  and  O_8
REMARK    4  A    between atoms: C_9  and  C_10
REMARK    5  A    between atoms: C_13  and  C_14
REMARK    6  A    between atoms: C_13  and  O_15
REMARK                            x       y       z     vdW  Elec       q    Type
REMARK                         _______ _______ _______ _____ _____    ______ ____
ROOT
ATOM      1  C   UNL     1       0.593   2.948 -24.340  0.00  0.00    +0.011 C 
ATOM      2  C   UNL     1      -0.688   3.173 -24.296  0.00  0.00    -0.028 C 
ATOM      3  C   UNL     1      -0.941   2.802 -23.076  0.00  0.00    -0.001 C 
ATOM      4  C   UNL     1      -1.005   2.391 -21.845  0.00  0.00    +0.007 C 
ATOM      5  C   UNL     1      -2.044   2.319 -21.067  0.00  0.00    +0.032 C 
ATOM      6  C   UNL     1      -3.276   2.641 -21.329  0.00  0.00    +0.121 C 
ATOM      7  C   UNL     1      -3.774   3.113 -22.433  0.00  0.00    -0.000 C 
ATOM      8  C   UNL     1      -5.032   3.402 -22.586  0.00  0.00    +0.012 C 
ATOM      9  C   UNL     1      -5.197   3.849 -23.796  0.00  0.00    +0.035 C 
ATOM     10  C   UNL     1      -4.041   3.836 -24.391  0.00  0.00    +0.067 C 
ATOM     11  C   UNL     1      -4.709   4.309 -25.401  0.00  0.00    +0.041 C 
ATOM     12  C   UNL     1      -4.576   2.920 -21.430  0.00  0.00    +0.014 C 
ATOM     13  C   UNL     1      -3.161   3.382 -23.549  0.00  0.00    +0.033 C 
ATOM     14  C   UNL     1      -0.878   3.623 -25.501  0.00  0.00    +0.011 C 
ATOM     15  C   UNL     1      -1.901   3.243 -23.835  0.00  0.00    +0.005 C 
ENDROOT
BRANCH  10  16
ATOM     16  O   UNL     1      -3.024   3.922 -25.197  0.00  0.00    -0.389 OA
ATOM     17  H   UNL     1      -2.588   4.779 -25.076  0.00  0.00    +0.210 HD
ENDBRANCH  10  16
BRANCH   6  18
ATOM     18  O   UNL     1      -4.123   2.466 -20.358  0.00  0.00    -0.391 OA
ATOM     19  H   UNL     1      -4.259   1.516 -20.215  0.00  0.00    +0.210 HD
ENDBRANCH   6  18
TORSDOF 2
ENDMDL
MODEL 7
REMARK VINA RESULT:    -8.484      1.299      3.618
REMARK INTER + INTRA:          -9.228
REMARK INTER:                  -9.228
REMARK INTRA:                   0.000
REMARK UNBOUND:                 0.000
REMARK  Name = ZINC000004104721
REMARK  6 active torsions:
REMARK  status: ('A' for Active; 'I' for Inactive)
REMARK    1  A    between atoms: C_1  and  C_2
REMARK    2  A    between atoms: C_2  and  C_3
REMARK    3  A    between atoms: C_7  and  O_8
REMARK    4  A    between atoms: C_9  and  C_10
REMARK    5  A    between atoms: C_13  and  C_14
REMARK    6  A    between atoms: C_13  and  O_15
REMARK                            x       y       z     vdW  Elec       q    Type
REMARK                         _______ _______ _______ _____ _____    ______ ____
ROOT
ATOM      1  C   UNL     1      -5.727   3.269 -21.781  0.00  0.00    +0.011 C 
ATOM      2  C   UNL     1      -4.806   3.330 -22.698  0.00  0.00    -0.028 C 
ATOM      3  C   UNL     1      -3.756   3.053 -21.984  0.00  0.00    -0.001 C 
ATOM      4  C   UNL     1      -2.830   2.762 -21.120  0.00  0.00    +0.007 C 
ATOM      5  C   UNL     1      -1.551   2.634 -21.315  0.00  0.00    +0.032 C 
ATOM      6  C   UNL     1      -0.884   2.765 -22.422  0.00  0.00    +0.121 C 
ATOM      7  C   UNL     1      -1.329   3.057 -23.608  0.00  0.00    -0.000 C 
ATOM      8  C   UNL     1      -0.565   3.163 -24.655  0.00  0.00    +0.012 C 
ATOM      9  C   UNL     1      -1.317   3.462 -25.672  0.00  0.00    +0.035 C 
ATOM     10  C   UNL     1      -2.546   3.539 -25.255  0.00  0.00    +0.067 C 
ATOM     11  C   UNL     1      -2.806   3.818 -26.499  0.00  0.00    +0.041 C 
ATOM     12  C   UNL     1      -0.053   2.862 -23.461  0.00  0.00    +0.014 C 
ATOM     13  C   UNL     1      -2.553   3.289 -23.980  0.00  0.00    +0.033 C 
ATOM     14  C   UNL     1      -5.538   3.628 -23.731  0.00  0.00    +0.011 C 
ATOM     15  C   UNL     1      -3.634   3.287 -23.257  0.00  0.00    +0.005 C 
ENDROOT
BRANCH  10  16
ATOM     16  O   UNL     1      -3.829   3.675 -25.098  0.00  0.00    -0.389 OA
ATOM     17  H   UNL     1      -4.215   4.049 -25.905  0.00  0.00    +0.210 HD
ENDBRANCH  10  16
BRANCH   6  18
ATOM     18  O   UNL     1       0.401   2.581 -22.332  0.00  0.00    -0.391 OA
ATOM     19  H   UNL     1       0.843   3.017 -23.077  0.00  0.00    +0.210 HD
ENDBRANCH   6  18
TORSDOF 2
ENDMDL
MODEL 8
REMARK VINA RESULT:    -8.025      2.045      4.696
REMARK INTER + INTRA:          -8.728
REMARK INTER:                  -8.728
REMARK INTRA:                   0.000
REMARK UNBOUND:                 0.000
REMARK  Name = ZINC000004104721
REMARK  6 active torsions:
REMARK  status: ('A' for Active; 'I' for Inactive)
REMARK    1  A    between atoms: C_1  and  C_2
REMARK    2  A    between atoms: C_2  and  C_3
REMARK    3  A    between atoms: C_7  and  O_8
REMARK    4  A    between atoms: C_9  and  C_10
REMARK    5  A    between atoms: C_13  and  C_14
REMARK    6  A    between atoms: C_13  and  O_15
REMARK                            x       y       z     vdW  Elec       q    Type
REMARK                         _______ _______ _______ _____ _____    ______ ____
ROOT
ATOM      1  C   UNL     1      -3.699   3.366 -22.973  0.00  0.00    +0.011 C 
ATOM      2  C   UNL     1      -2.461   3.378 -23.371  0.00  0.00    -0.028 C 
ATOM      3  C   UNL     1      -1.917   2.648 -22.444  0.00  0.00    -0.001 C 
ATOM      4  C   UNL     1      -1.553   1.905 -21.442  0.00  0.00    +0.007 C 
ATOM      5  C   UNL     1      -0.365   1.466 -21.148  0.00  0.00    +0.032 C 
ATOM      6  C   UNL     1       0.751   1.662 -21.785  0.00  0.00    +0.121 C 
ATOM      7  C   UNL     1       0.956   2.345 -22.871  0.00  0.00    -0.000 C 
ATOM      8  C   UNL     1       2.125   2.476 -23.426  0.00  0.00    +0.012 C 
ATOM      9  C   UNL     1       1.984   3.213 -24.488  0.00  0.00    +0.035 C 
ATOM     10  C   UNL     1       0.730   3.538 -24.590  0.00  0.00    +0.067 C 
ATOM     11  C   UNL     1       1.121   4.170 -25.657  0.00  0.00    +0.041 C 
ATOM     12  C   UNL     1       1.973   1.762 -22.310  0.00  0.00    +0.014 C 
ATOM     13  C   UNL     1       0.094   3.001 -23.591  0.00  0.00    +0.033 C 
ATOM     14  C   UNL     1      -2.576   4.113 -24.438  0.00  0.00    +0.011 C 
ATOM     15  C   UNL     1      -1.185   3.136 -23.400  0.00  0.00    +0.005 C 
ENDROOT
BRANCH  10  16
ATOM     16  O   UNL     1      -0.444   3.995 -24.914  0.00  0.00    -0.389 OA
ATOM     17  H   UNL     1      -0.793   4.531 -24.187  0.00  0.00    +0.210 HD
ENDBRANCH  10  16
BRANCH   6  18
ATOM     18  O   UNL     1       1.803   1.100 -21.265  0.00  0.00    -0.391 OA
ATOM     19  H   UNL     1       2.448   0.912 -21.966  0.00  0.00    +0.210 HD
ENDBRANCH   6  18
TORSDOF 2
ENDMDL
MODEL 9
REMARK VINA RESULT:    -7.805      1.472      3.792
REMARK INTER + INTRA:          -8.489
REMARK INTER:                  -8.489
REMARK INTRA:                   0.000
REMARK UNBOUND:                 0.000
REMARK  Name = ZINC000004104721
REMARK  6 active torsions:
REMARK  status: ('A' for Active; 'I' for Inactive)
REMARK    1  A    between atoms: C_1  and  C_2
REMARK    2  A    between atoms: C_2  and  C_3
REMARK    3  A    between atoms: C_7  and  O_8
REMARK    4  A    between atoms: C_9  and  C_10
REMARK    5  A    between atoms: C_13  and  C_14
REMARK    6  A    between atoms: C_13  and  O_15
REMARK                            x       y       z     vdW  Elec       q    Type
REMARK                         _______ _______ _______ _____ _____    ______ ____
ROOT
ATOM      1  C   UNL     1      -4.705   3.737 -25.990  0.00  0.00    +0.011 C 
ATOM      2  C   UNL     1      -3.500   3.541 -25.542  0.00  0.00    -0.028 C 
ATOM      3  C   UNL     1      -3.752   3.378 -24.277  0.00  0.00    -0.001 C 
ATOM      4  C   UNL     1      -4.191   3.241 -23.062  0.00  0.00    +0.007 C 
ATOM      5  C   UNL     1      -3.514   3.006 -21.977  0.00  0.00    +0.032 C 
ATOM      6  C   UNL     1      -2.231   2.849 -21.841  0.00  0.00    +0.121 C 
ATOM      7  C   UNL     1      -1.307   2.889 -22.755  0.00  0.00    -0.000 C 
ATOM      8  C   UNL     1      -0.043   2.717 -22.506  0.00  0.00    +0.012 C 
ATOM      9  C   UNL     1       0.605   2.817 -23.628  0.00  0.00    +0.035 C 
ATOM     10  C   UNL     1      -0.258   3.051 -24.572  0.00  0.00    +0.067 C 
ATOM     11  C   UNL     1       0.790   3.055 -25.341  0.00  0.00    +0.041 C 
ATOM     12  C   UNL     1      -0.948   2.666 -21.527  0.00  0.00    +0.014 C 
ATOM     13  C   UNL     1      -1.440   3.095 -24.033  0.00  0.00    +0.033 C 
ATOM     14  C   UNL     1      -2.829   3.637 -26.652  0.00  0.00    +0.011 C 
ATOM     15  C   UNL     1      -2.528   3.313 -24.710  0.00  0.00    +0.005 C 
ENDROOT
BRANCH  10  16
ATOM     16  O   UNL     1      -0.902   3.286 -25.677  0.00  0.00    -0.389 OA
ATOM     17  H   UNL     1      -1.815   2.972 -25.590  0.00  0.00    +0.210 HD
ENDBRANCH  10  16
BRANCH   6  18
ATOM     18  O   UNL     1      -1.815   2.623 -20.630  0.00  0.00    -0.391 OA
ATOM     19  H   UNL     1      -0.995   2.104 -20.661  0.00  0.00    +0.210 HD
ENDBRANCH   6  18
TORSDOF 2
ENDMDL
