MODEL 1
REMARK VINA RESULT:    -8.276      0.000      0.000
REMARK INTER + INTRA:         -14.744
REMARK INTER:                 -13.591
REMARK INTRA:                  -1.153
REMARK UNBOUND:                -1.147
REMARK  Name = ZINC000014718751
REMARK  18 active torsions:
REMARK  status: ('A' for Active; 'I' for Inactive)
REMARK    1  A    between atoms: C_1  and  C_2
REMARK    2  A    between atoms: C_2  and  C_3
REMARK    3  A    between atoms: C_3  and  C_4
REMARK    4  A    between atoms: C_10  and  C_11
REMARK    5  A    between atoms: C_11  and  C_13
REMARK    6  A    between atoms: C_13  and  C_14
REMARK    7  A    between atoms: C_13  and  C_15
REMARK    8  A    between atoms: C_15  and  C_16
REMARK    9  A    between atoms: C_17  and  O_18
REMARK   10  A    between atoms: C_19  and  C_20
REMARK   11  A    between atoms: C_20  and  C_21
REMARK   12  A    between atoms: C_22  and  C_23
REMARK   13  A    between atoms: C_22  and  C_24
REMARK   14  A    between atoms: C_24  and  C_25
REMARK   15  A    between atoms: C_25  and  C_26
REMARK   16  A    between atoms: C_27  and  C_28
REMARK   17  A    between atoms: C_27  and  C_29
REMARK   18  A    between atoms: C_30  and  O_31
REMARK                            x       y       z     vdW  Elec       q    Type
REMARK                         _______ _______ _______ _____ _____    ______ ____
ROOT
ATOM      1  C   UNL     1       4.870   5.923 -22.430  0.00  0.00    -0.026 A 
ATOM      2  C   UNL     1       6.055   5.537 -22.061  0.00  0.00    +0.096 A 
ATOM      3  C   UNL     1       6.368   4.275 -22.092  0.00  0.00    +0.338 A 
ATOM      4  O   UNL     1       5.494   3.400 -22.494  0.00  0.00    -0.421 OA
ATOM      5  C   UNL     1       4.309   3.785 -22.863  0.00  0.00    +0.157 A 
ATOM      6  C   UNL     1       3.436   2.910 -23.264  0.00  0.00    +0.102 A 
ATOM      7  C   UNL     1       2.251   3.296 -23.633  0.00  0.00    +0.138 A 
ATOM      8  C   UNL     1       1.939   4.557 -23.602  0.00  0.00    +0.041 A 
ATOM      9  C   UNL     1       2.812   5.433 -23.200  0.00  0.00    +0.135 A 
ATOM     10  O   UNL     1       7.552   3.890 -21.723  0.00  0.00    -0.245 OA
ATOM     11  C   UNL     1       3.997   5.048 -22.831  0.00  0.00    +0.063 A 
ENDROOT
BRANCH   9  12
ATOM     12  O   UNL     1       2.500   6.695 -23.169  0.00  0.00    -0.506 OA
ATOM     13  H   UNL     1       1.901   7.045 -23.798  0.00  0.00    +0.292 HD
ENDBRANCH   9  12
BRANCH   6  14
ATOM     14  C   UNL     1       3.748   1.648 -23.296  0.00  0.00    +0.173 C 
ATOM     15  O   UNL     1       3.993   1.067 -24.433  0.00  0.00    -0.292 OA
BRANCH  14  16
ATOM     16  C   UNL     1       3.816   0.967 -22.191  0.00  0.00    +0.057 C 
ATOM     17  C   UNL     1       2.764   0.845 -21.436  0.00  0.00    +0.016 C 
BRANCH  16  18
ATOM     18  C   UNL     1       4.936   0.409 -21.839  0.00  0.00    +0.008 C 
ATOM     19  C   UNL     1       5.143   0.095 -20.594  0.00  0.00    +0.004 C 
ENDBRANCH  16  18
ENDBRANCH  14  16
ENDBRANCH   6  14
BRANCH   7  20
ATOM     20  O   UNL     1       1.378   2.420 -24.034  0.00  0.00    -0.506 OA
ATOM     21  H   UNL     1       1.635   1.738 -24.623  0.00  0.00    +0.292 HD
ENDBRANCH   7  20
BRANCH   8  22
ATOM     22  C   UNL     1       0.753   4.944 -23.971  0.00  0.00    +0.069 C 
BRANCH  22  23
ATOM     23  C   UNL     1      -0.244   4.867 -23.140  0.00  0.00    -0.023 C 
ATOM     24  C   UNL     1      -1.390   4.407 -23.543  0.00  0.00    -0.076 C 
ATOM     25  C   UNL     1      -1.541   4.023 -24.776  0.00  0.00    +0.039 C 
BRANCH  24  26
ATOM     26  C   UNL     1      -2.388   4.330 -22.712  0.00  0.00    +0.034 C 
BRANCH  26  27
ATOM     27  C   UNL     1      -3.093   3.241 -22.642  0.00  0.00    +0.031 C 
BRANCH  27  28
ATOM     28  C   UNL     1      -4.392   3.307 -22.633  0.00  0.00    -0.028 C 
ATOM     29  C   UNL     1      -5.064   2.752 -21.667  0.00  0.00    -0.080 C 
ATOM     30  C   UNL     1      -4.437   2.131 -20.713  0.00  0.00    +0.038 C 
ATOM     31  C   UNL     1      -6.362   2.818 -21.658  0.00  0.00    +0.038 C 
ENDBRANCH  27  28
ENDBRANCH  26  27
ENDBRANCH  24  26
ENDBRANCH  22  23
ENDBRANCH   8  22
BRANCH   1  32
ATOM     32  C   UNL     1       4.558   7.184 -22.398  0.00  0.00    +0.036 C 
BRANCH  32  34
ATOM     33  C   UNL     1       4.453   8.482 -20.561  0.00  0.00    +0.004 C 
ATOM     34  C   UNL     1       5.136   7.976 -21.544  0.00  0.00    +0.001 C 
ENDBRANCH  32  34
ENDBRANCH   1  32
TORSDOF 12
ENDMDL
MODEL 2
REMARK VINA RESULT:    -7.642      2.385      4.649
REMARK INTER + INTRA:         -13.703
REMARK INTER:                 -14.057
REMARK INTRA:                   0.354
REMARK UNBOUND:                -1.147
REMARK  Name = ZINC000014718751
REMARK  18 active torsions:
REMARK  status: ('A' for Active; 'I' for Inactive)
REMARK    1  A    between atoms: C_1  and  C_2
REMARK    2  A    between atoms: C_2  and  C_3
REMARK    3  A    between atoms: C_3  and  C_4
REMARK    4  A    between atoms: C_10  and  C_11
REMARK    5  A    between atoms: C_11  and  C_13
REMARK    6  A    between atoms: C_13  and  C_14
REMARK    7  A    between atoms: C_13  and  C_15
REMARK    8  A    between atoms: C_15  and  C_16
REMARK    9  A    between atoms: C_17  and  O_18
REMARK   10  A    between atoms: C_19  and  C_20
REMARK   11  A    between atoms: C_20  and  C_21
REMARK   12  A    between atoms: C_22  and  C_23
REMARK   13  A    between atoms: C_22  and  C_24
REMARK   14  A    between atoms: C_24  and  C_25
REMARK   15  A    between atoms: C_25  and  C_26
REMARK   16  A    between atoms: C_27  and  C_28
REMARK   17  A    between atoms: C_27  and  C_29
REMARK   18  A    between atoms: C_30  and  O_31
REMARK                            x       y       z     vdW  Elec       q    Type
REMARK                         _______ _______ _______ _____ _____    ______ ____
ROOT
ATOM      1  C   UNL     1      -0.568   1.870 -21.531  0.00  0.00    -0.026 A 
ATOM      2  C   UNL     1       0.253   1.471 -20.605  0.00  0.00    +0.096 A 
ATOM      3  C   UNL     1       1.537   1.569 -20.788  0.00  0.00    +0.338 A 
ATOM      4  O   UNL     1       1.999   2.065 -21.898  0.00  0.00    -0.421 OA
ATOM      5  C   UNL     1       1.178   2.464 -22.823  0.00  0.00    +0.157 A 
ATOM      6  C   UNL     1       1.639   2.960 -23.933  0.00  0.00    +0.102 A 
ATOM      7  C   UNL     1       0.819   3.358 -24.858  0.00  0.00    +0.138 A 
ATOM      8  C   UNL     1      -0.465   3.260 -24.675  0.00  0.00    +0.041 A 
ATOM      9  C   UNL     1      -0.927   2.764 -23.565  0.00  0.00    +0.135 A 
ATOM     10  O   UNL     1       2.358   1.171 -19.863  0.00  0.00    -0.245 OA
ATOM     11  C   UNL     1      -0.106   2.366 -22.640  0.00  0.00    +0.063 A 
ENDROOT
BRANCH   9  12
ATOM     12  O   UNL     1      -2.210   2.666 -23.382  0.00  0.00    -0.506 OA
ATOM     13  H   UNL     1      -2.622   3.142 -22.687  0.00  0.00    +0.292 HD
ENDBRANCH   9  12
BRANCH   6  14
ATOM     14  C   UNL     1       2.923   3.057 -24.116  0.00  0.00    +0.173 C 
ATOM     15  O   UNL     1       3.535   2.216 -24.896  0.00  0.00    -0.292 OA
BRANCH  14  16
ATOM     16  C   UNL     1       3.595   3.996 -23.520  0.00  0.00    +0.057 C 
ATOM     17  C   UNL     1       3.022   5.129 -23.239  0.00  0.00    +0.016 C 
BRANCH  16  18
ATOM     18  C   UNL     1       4.841   3.803 -23.204  0.00  0.00    +0.008 C 
ATOM     19  C   UNL     1       5.583   4.808 -22.839  0.00  0.00    +0.004 C 
ENDBRANCH  16  18
ENDBRANCH  14  16
ENDBRANCH   6  14
BRANCH   7  20
ATOM     20  O   UNL     1       1.281   3.854 -25.967  0.00  0.00    -0.506 OA
ATOM     21  H   UNL     1       1.137   4.757 -26.172  0.00  0.00    +0.292 HD
ENDBRANCH   7  20
BRANCH   8  22
ATOM     22  C   UNL     1      -1.286   3.659 -25.600  0.00  0.00    +0.069 C 
BRANCH  22  23
ATOM     23  C   UNL     1      -2.523   3.924 -25.302  0.00  0.00    -0.023 C 
ATOM     24  C   UNL     1      -3.458   3.748 -26.188  0.00  0.00    -0.076 C 
ATOM     25  C   UNL     1      -3.156   3.307 -27.373  0.00  0.00    +0.039 C 
BRANCH  24  26
ATOM     26  C   UNL     1      -4.695   4.014 -25.889  0.00  0.00    +0.034 C 
BRANCH  26  27
ATOM     27  C   UNL     1      -5.007   4.390 -24.685  0.00  0.00    +0.031 C 
BRANCH  27  28
ATOM     28  C   UNL     1      -5.757   3.633 -23.941  0.00  0.00    -0.028 C 
ATOM     29  C   UNL     1      -5.526   3.541 -22.665  0.00  0.00    -0.080 C 
ATOM     30  C   UNL     1      -4.544   4.207 -22.133  0.00  0.00    +0.038 C 
ATOM     31  C   UNL     1      -6.276   2.784 -21.921  0.00  0.00    +0.038 C 
ENDBRANCH  27  28
ENDBRANCH  26  27
ENDBRANCH  24  26
ENDBRANCH  22  23
ENDBRANCH   8  22
BRANCH   1  32
ATOM     32  C   UNL     1      -1.851   1.772 -21.347  0.00  0.00    +0.036 C 
BRANCH  32  34
ATOM     33  C   UNL     1      -2.552   3.596 -20.228  0.00  0.00    +0.004 C 
ATOM     34  C   UNL     1      -2.400   2.307 -20.297  0.00  0.00    +0.001 C 
ENDBRANCH  32  34
ENDBRANCH   1  32
TORSDOF 12
ENDMDL
MODEL 3
REMARK VINA RESULT:    -6.611      2.122      4.988
REMARK INTER + INTRA:         -12.008
REMARK INTER:                 -11.220
REMARK INTRA:                  -0.788
REMARK UNBOUND:                -1.147
REMARK  Name = ZINC000014718751
REMARK  18 active torsions:
REMARK  status: ('A' for Active; 'I' for Inactive)
REMARK    1  A    between atoms: C_1  and  C_2
REMARK    2  A    between atoms: C_2  and  C_3
REMARK    3  A    between atoms: C_3  and  C_4
REMARK    4  A    between atoms: C_10  and  C_11
REMARK    5  A    between atoms: C_11  and  C_13
REMARK    6  A    between atoms: C_13  and  C_14
REMARK    7  A    between atoms: C_13  and  C_15
REMARK    8  A    between atoms: C_15  and  C_16
REMARK    9  A    between atoms: C_17  and  O_18
REMARK   10  A    between atoms: C_19  and  C_20
REMARK   11  A    between atoms: C_20  and  C_21
REMARK   12  A    between atoms: C_22  and  C_23
REMARK   13  A    between atoms: C_22  and  C_24
REMARK   14  A    between atoms: C_24  and  C_25
REMARK   15  A    between atoms: C_25  and  C_26
REMARK   16  A    between atoms: C_27  and  C_28
REMARK   17  A    between atoms: C_27  and  C_29
REMARK   18  A    between atoms: C_30  and  O_31
REMARK                            x       y       z     vdW  Elec       q    Type
REMARK                         _______ _______ _______ _____ _____    ______ ____
ROOT
ATOM      1  C   UNL     1       7.350   4.555 -22.395  0.00  0.00    -0.026 A 
ATOM      2  C   UNL     1       8.317   5.215 -21.831  0.00  0.00    +0.096 A 
ATOM      3  C   UNL     1       8.094   6.396 -21.332  0.00  0.00    +0.338 A 
ATOM      4  O   UNL     1       6.904   6.915 -21.399  0.00  0.00    -0.421 OA
ATOM      5  C   UNL     1       5.937   6.255 -21.963  0.00  0.00    +0.157 A 
ATOM      6  C   UNL     1       4.747   6.774 -22.029  0.00  0.00    +0.102 A 
ATOM      7  C   UNL     1       3.780   6.114 -22.593  0.00  0.00    +0.138 A 
ATOM      8  C   UNL     1       4.003   4.935 -23.091  0.00  0.00    +0.041 A 
ATOM      9  C   UNL     1       5.193   4.415 -23.025  0.00  0.00    +0.135 A 
ATOM     10  O   UNL     1       9.062   7.056 -20.768  0.00  0.00    -0.245 OA
ATOM     11  C   UNL     1       6.160   5.075 -22.461  0.00  0.00    +0.063 A 
ENDROOT
BRANCH   9  12
ATOM     12  O   UNL     1       5.415   3.235 -23.523  0.00  0.00    -0.506 OA
ATOM     13  H   UNL     1       5.687   2.534 -22.964  0.00  0.00    +0.292 HD
ENDBRANCH   9  12
BRANCH   6  14
ATOM     14  C   UNL     1       4.525   7.955 -21.531  0.00  0.00    +0.173 C 
ATOM     15  O   UNL     1       4.061   8.074 -20.322  0.00  0.00    -0.292 OA
BRANCH  14  16
ATOM     16  C   UNL     1       4.767   9.016 -22.241  0.00  0.00    +0.057 C 
ATOM     17  C   UNL     1       3.785   9.763 -22.650  0.00  0.00    +0.016 C 
BRANCH  16  18
ATOM     18  C   UNL     1       5.992   9.331 -22.541  0.00  0.00    +0.008 C 
ATOM     19  C   UNL     1       6.607  10.261 -21.871  0.00  0.00    +0.004 C 
ENDBRANCH  16  18
ENDBRANCH  14  16
ENDBRANCH   6  14
BRANCH   7  20
ATOM     20  O   UNL     1       2.591   6.634 -22.659  0.00  0.00    -0.506 OA
ATOM     21  H   UNL     1       2.141   6.673 -23.480  0.00  0.00    +0.292 HD
ENDBRANCH   7  20
BRANCH   8  22
ATOM     22  C   UNL     1       3.035   4.274 -23.656  0.00  0.00    +0.069 C 
BRANCH  22  23
ATOM     23  C   UNL     1       2.334   3.428 -22.961  0.00  0.00    -0.023 C 
ATOM     24  C   UNL     1       1.110   3.161 -23.307  0.00  0.00    -0.076 C 
ATOM     25  C   UNL     1       0.587   3.739 -24.348  0.00  0.00    +0.039 C 
BRANCH  24  26
ATOM     26  C   UNL     1       0.408   2.315 -22.613  0.00  0.00    +0.034 C 
BRANCH  26  27
ATOM     27  C   UNL     1      -0.886   2.430 -22.563  0.00  0.00    +0.031 C 
BRANCH  27  28
ATOM     28  C   UNL     1      -1.480   2.601 -21.420  0.00  0.00    -0.028 C 
ATOM     29  C   UNL     1      -2.631   3.204 -21.368  0.00  0.00    -0.080 C 
ATOM     30  C   UNL     1      -3.187   3.636 -22.461  0.00  0.00    +0.038 C 
ATOM     31  C   UNL     1      -3.224   3.375 -20.224  0.00  0.00    +0.038 C 
ENDBRANCH  27  28
ENDBRANCH  26  27
ENDBRANCH  24  26
ENDBRANCH  22  23
ENDBRANCH   8  22
BRANCH   1  32
ATOM     32  C   UNL     1       7.572   3.376 -22.893  0.00  0.00    +0.036 C 
BRANCH  32  34
ATOM     33  C   UNL     1       8.383   3.481 -24.991  0.00  0.00    +0.004 C 
ATOM     34  C   UNL     1       8.548   3.198 -23.733  0.00  0.00    +0.001 C 
ENDBRANCH  32  34
ENDBRANCH   1  32
TORSDOF 12
ENDMDL
MODEL 4
REMARK VINA RESULT:    -6.567      1.500      2.130
REMARK INTER + INTRA:         -11.936
REMARK INTER:                 -11.559
REMARK INTRA:                  -0.377
REMARK UNBOUND:                -1.147
REMARK  Name = ZINC000014718751
REMARK  18 active torsions:
REMARK  status: ('A' for Active; 'I' for Inactive)
REMARK    1  A    between atoms: C_1  and  C_2
REMARK    2  A    between atoms: C_2  and  C_3
REMARK    3  A    between atoms: C_3  and  C_4
REMARK    4  A    between atoms: C_10  and  C_11
REMARK    5  A    between atoms: C_11  and  C_13
REMARK    6  A    between atoms: C_13  and  C_14
REMARK    7  A    between atoms: C_13  and  C_15
REMARK    8  A    between atoms: C_15  and  C_16
REMARK    9  A    between atoms: C_17  and  O_18
REMARK   10  A    between atoms: C_19  and  C_20
REMARK   11  A    between atoms: C_20  and  C_21
REMARK   12  A    between atoms: C_22  and  C_23
REMARK   13  A    between atoms: C_22  and  C_24
REMARK   14  A    between atoms: C_24  and  C_25
REMARK   15  A    between atoms: C_25  and  C_26
REMARK   16  A    between atoms: C_27  and  C_28
REMARK   17  A    between atoms: C_27  and  C_29
REMARK   18  A    between atoms: C_30  and  O_31
REMARK                            x       y       z     vdW  Elec       q    Type
REMARK                         _______ _______ _______ _____ _____    ______ ____
ROOT
ATOM      1  C   UNL     1       4.871   7.013 -21.945  0.00  0.00    -0.026 A 
ATOM      2  C   UNL     1       6.003   7.148 -21.321  0.00  0.00    +0.096 A 
ATOM      3  C   UNL     1       6.790   6.123 -21.174  0.00  0.00    +0.338 A 
ATOM      4  O   UNL     1       6.444   4.965 -21.651  0.00  0.00    -0.421 OA
ATOM      5  C   UNL     1       5.312   4.830 -22.276  0.00  0.00    +0.157 A 
ATOM      6  C   UNL     1       4.967   3.671 -22.753  0.00  0.00    +0.102 A 
ATOM      7  C   UNL     1       3.835   3.537 -23.377  0.00  0.00    +0.138 A 
ATOM      8  C   UNL     1       3.048   4.561 -23.524  0.00  0.00    +0.041 A 
ATOM      9  C   UNL     1       3.393   5.720 -23.047  0.00  0.00    +0.135 A 
ATOM     10  O   UNL     1       7.922   6.258 -20.550  0.00  0.00    -0.245 OA
ATOM     11  C   UNL     1       4.525   5.855 -22.423  0.00  0.00    +0.063 A 
ENDROOT
BRANCH   9  12
ATOM     12  O   UNL     1       2.606   6.744 -23.194  0.00  0.00    -0.506 OA
ATOM     13  H   UNL     1       2.234   6.933 -24.033  0.00  0.00    +0.292 HD
ENDBRANCH   9  12
BRANCH   6  14
ATOM     14  C   UNL     1       5.754   2.647 -22.606  0.00  0.00    +0.173 C 
ATOM     15  O   UNL     1       6.892   2.606 -23.233  0.00  0.00    -0.292 OA
BRANCH  14  16
ATOM     16  C   UNL     1       5.404   1.664 -21.832  0.00  0.00    +0.057 C 
ATOM     17  C   UNL     1       5.922   0.484 -22.002  0.00  0.00    +0.016 C 
BRANCH  16  18
ATOM     18  C   UNL     1       4.534   1.860 -20.886  0.00  0.00    +0.008 C 
ATOM     19  C   UNL     1       3.627   0.960 -20.641  0.00  0.00    +0.004 C 
ENDBRANCH  16  18
ENDBRANCH  14  16
ENDBRANCH   6  14
BRANCH   7  20
ATOM     20  O   UNL     1       3.490   2.378 -23.855  0.00  0.00    -0.506 OA
ATOM     21  H   UNL     1       2.844   1.863 -23.413  0.00  0.00    +0.292 HD
ENDBRANCH   7  20
BRANCH   8  22
ATOM     22  C   UNL     1       1.915   4.427 -24.149  0.00  0.00    +0.069 C 
BRANCH  22  23
ATOM     23  C   UNL     1       0.798   4.656 -23.526  0.00  0.00    -0.023 C 
ATOM     24  C   UNL     1      -0.045   3.688 -23.326  0.00  0.00    -0.076 C 
ATOM     25  C   UNL     1       0.228   2.489 -23.750  0.00  0.00    +0.039 C 
BRANCH  24  26
ATOM     26  C   UNL     1      -1.163   3.917 -22.702  0.00  0.00    +0.034 C 
BRANCH  26  27
ATOM     27  C   UNL     1      -2.188   3.142 -22.899  0.00  0.00    +0.031 C 
BRANCH  27  28
ATOM     28  C   UNL     1      -3.348   3.658 -23.180  0.00  0.00    -0.028 C 
ATOM     29  C   UNL     1      -3.827   3.565 -24.386  0.00  0.00    -0.080 C 
ATOM     30  C   UNL     1      -3.145   2.956 -25.310  0.00  0.00    +0.038 C 
ATOM     31  C   UNL     1      -4.986   4.081 -24.666  0.00  0.00    +0.038 C 
ENDBRANCH  27  28
ENDBRANCH  26  27
ENDBRANCH  24  26
ENDBRANCH  22  23
ENDBRANCH   8  22
BRANCH   1  32
ATOM     32  C   UNL     1       4.084   8.038 -22.092  0.00  0.00    +0.036 C 
BRANCH  32  34
ATOM     33  C   UNL     1       4.172  10.228 -22.606  0.00  0.00    +0.004 C 
ATOM     34  C   UNL     1       4.523   9.236 -21.844  0.00  0.00    +0.001 C 
ENDBRANCH  32  34
ENDBRANCH   1  32
TORSDOF 12
ENDMDL
MODEL 5
REMARK VINA RESULT:    -6.504      2.380      4.403
REMARK INTER + INTRA:         -11.832
REMARK INTER:                 -10.887
REMARK INTRA:                  -0.946
REMARK UNBOUND:                -1.147
REMARK  Name = ZINC000014718751
REMARK  18 active torsions:
REMARK  status: ('A' for Active; 'I' for Inactive)
REMARK    1  A    between atoms: C_1  and  C_2
REMARK    2  A    between atoms: C_2  and  C_3
REMARK    3  A    between atoms: C_3  and  C_4
REMARK    4  A    between atoms: C_10  and  C_11
REMARK    5  A    between atoms: C_11  and  C_13
REMARK    6  A    between atoms: C_13  and  C_14
REMARK    7  A    between atoms: C_13  and  C_15
REMARK    8  A    between atoms: C_15  and  C_16
REMARK    9  A    between atoms: C_17  and  O_18
REMARK   10  A    between atoms: C_19  and  C_20
REMARK   11  A    between atoms: C_20  and  C_21
REMARK   12  A    between atoms: C_22  and  C_23
REMARK   13  A    between atoms: C_22  and  C_24
REMARK   14  A    between atoms: C_24  and  C_25
REMARK   15  A    between atoms: C_25  and  C_26
REMARK   16  A    between atoms: C_27  and  C_28
REMARK   17  A    between atoms: C_27  and  C_29
REMARK   18  A    between atoms: C_30  and  O_31
REMARK                            x       y       z     vdW  Elec       q    Type
REMARK                         _______ _______ _______ _____ _____    ______ ____
ROOT
ATOM      1  C   UNL     1       5.715   7.696 -21.862  0.00  0.00    -0.026 A 
ATOM      2  C   UNL     1       6.798   8.401 -21.731  0.00  0.00    +0.096 A 
ATOM      3  C   UNL     1       7.936   7.929 -22.150  0.00  0.00    +0.338 A 
ATOM      4  O   UNL     1       7.988   6.753 -22.699  0.00  0.00    -0.421 OA
ATOM      5  C   UNL     1       6.904   6.047 -22.831  0.00  0.00    +0.157 A 
ATOM      6  C   UNL     1       6.956   4.871 -23.380  0.00  0.00    +0.102 A 
ATOM      7  C   UNL     1       5.872   4.165 -23.511  0.00  0.00    +0.138 A 
ATOM      8  C   UNL     1       4.736   4.637 -23.093  0.00  0.00    +0.041 A 
ATOM      9  C   UNL     1       4.683   5.814 -22.543  0.00  0.00    +0.135 A 
ATOM     10  O   UNL     1       9.020   8.635 -22.018  0.00  0.00    -0.245 OA
ATOM     11  C   UNL     1       5.766   6.519 -22.412  0.00  0.00    +0.063 A 
ENDROOT
BRANCH   9  12
ATOM     12  O   UNL     1       3.546   6.286 -22.125  0.00  0.00    -0.506 OA
ATOM     13  H   UNL     1       3.223   6.049 -21.277  0.00  0.00    +0.292 HD
ENDBRANCH   9  12
BRANCH   6  14
ATOM     14  C   UNL     1       8.094   4.399 -23.799  0.00  0.00    +0.173 C 
ATOM     15  O   UNL     1       8.896   3.803 -22.967  0.00  0.00    -0.292 OA
BRANCH  14  16
ATOM     16  C   UNL     1       8.428   4.523 -25.048  0.00  0.00    +0.057 C 
ATOM     17  C   UNL     1       8.777   3.476 -25.736  0.00  0.00    +0.016 C 
BRANCH  16  18
ATOM     18  C   UNL     1       8.415   5.694 -25.612  0.00  0.00    +0.008 C 
ATOM     19  C   UNL     1       8.661   5.807 -26.884  0.00  0.00    +0.004 C 
ENDBRANCH  16  18
ENDBRANCH  14  16
ENDBRANCH   6  14
BRANCH   7  20
ATOM     20  O   UNL     1       5.925   2.989 -24.061  0.00  0.00    -0.506 OA
ATOM     21  H   UNL     1       6.383   2.292 -23.634  0.00  0.00    +0.292 HD
ENDBRANCH   7  20
BRANCH   8  22
ATOM     22  C   UNL     1       3.651   3.932 -23.224  0.00  0.00    +0.069 C 
BRANCH  22  23
ATOM     23  C   UNL     1       2.655   4.395 -23.919  0.00  0.00    -0.023 C 
ATOM     24  C   UNL     1       1.996   3.606 -24.714  0.00  0.00    -0.076 C 
ATOM     25  C   UNL     1       2.332   2.355 -24.815  0.00  0.00    +0.039 C 
BRANCH  24  26
ATOM     26  C   UNL     1       0.999   4.069 -25.410  0.00  0.00    +0.034 C 
BRANCH  26  27
ATOM     27  C   UNL     1      -0.218   3.724 -25.111  0.00  0.00    +0.031 C 
BRANCH  27  28
ATOM     28  C   UNL     1      -0.840   4.316 -24.135  0.00  0.00    -0.028 C 
ATOM     29  C   UNL     1      -1.276   3.623 -23.125  0.00  0.00    -0.080 C 
ATOM     30  C   UNL     1      -1.089   2.337 -23.092  0.00  0.00    +0.038 C 
ATOM     31  C   UNL     1      -1.898   4.215 -22.150  0.00  0.00    +0.038 C 
ENDBRANCH  27  28
ENDBRANCH  26  27
ENDBRANCH  24  26
ENDBRANCH  22  23
ENDBRANCH   8  22
BRANCH   1  32
ATOM     32  C   UNL     1       4.578   8.168 -21.444  0.00  0.00    +0.036 C 
BRANCH  32  34
ATOM     33  C   UNL     1       3.957  10.121 -20.511  0.00  0.00    +0.004 C 
ATOM     34  C   UNL     1       4.543   8.965 -20.417  0.00  0.00    +0.001 C 
ENDBRANCH  32  34
ENDBRANCH   1  32
TORSDOF 12
ENDMDL
MODEL 6
REMARK VINA RESULT:    -6.468      2.621      7.999
REMARK INTER + INTRA:         -11.773
REMARK INTER:                 -11.474
REMARK INTRA:                  -0.299
REMARK UNBOUND:                -1.147
REMARK  Name = ZINC000014718751
REMARK  18 active torsions:
REMARK  status: ('A' for Active; 'I' for Inactive)
REMARK    1  A    between atoms: C_1  and  C_2
REMARK    2  A    between atoms: C_2  and  C_3
REMARK    3  A    between atoms: C_3  and  C_4
REMARK    4  A    between atoms: C_10  and  C_11
REMARK    5  A    between atoms: C_11  and  C_13
REMARK    6  A    between atoms: C_13  and  C_14
REMARK    7  A    between atoms: C_13  and  C_15
REMARK    8  A    between atoms: C_15  and  C_16
REMARK    9  A    between atoms: C_17  and  O_18
REMARK   10  A    between atoms: C_19  and  C_20
REMARK   11  A    between atoms: C_20  and  C_21
REMARK   12  A    between atoms: C_22  and  C_23
REMARK   13  A    between atoms: C_22  and  C_24
REMARK   14  A    between atoms: C_24  and  C_25
REMARK   15  A    between atoms: C_25  and  C_26
REMARK   16  A    between atoms: C_27  and  C_28
REMARK   17  A    between atoms: C_27  and  C_29
REMARK   18  A    between atoms: C_30  and  O_31
REMARK                            x       y       z     vdW  Elec       q    Type
REMARK                         _______ _______ _______ _____ _____    ______ ____
ROOT
ATOM      1  C   UNL     1      -1.097   3.426 -25.052  0.00  0.00    -0.026 A 
ATOM      2  C   UNL     1      -2.058   4.157 -25.532  0.00  0.00    +0.096 A 
ATOM      3  C   UNL     1      -3.063   4.489 -24.776  0.00  0.00    +0.338 A 
ATOM      4  O   UNL     1      -3.105   4.089 -23.540  0.00  0.00    -0.421 OA
ATOM      5  C   UNL     1      -2.144   3.358 -23.059  0.00  0.00    +0.157 A 
ATOM      6  C   UNL     1      -2.186   2.958 -21.823  0.00  0.00    +0.102 A 
ATOM      7  C   UNL     1      -1.224   2.227 -21.343  0.00  0.00    +0.138 A 
ATOM      8  C   UNL     1      -0.220   1.896 -22.099  0.00  0.00    +0.041 A 
ATOM      9  C   UNL     1      -0.178   2.295 -23.336  0.00  0.00    +0.135 A 
ATOM     10  O   UNL     1      -4.024   5.220 -25.256  0.00  0.00    -0.245 OA
ATOM     11  C   UNL     1      -1.139   3.026 -23.816  0.00  0.00    +0.063 A 
ENDROOT
BRANCH   9  12
ATOM     12  O   UNL     1       0.826   1.963 -24.092  0.00  0.00    -0.506 OA
ATOM     13  H   UNL     1       1.081   2.518 -24.802  0.00  0.00    +0.292 HD
ENDBRANCH   9  12
BRANCH   6  14
ATOM     14  C   UNL     1      -3.190   3.290 -21.067  0.00  0.00    +0.173 C 
ATOM     15  O   UNL     1      -3.051   4.226 -20.175  0.00  0.00    -0.292 OA
BRANCH  14  16
ATOM     16  C   UNL     1      -4.334   2.687 -21.203  0.00  0.00    +0.057 C 
ATOM     17  C   UNL     1      -4.491   1.480 -20.747  0.00  0.00    +0.016 C 
BRANCH  16  18
ATOM     18  C   UNL     1      -5.320   3.292 -21.796  0.00  0.00    +0.008 C 
ATOM     19  C   UNL     1      -6.496   2.736 -21.829  0.00  0.00    +0.004 C 
ENDBRANCH  16  18
ENDBRANCH  14  16
ENDBRANCH   6  14
BRANCH   7  20
ATOM     20  O   UNL     1      -1.267   1.828 -20.107  0.00  0.00    -0.506 OA
ATOM     21  H   UNL     1      -0.589   1.278 -19.769  0.00  0.00    +0.292 HD
ENDBRANCH   7  20
BRANCH   8  22
ATOM     22  C   UNL     1       0.742   1.164 -21.619  0.00  0.00    +0.069 C 
BRANCH  22  23
ATOM     23  C   UNL     1       1.790   1.729 -21.099  0.00  0.00    -0.023 C 
ATOM     24  C   UNL     1       2.979   1.307 -21.413  0.00  0.00    -0.076 C 
ATOM     25  C   UNL     1       3.119   0.319 -22.247  0.00  0.00    +0.039 C 
BRANCH  24  26
ATOM     26  C   UNL     1       4.028   1.872 -20.893  0.00  0.00    +0.034 C 
BRANCH  26  27
ATOM     27  C   UNL     1       5.149   1.893 -21.552  0.00  0.00    +0.031 C 
BRANCH  27  28
ATOM     28  C   UNL     1       5.798   3.010 -21.694  0.00  0.00    -0.028 C 
ATOM     29  C   UNL     1       5.708   3.678 -22.806  0.00  0.00    -0.080 C 
ATOM     30  C   UNL     1       4.968   3.228 -23.775  0.00  0.00    +0.038 C 
ATOM     31  C   UNL     1       6.357   4.795 -22.947  0.00  0.00    +0.038 C 
ENDBRANCH  27  28
ENDBRANCH  26  27
ENDBRANCH  24  26
ENDBRANCH  22  23
ENDBRANCH   8  22
BRANCH   1  32
ATOM     32  C   UNL     1      -0.093   3.094 -25.808  0.00  0.00    +0.036 C 
BRANCH  32  34
ATOM     33  C   UNL     1       1.576   4.530 -25.334  0.00  0.00    +0.004 C 
ATOM     34  C   UNL     1       0.758   3.999 -26.193  0.00  0.00    +0.001 C 
ENDBRANCH  32  34
ENDBRANCH   1  32
TORSDOF 12
ENDMDL
MODEL 7
REMARK VINA RESULT:    -5.563      3.931      7.975
REMARK INTER + INTRA:         -10.286
REMARK INTER:                  -8.928
REMARK INTRA:                  -1.358
REMARK UNBOUND:                -1.147
REMARK  Name = ZINC000014718751
REMARK  18 active torsions:
REMARK  status: ('A' for Active; 'I' for Inactive)
REMARK    1  A    between atoms: C_1  and  C_2
REMARK    2  A    between atoms: C_2  and  C_3
REMARK    3  A    between atoms: C_3  and  C_4
REMARK    4  A    between atoms: C_10  and  C_11
REMARK    5  A    between atoms: C_11  and  C_13
REMARK    6  A    between atoms: C_13  and  C_14
REMARK    7  A    between atoms: C_13  and  C_15
REMARK    8  A    between atoms: C_15  and  C_16
REMARK    9  A    between atoms: C_17  and  O_18
REMARK   10  A    between atoms: C_19  and  C_20
REMARK   11  A    between atoms: C_20  and  C_21
REMARK   12  A    between atoms: C_22  and  C_23
REMARK   13  A    between atoms: C_22  and  C_24
REMARK   14  A    between atoms: C_24  and  C_25
REMARK   15  A    between atoms: C_25  and  C_26
REMARK   16  A    between atoms: C_27  and  C_28
REMARK   17  A    between atoms: C_27  and  C_29
REMARK   18  A    between atoms: C_30  and  O_31
REMARK                            x       y       z     vdW  Elec       q    Type
REMARK                         _______ _______ _______ _____ _____    ______ ____
ROOT
ATOM      1  C   UNL     1       7.191   8.103 -21.935  0.00  0.00    -0.026 A 
ATOM      2  C   UNL     1       6.284   8.490 -21.089  0.00  0.00    +0.096 A 
ATOM      3  C   UNL     1       5.289   7.705 -20.797  0.00  0.00    +0.338 A 
ATOM      4  O   UNL     1       5.203   6.532 -21.352  0.00  0.00    -0.421 OA
ATOM      5  C   UNL     1       6.110   6.145 -22.198  0.00  0.00    +0.157 A 
ATOM      6  C   UNL     1       6.024   4.972 -22.753  0.00  0.00    +0.102 A 
ATOM      7  C   UNL     1       6.932   4.585 -23.599  0.00  0.00    +0.138 A 
ATOM      8  C   UNL     1       7.926   5.370 -23.891  0.00  0.00    +0.041 A 
ATOM      9  C   UNL     1       8.013   6.543 -23.336  0.00  0.00    +0.135 A 
ATOM     10  O   UNL     1       4.382   8.092 -19.951  0.00  0.00    -0.245 OA
ATOM     11  C   UNL     1       7.105   6.930 -22.490  0.00  0.00    +0.063 A 
ENDROOT
BRANCH   9  12
ATOM     12  O   UNL     1       9.007   7.328 -23.628  0.00  0.00    -0.506 OA
ATOM     13  H   UNL     1       9.260   8.005 -23.031  0.00  0.00    +0.292 HD
ENDBRANCH   9  12
BRANCH   6  14
ATOM     14  C   UNL     1       5.029   4.187 -22.461  0.00  0.00    +0.173 C 
ATOM     15  O   UNL     1       5.138   3.336 -21.485  0.00  0.00    -0.292 OA
BRANCH  14  16
ATOM     16  C   UNL     1       3.927   4.253 -23.146  0.00  0.00    +0.057 C 
ATOM     17  C   UNL     1       3.202   5.332 -23.110  0.00  0.00    +0.016 C 
BRANCH  16  18
ATOM     18  C   UNL     1       3.547   3.240 -23.866  0.00  0.00    +0.008 C 
ATOM     19  C   UNL     1       2.295   3.106 -24.190  0.00  0.00    +0.004 C 
ENDBRANCH  16  18
ENDBRANCH  14  16
ENDBRANCH   6  14
BRANCH   7  20
ATOM     20  O   UNL     1       6.845   3.412 -24.154  0.00  0.00    -0.506 OA
ATOM     21  H   UNL     1       6.014   3.093 -24.445  0.00  0.00    +0.292 HD
ENDBRANCH   7  20
BRANCH   8  22
ATOM     22  C   UNL     1       8.834   4.983 -24.737  0.00  0.00    +0.069 C 
BRANCH  22  23
ATOM     23  C   UNL     1       8.845   5.465 -25.944  0.00  0.00    -0.023 C 
ATOM     24  C   UNL     1       8.958   4.665 -26.962  0.00  0.00    -0.076 C 
ATOM     25  C   UNL     1       9.060   3.383 -26.774  0.00  0.00    +0.039 C 
BRANCH  24  26
ATOM     26  C   UNL     1       8.969   5.147 -28.170  0.00  0.00    +0.034 C 
BRANCH  26  27
ATOM     27  C   UNL     1       8.636   6.386 -28.379  0.00  0.00    +0.031 C 
BRANCH  27  28
ATOM     28  C   UNL     1       7.496   6.666 -28.938  0.00  0.00    -0.028 C 
ATOM     29  C   UNL     1       6.876   7.767 -28.633  0.00  0.00    -0.080 C 
ATOM     30  C   UNL     1       7.395   8.588 -27.769  0.00  0.00    +0.038 C 
ATOM     31  C   UNL     1       5.736   8.048 -29.193  0.00  0.00    +0.038 C 
ENDBRANCH  27  28
ENDBRANCH  26  27
ENDBRANCH  24  26
ENDBRANCH  22  23
ENDBRANCH   8  22
BRANCH   1  32
ATOM     32  C   UNL     1       8.185   8.888 -22.227  0.00  0.00    +0.036 C 
BRANCH  32  34
ATOM     33  C   UNL     1       8.231  10.957 -23.114  0.00  0.00    +0.004 C 
ATOM     34  C   UNL     1       8.060  10.175 -22.090  0.00  0.00    +0.001 C 
ENDBRANCH  32  34
ENDBRANCH   1  32
TORSDOF 12
ENDMDL
MODEL 8
REMARK VINA RESULT:    -5.473      1.446      2.039
REMARK INTER + INTRA:         -10.138
REMARK INTER:                 -10.810
REMARK INTRA:                   0.672
REMARK UNBOUND:                -1.147
REMARK  Name = ZINC000014718751
REMARK  18 active torsions:
REMARK  status: ('A' for Active; 'I' for Inactive)
REMARK    1  A    between atoms: C_1  and  C_2
REMARK    2  A    between atoms: C_2  and  C_3
REMARK    3  A    between atoms: C_3  and  C_4
REMARK    4  A    between atoms: C_10  and  C_11
REMARK    5  A    between atoms: C_11  and  C_13
REMARK    6  A    between atoms: C_13  and  C_14
REMARK    7  A    between atoms: C_13  and  C_15
REMARK    8  A    between atoms: C_15  and  C_16
REMARK    9  A    between atoms: C_17  and  O_18
REMARK   10  A    between atoms: C_19  and  C_20
REMARK   11  A    between atoms: C_20  and  C_21
REMARK   12  A    between atoms: C_22  and  C_23
REMARK   13  A    between atoms: C_22  and  C_24
REMARK   14  A    between atoms: C_24  and  C_25
REMARK   15  A    between atoms: C_25  and  C_26
REMARK   16  A    between atoms: C_27  and  C_28
REMARK   17  A    between atoms: C_27  and  C_29
REMARK   18  A    between atoms: C_30  and  O_31
REMARK                            x       y       z     vdW  Elec       q    Type
REMARK                         _______ _______ _______ _____ _____    ______ ____
ROOT
ATOM      1  C   UNL     1       5.187   5.121 -22.828  0.00  0.00    -0.026 A 
ATOM      2  C   UNL     1       6.304   4.470 -22.957  0.00  0.00    +0.096 A 
ATOM      3  C   UNL     1       6.290   3.212 -23.287  0.00  0.00    +0.338 A 
ATOM      4  O   UNL     1       5.157   2.607 -23.488  0.00  0.00    -0.421 OA
ATOM      5  C   UNL     1       4.040   3.258 -23.359  0.00  0.00    +0.157 A 
ATOM      6  C   UNL     1       2.907   2.652 -23.560  0.00  0.00    +0.102 A 
ATOM      7  C   UNL     1       1.790   3.303 -23.431  0.00  0.00    +0.138 A 
ATOM      8  C   UNL     1       1.804   4.560 -23.101  0.00  0.00    +0.041 A 
ATOM      9  C   UNL     1       2.937   5.166 -22.900  0.00  0.00    +0.135 A 
ATOM     10  O   UNL     1       7.407   2.561 -23.416  0.00  0.00    -0.245 OA
ATOM     11  C   UNL     1       4.054   4.515 -23.029  0.00  0.00    +0.063 A 
ENDROOT
BRANCH   9  12
ATOM     12  O   UNL     1       2.952   6.424 -22.569  0.00  0.00    -0.506 OA
ATOM     13  H   UNL     1       3.661   6.971 -22.842  0.00  0.00    +0.292 HD
ENDBRANCH   9  12
BRANCH   6  14
ATOM     14  C   UNL     1       2.892   1.394 -23.891  0.00  0.00    +0.173 C 
ATOM     15  O   UNL     1       3.027   0.480 -22.976  0.00  0.00    -0.292 OA
BRANCH  14  16
ATOM     16  C   UNL     1       2.744   1.051 -25.136  0.00  0.00    +0.057 C 
ATOM     17  C   UNL     1       2.153   1.857 -25.967  0.00  0.00    +0.016 C 
BRANCH  16  18
ATOM     18  C   UNL     1       3.187  -0.099 -25.550  0.00  0.00    +0.008 C 
ATOM     19  C   UNL     1       2.838  -0.546 -26.721  0.00  0.00    +0.004 C 
ENDBRANCH  16  18
ENDBRANCH  14  16
ENDBRANCH   6  14
BRANCH   7  20
ATOM     20  O   UNL     1       0.657   2.697 -23.633  0.00  0.00    -0.506 OA
ATOM     21  H   UNL     1       0.360   2.538 -24.507  0.00  0.00    +0.292 HD
ENDBRANCH   7  20
BRANCH   8  22
ATOM     22  C   UNL     1       0.687   5.212 -22.972  0.00  0.00    +0.069 C 
BRANCH  22  23
ATOM     23  C   UNL     1      -0.344   4.885 -23.693  0.00  0.00    -0.023 C 
ATOM     24  C   UNL     1      -1.517   4.784 -23.142  0.00  0.00    -0.076 C 
ATOM     25  C   UNL     1      -1.660   5.010 -21.870  0.00  0.00    +0.039 C 
BRANCH  24  26
ATOM     26  C   UNL     1      -2.548   4.456 -23.864  0.00  0.00    +0.034 C 
BRANCH  26  27
ATOM     27  C   UNL     1      -3.195   3.357 -23.612  0.00  0.00    +0.031 C 
BRANCH  27  28
ATOM     28  C   UNL     1      -4.442   3.406 -23.250  0.00  0.00    -0.028 C 
ATOM     29  C   UNL     1      -4.801   2.941 -22.090  0.00  0.00    -0.080 C 
ATOM     30  C   UNL     1      -3.912   2.427 -21.292  0.00  0.00    +0.038 C 
ATOM     31  C   UNL     1      -6.049   2.990 -21.727  0.00  0.00    +0.038 C 
ENDBRANCH  27  28
ENDBRANCH  26  27
ENDBRANCH  24  26
ENDBRANCH  22  23
ENDBRANCH   8  22
BRANCH   1  32
ATOM     32  C   UNL     1       5.202   6.378 -22.497  0.00  0.00    +0.036 C 
BRANCH  32  34
ATOM     33  C   UNL     1       5.901   7.825 -20.920  0.00  0.00    +0.004 C 
ATOM     34  C   UNL     1       6.145   6.837 -21.729  0.00  0.00    +0.001 C 
ENDBRANCH  32  34
ENDBRANCH   1  32
TORSDOF 12
ENDMDL
