MODEL 1
REMARK VINA RESULT:   -10.684      0.000      0.000
REMARK INTER + INTRA:         -10.996
REMARK INTER:                 -10.996
REMARK INTRA:                   0.000
REMARK UNBOUND:                 0.000
REMARK  Name = ZINC000096316368
REMARK  1 active torsions:
REMARK  status: ('A' for Active; 'I' for Inactive)
REMARK    1  A    between atoms: C_19  and  O_20
REMARK                            x       y       z     vdW  Elec       q    Type
REMARK                         _______ _______ _______ _____ _____    ______ ____
ROOT
ATOM      1  O   UNL     1       1.213   3.885 -26.001  0.00  0.00    -0.279 OA
ATOM      2  C   UNL     1       0.238   3.773 -25.397  0.00  0.00    +0.328 C 
ATOM      3  N   UNL     1      -0.566   3.341 -24.122  0.00  0.00    -0.300 N 
ATOM      4  C   UNL     1      -1.272   3.050 -23.204  0.00  0.00    +0.109 C 
ATOM      5  C   UNL     1      -0.928   2.533 -22.144  0.00  0.00    +0.031 C 
ATOM      6  C   UNL     1      -0.013   2.324 -21.992  0.00  0.00    +0.009 C 
ATOM      7  C   UNL     1       0.429   1.792 -20.930  0.00  0.00    +0.086 C 
ATOM      8  C   UNL     1       1.700   1.544 -20.816  0.00  0.00    +0.134 C 
ATOM      9  C   UNL     1       2.546   1.839 -21.792  0.00  0.00    +0.075 C 
ATOM     10  C   UNL     1       2.125   2.391 -22.905  0.00  0.00    +0.014 C 
ATOM     11  O   UNL     1       2.063   0.989 -19.676  0.00  0.00    -0.297 OA
ATOM     12  C   UNL     1      -1.617   2.743 -22.378  0.00  0.00    -0.034 A 
ATOM     13  C   UNL     1      -2.419   2.442 -21.406  0.00  0.00    +0.051 A 
ATOM     14  C   UNL     1      -3.673   2.686 -21.517  0.00  0.00    +0.131 A 
ATOM     15  C   UNL     1      -4.136   3.230 -22.597  0.00  0.00    +0.059 A 
ATOM     16 BR   UNL     1      -5.410   3.410 -22.556  0.00  0.00    -0.047 Br
ATOM     17  C   UNL     1      -3.330   3.532 -23.575  0.00  0.00    +0.023 A 
ATOM     18  C   UNL     1      -2.073   3.293 -23.476  0.00  0.00    -0.041 A 
ATOM     19  C   UNL     1      -1.289   3.560 -24.365  0.00  0.00    +0.058 C 
ATOM     20  C   UNL     1       0.894   2.650 -23.061  0.00  0.00    +0.021 C 
ATOM     21  C   UNL     1       0.298   3.216 -24.144  0.00  0.00    +0.084 C 
ENDROOT
BRANCH  14  22
ATOM     22  O   UNL     1      -4.411   2.340 -20.464  0.00  0.00    -0.506 OA
ATOM     23  H   UNL     1      -4.121   2.553 -19.599  0.00  0.00    +0.292 HD
ENDBRANCH  14  22
TORSDOF 1
ENDMDL
MODEL 2
REMARK VINA RESULT:   -10.354      1.291      3.411
REMARK INTER + INTRA:         -10.656
REMARK INTER:                 -10.656
REMARK INTRA:                   0.000
REMARK UNBOUND:                 0.000
REMARK  Name = ZINC000096316368
REMARK  1 active torsions:
REMARK  status: ('A' for Active; 'I' for Inactive)
REMARK    1  A    between atoms: C_19  and  O_20
REMARK                            x       y       z     vdW  Elec       q    Type
REMARK                         _______ _______ _______ _____ _____    ______ ____
ROOT
ATOM      1  O   UNL     1       1.494   1.185 -20.293  0.00  0.00    -0.279 OA
ATOM      2  C   UNL     1       0.436   1.510 -20.614  0.00  0.00    +0.328 C 
ATOM      3  N   UNL     1      -0.569   2.187 -21.609  0.00  0.00    -0.300 N 
ATOM      4  C   UNL     1      -1.416   2.676 -22.294  0.00  0.00    +0.109 C 
ATOM      5  C   UNL     1      -1.260   3.230 -23.379  0.00  0.00    +0.031 C 
ATOM      6  C   UNL     1      -0.389   3.301 -23.755  0.00  0.00    +0.009 C 
ATOM      7  C   UNL     1      -0.137   3.856 -24.866  0.00  0.00    +0.086 C 
ATOM      8  C   UNL     1       1.089   3.905 -25.297  0.00  0.00    +0.134 C 
ATOM      9  C   UNL     1       2.083   3.385 -24.593  0.00  0.00    +0.075 C 
ATOM     10  C   UNL     1       1.860   2.804 -23.439  0.00  0.00    +0.014 C 
ATOM     11  O   UNL     1       1.250   4.501 -26.463  0.00  0.00    -0.297 OA
ATOM     12  C   UNL     1      -1.895   3.112 -22.983  0.00  0.00    -0.034 A 
ATOM     13  C   UNL     1      -2.845   3.630 -23.695  0.00  0.00    +0.051 A 
ATOM     14  C   UNL     1      -4.055   3.583 -23.272  0.00  0.00    +0.131 A 
ATOM     15  C   UNL     1      -4.325   3.019 -22.138  0.00  0.00    +0.059 A 
ATOM     16 BR   UNL     1      -5.579   3.052 -21.852  0.00  0.00    -0.047 Br
ATOM     17  C   UNL     1      -3.369   2.498 -21.422  0.00  0.00    +0.023 A 
ATOM     18  C   UNL     1      -2.155   2.540 -21.835  0.00  0.00    -0.041 A 
ATOM     19  C   UNL     1      -1.236   2.066 -21.197  0.00  0.00    +0.058 C 
ATOM     20  C   UNL     1       0.682   2.732 -22.980  0.00  0.00    +0.021 C 
ATOM     21  C   UNL     1       0.282   2.168 -21.809  0.00  0.00    +0.084 C 
ENDROOT
BRANCH  14  22
ATOM     22  O   UNL     1      -4.957   4.142 -24.076  0.00  0.00    -0.506 OA
ATOM     23  H   UNL     1      -5.866   3.940 -23.972  0.00  0.00    +0.292 HD
ENDBRANCH  14  22
TORSDOF 1
ENDMDL
MODEL 3
REMARK VINA RESULT:   -10.261      2.405      5.609
REMARK INTER + INTRA:         -10.561
REMARK INTER:                 -10.561
REMARK INTRA:                   0.000
REMARK UNBOUND:                 0.000
REMARK  Name = ZINC000096316368
REMARK  1 active torsions:
REMARK  status: ('A' for Active; 'I' for Inactive)
REMARK    1  A    between atoms: C_19  and  O_20
REMARK                            x       y       z     vdW  Elec       q    Type
REMARK                         _______ _______ _______ _____ _____    ______ ____
ROOT
ATOM      1  O   UNL     1      -4.859   2.718 -20.780  0.00  0.00    -0.279 OA
ATOM      2  C   UNL     1      -3.742   2.549 -21.009  0.00  0.00    +0.328 C 
ATOM      3  N   UNL     1      -2.510   2.523 -21.979  0.00  0.00    -0.300 N 
ATOM      4  C   UNL     1      -1.509   2.471 -22.629  0.00  0.00    +0.109 C 
ATOM      5  C   UNL     1      -1.394   2.715 -23.827  0.00  0.00    +0.031 C 
ATOM      6  C   UNL     1      -2.155   2.977 -24.333  0.00  0.00    +0.009 C 
ATOM      7  C   UNL     1      -2.126   3.248 -25.572  0.00  0.00    +0.086 C 
ATOM      8  C   UNL     1      -3.222   3.598 -26.179  0.00  0.00    +0.134 C 
ATOM      9  C   UNL     1      -4.371   3.679 -25.524  0.00  0.00    +0.075 C 
ATOM     10  C   UNL     1      -4.438   3.407 -24.243  0.00  0.00    +0.014 C 
ATOM     11  O   UNL     1      -3.091   3.859 -27.465  0.00  0.00    -0.297 OA
ATOM     12  C   UNL     1      -0.870   2.500 -23.325  0.00  0.00    -0.034 A 
ATOM     13  C   UNL     1       0.239   2.430 -23.991  0.00  0.00    +0.051 A 
ATOM     14  C   UNL     1       1.320   2.085 -23.395  0.00  0.00    +0.131 A 
ATOM     15  C   UNL     1       1.304   1.807 -22.130  0.00  0.00    +0.059 A 
ATOM     16 BR   UNL     1       2.463   1.478 -21.679  0.00  0.00    -0.047 Br
ATOM     17  C   UNL     1       0.189   1.876 -21.459  0.00  0.00    +0.023 A 
ATOM     18  C   UNL     1      -0.899   2.221 -22.046  0.00  0.00    -0.041 A 
ATOM     19  C   UNL     1      -1.958   2.298 -21.455  0.00  0.00    +0.058 C 
ATOM     20  C   UNL     1      -3.396   3.061 -23.611  0.00  0.00    +0.021 C 
ATOM     21  C   UNL     1      -3.295   2.747 -22.292  0.00  0.00    +0.084 C 
ENDROOT
BRANCH  14  22
ATOM     22  O   UNL     1       2.404   2.044 -24.168  0.00  0.00    -0.506 OA
ATOM     23  H   UNL     1       2.547   2.711 -24.809  0.00  0.00    +0.292 HD
ENDBRANCH  14  22
TORSDOF 1
ENDMDL
MODEL 4
REMARK VINA RESULT:   -10.130      2.142      4.546
REMARK INTER + INTRA:         -10.426
REMARK INTER:                 -10.426
REMARK INTRA:                   0.000
REMARK UNBOUND:                 0.000
REMARK  Name = ZINC000096316368
REMARK  1 active torsions:
REMARK  status: ('A' for Active; 'I' for Inactive)
REMARK    1  A    between atoms: C_19  and  O_20
REMARK                            x       y       z     vdW  Elec       q    Type
REMARK                         _______ _______ _______ _____ _____    ______ ____
ROOT
ATOM      1  O   UNL     1      -1.808   3.736 -26.262  0.00  0.00    -0.279 OA
ATOM      2  C   UNL     1      -1.043   3.373 -25.480  0.00  0.00    +0.328 C 
ATOM      3  N   UNL     1      -0.648   2.885 -24.043  0.00  0.00    -0.300 N 
ATOM      4  C   UNL     1      -0.241   2.506 -22.986  0.00  0.00    +0.109 C 
ATOM      5  C   UNL     1      -0.897   2.327 -21.964  0.00  0.00    +0.031 C 
ATOM      6  C   UNL     1      -1.833   2.494 -21.965  0.00  0.00    +0.009 C 
ATOM      7  C   UNL     1      -2.586   2.336 -20.957  0.00  0.00    +0.086 C 
ATOM      8  C   UNL     1      -3.857   2.593 -21.056  0.00  0.00    +0.134 C 
ATOM      9  C   UNL     1      -4.382   3.017 -22.196  0.00  0.00    +0.075 C 
ATOM     10  C   UNL     1      -3.635   3.192 -23.260  0.00  0.00    +0.014 C 
ATOM     11  O   UNL     1      -4.555   2.398 -19.955  0.00  0.00    -0.297 OA
ATOM     12  C   UNL     1      -0.156   2.230 -22.086  0.00  0.00    -0.034 A 
ATOM     13  C   UNL     1       0.328   1.816 -20.958  0.00  0.00    +0.051 A 
ATOM     14  C   UNL     1       1.581   1.563 -20.857  0.00  0.00    +0.131 A 
ATOM     15  C   UNL     1       2.359   1.720 -21.880  0.00  0.00    +0.059 A 
ATOM     16 BR   UNL     1       3.585   1.426 -21.622  0.00  0.00    -0.047 Br
ATOM     17  C   UNL     1       1.873   2.136 -23.015  0.00  0.00    +0.023 A 
ATOM     18  C   UNL     1       0.621   2.393 -23.127  0.00  0.00    -0.041 A 
ATOM     19  C   UNL     1       0.129   2.783 -24.168  0.00  0.00    +0.058 C 
ATOM     20  C   UNL     1      -2.391   2.955 -23.209  0.00  0.00    +0.021 C 
ATOM     21  C   UNL     1      -1.482   3.084 -24.212  0.00  0.00    +0.084 C 
ENDROOT
BRANCH  14  22
ATOM     22  O   UNL     1       1.978   1.143 -19.657  0.00  0.00    -0.506 OA
ATOM     23  H   UNL     1       2.627   0.471 -19.587  0.00  0.00    +0.292 HD
ENDBRANCH  14  22
TORSDOF 1
ENDMDL
MODEL 5
REMARK VINA RESULT:    -9.990      2.385      4.668
REMARK INTER + INTRA:         -10.282
REMARK INTER:                 -10.282
REMARK INTRA:                   0.000
REMARK UNBOUND:                 0.000
REMARK  Name = ZINC000096316368
REMARK  1 active torsions:
REMARK  status: ('A' for Active; 'I' for Inactive)
REMARK    1  A    between atoms: C_19  and  O_20
REMARK                            x       y       z     vdW  Elec       q    Type
REMARK                         _______ _______ _______ _____ _____    ______ ____
ROOT
ATOM      1  O   UNL     1      -4.051   4.199 -26.534  0.00  0.00    -0.279 OA
ATOM      2  C   UNL     1      -3.024   3.916 -26.096  0.00  0.00    +0.328 C 
ATOM      3  N   UNL     1      -2.092   3.459 -24.920  0.00  0.00    -0.300 N 
ATOM      4  C   UNL     1      -1.296   3.115 -24.099  0.00  0.00    +0.109 C 
ATOM      5  C   UNL     1      -1.520   2.847 -22.922  0.00  0.00    +0.031 C 
ATOM      6  C   UNL     1      -2.406   2.905 -22.582  0.00  0.00    +0.009 C 
ATOM      7  C   UNL     1      -2.726   2.647 -21.382  0.00  0.00    +0.086 C 
ATOM      8  C   UNL     1      -3.967   2.756 -21.010  0.00  0.00    +0.134 C 
ATOM      9  C   UNL     1      -4.908   3.132 -21.865  0.00  0.00    +0.075 C 
ATOM     10  C   UNL     1      -4.613   3.406 -23.113  0.00  0.00    +0.014 C 
ATOM     11  O   UNL     1      -4.201   2.466 -19.745  0.00  0.00    -0.297 OA
ATOM     12  C   UNL     1      -0.866   2.838 -23.303  0.00  0.00    -0.034 A 
ATOM     13  C   UNL     1       0.030   2.468 -22.445  0.00  0.00    +0.051 A 
ATOM     14  C   UNL     1       1.255   2.361 -22.809  0.00  0.00    +0.131 A 
ATOM     15  C   UNL     1       1.595   2.622 -24.031  0.00  0.00    +0.059 A 
ATOM     16 BR   UNL     1       2.855   2.468 -24.241  0.00  0.00    -0.047 Br
ATOM     17  C   UNL     1       0.693   2.994 -24.896  0.00  0.00    +0.023 A 
ATOM     18  C   UNL     1      -0.535   3.105 -24.542  0.00  0.00    -0.041 A 
ATOM     19  C   UNL     1      -1.405   3.449 -25.318  0.00  0.00    +0.058 C 
ATOM     20  C   UNL     1      -3.417   3.314 -23.520  0.00  0.00    +0.021 C 
ATOM     21  C   UNL     1      -2.947   3.561 -24.772  0.00  0.00    +0.084 C 
ENDROOT
BRANCH  14  22
ATOM     22  O   UNL     1       2.098   1.975 -21.853  0.00  0.00    -0.506 OA
ATOM     23  H   UNL     1       2.634   1.217 -21.979  0.00  0.00    +0.292 HD
ENDBRANCH  14  22
TORSDOF 1
ENDMDL
MODEL 6
REMARK VINA RESULT:    -8.847      4.135      6.838
REMARK INTER + INTRA:          -9.105
REMARK INTER:                  -9.105
REMARK INTRA:                   0.000
REMARK UNBOUND:                 0.000
REMARK  Name = ZINC000096316368
REMARK  1 active torsions:
REMARK  status: ('A' for Active; 'I' for Inactive)
REMARK    1  A    between atoms: C_19  and  O_20
REMARK                            x       y       z     vdW  Elec       q    Type
REMARK                         _______ _______ _______ _____ _____    ______ ____
ROOT
ATOM      1  O   UNL     1       2.308  -0.478 -22.878  0.00  0.00    -0.279 OA
ATOM      2  C   UNL     1       3.083   0.373 -22.833  0.00  0.00    +0.328 C 
ATOM      3  N   UNL     1       3.490   1.887 -22.869  0.00  0.00    -0.300 N 
ATOM      4  C   UNL     1       3.907   3.007 -22.881  0.00  0.00    +0.109 C 
ATOM      5  C   UNL     1       3.251   4.036 -23.018  0.00  0.00    +0.031 C 
ATOM      6  C   UNL     1       2.308   3.988 -23.128  0.00  0.00    +0.009 C 
ATOM      7  C   UNL     1       1.556   4.998 -23.275  0.00  0.00    +0.086 C 
ATOM      8  C   UNL     1       0.275   4.830 -23.419  0.00  0.00    +0.134 C 
ATOM      9  C   UNL     1      -0.262   3.618 -23.415  0.00  0.00    +0.075 C 
ATOM     10  C   UNL     1       0.485   2.551 -23.266  0.00  0.00    +0.014 C 
ATOM     11  O   UNL     1      -0.423   5.940 -23.564  0.00  0.00    -0.297 OA
ATOM     12  C   UNL     1       3.997   3.947 -22.923  0.00  0.00    -0.034 A 
ATOM     13  C   UNL     1       4.492   5.144 -22.931  0.00  0.00    +0.051 A 
ATOM     14  C   UNL     1       5.755   5.312 -22.789  0.00  0.00    +0.131 A 
ATOM     15  C   UNL     1       6.534   4.288 -22.638  0.00  0.00    +0.059 A 
ATOM     16 BR   UNL     1       7.770   4.619 -22.509  0.00  0.00    -0.047 Br
ATOM     17  C   UNL     1       6.037   3.084 -22.630  0.00  0.00    +0.023 A 
ATOM     18  C   UNL     1       4.774   2.904 -22.772  0.00  0.00    -0.041 A 
ATOM     19  C   UNL     1       4.272   1.797 -22.770  0.00  0.00    +0.058 C 
ATOM     20  C   UNL     1       1.739   2.666 -23.122  0.00  0.00    +0.021 C 
ATOM     21  C   UNL     1       2.648   1.669 -22.957  0.00  0.00    +0.084 C 
ENDROOT
BRANCH  14  22
ATOM     22  O   UNL     1       6.163   6.580 -22.811  0.00  0.00    -0.506 OA
ATOM     23  H   UNL     1       5.718   7.224 -22.298  0.00  0.00    +0.292 HD
ENDBRANCH  14  22
TORSDOF 1
ENDMDL
MODEL 7
REMARK VINA RESULT:    -8.693      3.098      5.414
REMARK INTER + INTRA:          -8.947
REMARK INTER:                  -8.947
REMARK INTRA:                   0.000
REMARK UNBOUND:                 0.000
REMARK  Name = ZINC000096316368
REMARK  1 active torsions:
REMARK  status: ('A' for Active; 'I' for Inactive)
REMARK    1  A    between atoms: C_19  and  O_20
REMARK                            x       y       z     vdW  Elec       q    Type
REMARK                         _______ _______ _______ _____ _____    ______ ____
ROOT
ATOM      1  O   UNL     1       4.987  -0.166 -20.255  0.00  0.00    -0.279 OA
ATOM      2  C   UNL     1       4.114   0.385 -20.767  0.00  0.00    +0.328 C 
ATOM      3  N   UNL     1       3.519   1.563 -21.614  0.00  0.00    -0.300 N 
ATOM      4  C   UNL     1       2.964   2.410 -22.248  0.00  0.00    +0.109 C 
ATOM      5  C   UNL     1       3.477   3.399 -22.764  0.00  0.00    +0.031 C 
ATOM      6  C   UNL     1       4.411   3.550 -22.676  0.00  0.00    +0.009 C 
ATOM      7  C   UNL     1       5.021   4.544 -23.175  0.00  0.00    +0.086 C 
ATOM      8  C   UNL     1       6.304   4.664 -23.001  0.00  0.00    +0.134 C 
ATOM      9  C   UNL     1       6.989   3.765 -22.309  0.00  0.00    +0.075 C 
ATOM     10  C   UNL     1       6.391   2.725 -21.779  0.00  0.00    +0.014 C 
ATOM     11  O   UNL     1       6.848   5.729 -23.557  0.00  0.00    -0.297 OA
ATOM     12  C   UNL     1       2.754   3.174 -22.764  0.00  0.00    -0.034 A 
ATOM     13  C   UNL     1       2.113   4.069 -23.445  0.00  0.00    +0.051 A 
ATOM     14  C   UNL     1       0.848   3.953 -23.619  0.00  0.00    +0.131 A 
ATOM     15  C   UNL     1       0.213   2.943 -23.114  0.00  0.00    +0.059 A 
ATOM     16 BR   UNL     1      -1.047   2.967 -23.374  0.00  0.00    -0.047 Br
ATOM     17  C   UNL     1       0.858   2.041 -22.429  0.00  0.00    +0.023 A 
ATOM     18  C   UNL     1       2.124   2.148 -22.249  0.00  0.00    -0.041 A 
ATOM     19  C   UNL     1       2.761   1.329 -21.616  0.00  0.00    +0.058 C 
ATOM     20  C   UNL     1       5.142   2.566 -21.923  0.00  0.00    +0.021 C 
ATOM     21  C   UNL     1       4.375   1.552 -21.441  0.00  0.00    +0.084 C 
ENDROOT
BRANCH  14  22
ATOM     22  O   UNL     1       0.282   4.925 -24.333  0.00  0.00    -0.506 OA
ATOM     23  H   UNL     1       0.515   5.818 -24.175  0.00  0.00    +0.292 HD
ENDBRANCH  14  22
TORSDOF 1
ENDMDL
MODEL 8
REMARK VINA RESULT:    -8.110      2.409      3.058
REMARK INTER + INTRA:          -8.348
REMARK INTER:                  -8.348
REMARK INTRA:                   0.000
REMARK UNBOUND:                 0.000
REMARK  Name = ZINC000096316368
REMARK  1 active torsions:
REMARK  status: ('A' for Active; 'I' for Inactive)
REMARK    1  A    between atoms: C_19  and  O_20
REMARK                            x       y       z     vdW  Elec       q    Type
REMARK                         _______ _______ _______ _____ _____    ______ ____
ROOT
ATOM      1  O   UNL     1       3.827   6.624 -22.571  0.00  0.00    -0.279 OA
ATOM      2  C   UNL     1       2.801   6.200 -22.881  0.00  0.00    +0.328 C 
ATOM      3  N   UNL     1       1.801   5.017 -23.122  0.00  0.00    -0.300 N 
ATOM      4  C   UNL     1       0.962   4.194 -23.338  0.00  0.00    +0.109 C 
ATOM      5  C   UNL     1       1.072   2.978 -23.206  0.00  0.00    +0.031 C 
ATOM      6  C   UNL     1       1.892   2.605 -22.903  0.00  0.00    +0.009 C 
ATOM      7  C   UNL     1       2.092   1.364 -22.740  0.00  0.00    +0.086 C 
ATOM      8  C   UNL     1       3.251   0.948 -22.321  0.00  0.00    +0.134 C 
ATOM      9  C   UNL     1       4.230   1.802 -22.060  0.00  0.00    +0.075 C 
ATOM     10  C   UNL     1       4.060   3.093 -22.218  0.00  0.00    +0.014 C 
ATOM     11  O   UNL     1       3.361  -0.358 -22.182  0.00  0.00    -0.297 OA
ATOM     12  C   UNL     1       0.478   3.388 -23.437  0.00  0.00    -0.034 A 
ATOM     13  C   UNL     1      -0.460   2.529 -23.683  0.00  0.00    +0.051 A 
ATOM     14  C   UNL     1      -1.603   2.936 -24.096  0.00  0.00    +0.131 A 
ATOM     15  C   UNL     1      -1.820   4.201 -24.267  0.00  0.00    +0.059 A 
ATOM     16 BR   UNL     1      -3.011   4.450 -24.684  0.00  0.00    -0.047 Br
ATOM     17  C   UNL     1      -0.877   5.066 -24.020  0.00  0.00    +0.023 A 
ATOM     18  C   UNL     1       0.272   4.670 -23.606  0.00  0.00    -0.041 A 
ATOM     19  C   UNL     1       1.177   5.444 -23.364  0.00  0.00    +0.058 C 
ATOM     20  C   UNL     1       2.947   3.542 -22.624  0.00  0.00    +0.021 C 
ATOM     21  C   UNL     1       2.608   4.842 -22.839  0.00  0.00    +0.084 C 
ENDROOT
BRANCH  14  22
ATOM     22  O   UNL     1      -2.499   1.976 -24.320  0.00  0.00    -0.506 OA
ATOM     23  H   UNL     1      -2.216   1.092 -24.445  0.00  0.00    +0.292 HD
ENDBRANCH  14  22
TORSDOF 1
ENDMDL
MODEL 9
REMARK VINA RESULT:    -7.823      4.224      5.735
REMARK INTER + INTRA:          -8.052
REMARK INTER:                  -8.052
REMARK INTRA:                   0.000
REMARK UNBOUND:                 0.000
REMARK  Name = ZINC000096316368
REMARK  1 active torsions:
REMARK  status: ('A' for Active; 'I' for Inactive)
REMARK    1  A    between atoms: C_19  and  O_20
REMARK                            x       y       z     vdW  Elec       q    Type
REMARK                         _______ _______ _______ _____ _____    ______ ____
ROOT
ATOM      1  O   UNL     1       4.489   8.252 -21.648  0.00  0.00    -0.279 OA
ATOM      2  C   UNL     1       3.821   7.427 -22.096  0.00  0.00    +0.328 C 
ATOM      3  N   UNL     1       3.593   5.999 -22.703  0.00  0.00    -0.300 N 
ATOM      4  C   UNL     1       3.309   4.939 -23.175  0.00  0.00    +0.109 C 
ATOM      5  C   UNL     1       4.074   4.006 -23.405  0.00  0.00    +0.031 C 
ATOM      6  C   UNL     1       4.999   4.090 -23.203  0.00  0.00    +0.009 C 
ATOM      7  C   UNL     1       5.857   3.179 -23.408  0.00  0.00    +0.086 C 
ATOM      8  C   UNL     1       7.103   3.387 -23.098  0.00  0.00    +0.134 C 
ATOM      9  C   UNL     1       7.494   4.538 -22.571  0.00  0.00    +0.075 C 
ATOM     10  C   UNL     1       6.635   5.503 -22.346  0.00  0.00    +0.014 C 
ATOM     11  O   UNL     1       7.918   2.381 -23.348  0.00  0.00    -0.297 OA
ATOM     12  C   UNL     1       3.327   4.059 -23.520  0.00  0.00    -0.034 A 
ATOM     13  C   UNL     1       2.976   2.923 -24.034  0.00  0.00    +0.051 A 
ATOM     14  C   UNL     1       1.748   2.715 -24.340  0.00  0.00    +0.131 A 
ATOM     15  C   UNL     1       0.863   3.638 -24.136  0.00  0.00    +0.059 A 
ATOM     16 BR   UNL     1      -0.320   3.279 -24.493  0.00  0.00    -0.047 Br
ATOM     17  C   UNL     1       1.215   4.781 -23.619  0.00  0.00    +0.023 A 
ATOM     18  C   UNL     1       2.441   5.000 -23.309  0.00  0.00    -0.041 A 
ATOM     19  C   UNL     1       2.811   6.052 -22.825  0.00  0.00    +0.058 C 
ATOM     20  C   UNL     1       5.410   5.344 -22.631  0.00  0.00    +0.021 C 
ATOM     21  C   UNL     1       4.399   6.237 -22.463  0.00  0.00    +0.084 C 
ENDROOT
BRANCH  14  22
ATOM     22  O   UNL     1       1.490   1.517 -24.861  0.00  0.00    -0.506 OA
ATOM     23  H   UNL     1       2.191   0.984 -25.180  0.00  0.00    +0.292 HD
ENDBRANCH  14  22
TORSDOF 1
ENDMDL
