MODEL 1
REMARK VINA RESULT:    -8.288      0.000      0.000
REMARK INTER + INTRA:         -10.174
REMARK INTER:                  -9.567
REMARK INTRA:                  -0.607
REMARK UNBOUND:                -0.433
REMARK  Name = ZINC000000388776
REMARK  5 active torsions:
REMARK  status: ('A' for Active; 'I' for Inactive)
REMARK    1  A    between atoms: C_1  and  C_2
REMARK    2  A    between atoms: C_2  and  C_3
REMARK    3  A    between atoms: C_4  and  C_5
REMARK    4  A    between atoms: C_5  and  O_6
REMARK    5  A    between atoms: O_6  and  C_7
REMARK                            x       y       z     vdW  Elec       q    Type
REMARK                         _______ _______ _______ _____ _____    ______ ____
ROOT
ATOM      1  C   UNL     1      -0.268   2.126 -23.044  0.00  0.00    +0.124 A 
ATOM      2  C   UNL     1      -0.255   1.994 -21.750  0.00  0.00    +0.046 A 
ATOM      3  C   UNL     1      -1.330   2.240 -21.062  0.00  0.00    +0.015 A 
ATOM      4  C   UNL     1      -2.417   2.617 -21.666  0.00  0.00    +0.018 A 
ATOM      5  C   UNL     1      -3.492   2.863 -20.978  0.00  0.00    +0.018 A 
ATOM      6  C   UNL     1      -4.579   3.240 -21.583  0.00  0.00    +0.092 A 
ATOM      7  C   UNL     1      -4.592   3.371 -22.876  0.00  0.00    +0.337 A 
ATOM      8  O   UNL     1      -3.516   3.125 -23.565  0.00  0.00    -0.422 OA
ATOM      9  O   UNL     1      -5.679   3.748 -23.481  0.00  0.00    -0.245 OA
ATOM     10  C   UNL     1      -2.429   2.748 -22.960  0.00  0.00    +0.143 A 
ATOM     11  C   UNL     1      -1.355   2.502 -23.648  0.00  0.00    +0.092 A 
ENDROOT
BRANCH   1  12
ATOM     12  O   UNL     1       0.808   1.880 -23.732  0.00  0.00    -0.488 OA
BRANCH  12  13
ATOM     13  C   UNL     1       1.447   2.852 -24.311  0.00  0.00    +0.256 C 
BRANCH  13  16
ATOM     14  C   UNL     1       4.268   4.456 -23.172  0.00  0.00    +0.038 C 
ATOM     15  C   UNL     1       3.026   4.223 -23.475  0.00  0.00    -0.076 C 
ATOM     16  C   UNL     1       2.689   3.085 -24.008  0.00  0.00    +0.012 C 
ATOM     17  C   UNL     1       2.120   5.127 -23.246  0.00  0.00    +0.038 C 
ENDBRANCH  13  16
ENDBRANCH  12  13
ENDBRANCH   1  12
TORSDOF 3
ENDMDL
MODEL 2
REMARK VINA RESULT:    -8.200      1.294      2.129
REMARK INTER + INTRA:         -10.071
REMARK INTER:                  -9.542
REMARK INTRA:                  -0.529
REMARK UNBOUND:                -0.433
REMARK  Name = ZINC000000388776
REMARK  5 active torsions:
REMARK  status: ('A' for Active; 'I' for Inactive)
REMARK    1  A    between atoms: C_1  and  C_2
REMARK    2  A    between atoms: C_2  and  C_3
REMARK    3  A    between atoms: C_4  and  C_5
REMARK    4  A    between atoms: C_5  and  O_6
REMARK    5  A    between atoms: O_6  and  C_7
REMARK                            x       y       z     vdW  Elec       q    Type
REMARK                         _______ _______ _______ _____ _____    ______ ____
ROOT
ATOM      1  C   UNL     1      -0.729   2.623 -23.844  0.00  0.00    +0.124 A 
ATOM      2  C   UNL     1      -0.894   3.198 -24.998  0.00  0.00    +0.046 A 
ATOM      3  C   UNL     1      -2.052   3.693 -25.318  0.00  0.00    +0.015 A 
ATOM      4  C   UNL     1      -3.046   3.613 -24.484  0.00  0.00    +0.018 A 
ATOM      5  C   UNL     1      -4.205   4.108 -24.804  0.00  0.00    +0.018 A 
ATOM      6  C   UNL     1      -5.199   4.028 -23.970  0.00  0.00    +0.092 A 
ATOM      7  C   UNL     1      -5.034   3.453 -22.816  0.00  0.00    +0.337 A 
ATOM      8  O   UNL     1      -3.875   2.958 -22.496  0.00  0.00    -0.422 OA
ATOM      9  O   UNL     1      -6.028   3.373 -21.982  0.00  0.00    -0.245 OA
ATOM     10  C   UNL     1      -2.881   3.038 -23.330  0.00  0.00    +0.143 A 
ATOM     11  C   UNL     1      -1.723   2.543 -23.010  0.00  0.00    +0.092 A 
ENDROOT
BRANCH   1  12
ATOM     12  O   UNL     1       0.430   2.129 -23.524  0.00  0.00    -0.488 OA
BRANCH  12  13
ATOM     13  C   UNL     1       1.165   2.719 -22.630  0.00  0.00    +0.256 C 
BRANCH  13  16
ATOM     14  C   UNL     1       4.253   4.074 -23.309  0.00  0.00    +0.038 C 
ATOM     15  C   UNL     1       2.970   3.970 -23.130  0.00  0.00    -0.076 C 
ATOM     16  C   UNL     1       2.448   2.823 -22.808  0.00  0.00    +0.012 C 
ATOM     17  C   UNL     1       2.207   5.013 -23.273  0.00  0.00    +0.038 C 
ENDBRANCH  13  16
ENDBRANCH  12  13
ENDBRANCH   1  12
TORSDOF 3
ENDMDL
MODEL 3
REMARK VINA RESULT:    -8.052      1.579      5.924
REMARK INTER + INTRA:          -9.897
REMARK INTER:                  -9.267
REMARK INTRA:                  -0.630
REMARK UNBOUND:                -0.433
REMARK  Name = ZINC000000388776
REMARK  5 active torsions:
REMARK  status: ('A' for Active; 'I' for Inactive)
REMARK    1  A    between atoms: C_1  and  C_2
REMARK    2  A    between atoms: C_2  and  C_3
REMARK    3  A    between atoms: C_4  and  C_5
REMARK    4  A    between atoms: C_5  and  O_6
REMARK    5  A    between atoms: O_6  and  C_7
REMARK                            x       y       z     vdW  Elec       q    Type
REMARK                         _______ _______ _______ _____ _____    ______ ____
ROOT
ATOM      1  C   UNL     1      -1.049   3.592 -23.823  0.00  0.00    +0.124 A 
ATOM      2  C   UNL     1      -0.321   4.668 -23.805  0.00  0.00    +0.046 A 
ATOM      3  C   UNL     1       0.936   4.597 -23.482  0.00  0.00    +0.015 A 
ATOM      4  C   UNL     1       1.464   3.450 -23.177  0.00  0.00    +0.018 A 
ATOM      5  C   UNL     1       2.722   3.378 -22.854  0.00  0.00    +0.018 A 
ATOM      6  C   UNL     1       3.251   2.231 -22.548  0.00  0.00    +0.092 A 
ATOM      7  C   UNL     1       2.522   1.154 -22.566  0.00  0.00    +0.337 A 
ATOM      8  O   UNL     1       1.265   1.226 -22.889  0.00  0.00    -0.422 OA
ATOM      9  O   UNL     1       3.051   0.007 -22.261  0.00  0.00    -0.245 OA
ATOM     10  C   UNL     1       0.736   2.373 -23.195  0.00  0.00    +0.143 A 
ATOM     11  C   UNL     1      -0.521   2.444 -23.518  0.00  0.00    +0.092 A 
ENDROOT
BRANCH   1  12
ATOM     12  O   UNL     1      -2.307   3.663 -24.147  0.00  0.00    -0.488 OA
BRANCH  12  13
ATOM     13  C   UNL     1      -3.186   4.027 -23.262  0.00  0.00    +0.256 C 
BRANCH  13  16
ATOM     14  C   UNL     1      -4.461   2.153 -20.675  0.00  0.00    +0.038 C 
ATOM     15  C   UNL     1      -3.778   3.051 -21.321  0.00  0.00    -0.076 C 
ATOM     16  C   UNL     1      -3.869   3.130 -22.616  0.00  0.00    +0.012 C 
ATOM     17  C   UNL     1      -3.004   3.869 -20.673  0.00  0.00    +0.038 C 
ENDBRANCH  13  16
ENDBRANCH  12  13
ENDBRANCH   1  12
TORSDOF 3
ENDMDL
MODEL 4
REMARK VINA RESULT:    -7.895      2.124      6.546
REMARK INTER + INTRA:          -9.713
REMARK INTER:                  -9.259
REMARK INTRA:                  -0.454
REMARK UNBOUND:                -0.433
REMARK  Name = ZINC000000388776
REMARK  5 active torsions:
REMARK  status: ('A' for Active; 'I' for Inactive)
REMARK    1  A    between atoms: C_1  and  C_2
REMARK    2  A    between atoms: C_2  and  C_3
REMARK    3  A    between atoms: C_4  and  C_5
REMARK    4  A    between atoms: C_5  and  O_6
REMARK    5  A    between atoms: O_6  and  C_7
REMARK                            x       y       z     vdW  Elec       q    Type
REMARK                         _______ _______ _______ _____ _____    ______ ____
ROOT
ATOM      1  C   UNL     1      -0.692   2.029 -21.888  0.00  0.00    +0.124 A 
ATOM      2  C   UNL     1      -0.457   2.565 -23.048  0.00  0.00    +0.046 A 
ATOM      3  C   UNL     1       0.737   2.512 -23.559  0.00  0.00    +0.015 A 
ATOM      4  C   UNL     1       1.696   1.923 -22.909  0.00  0.00    +0.018 A 
ATOM      5  C   UNL     1       2.891   1.870 -23.420  0.00  0.00    +0.018 A 
ATOM      6  C   UNL     1       3.850   1.281 -22.770  0.00  0.00    +0.092 A 
ATOM      7  C   UNL     1       3.615   0.745 -21.610  0.00  0.00    +0.337 A 
ATOM      8  O   UNL     1       2.421   0.798 -21.099  0.00  0.00    -0.422 OA
ATOM      9  O   UNL     1       4.575   0.155 -20.960  0.00  0.00    -0.245 OA
ATOM     10  C   UNL     1       1.461   1.387 -21.749  0.00  0.00    +0.143 A 
ATOM     11  C   UNL     1       0.268   1.440 -21.238  0.00  0.00    +0.092 A 
ENDROOT
BRANCH   1  12
ATOM     12  O   UNL     1      -1.886   2.082 -21.377  0.00  0.00    -0.488 OA
BRANCH  12  13
ATOM     13  C   UNL     1      -2.569   3.186 -21.431  0.00  0.00    +0.256 C 
BRANCH  13  16
ATOM     14  C   UNL     1      -5.923   3.280 -22.184  0.00  0.00    +0.038 C 
ATOM     15  C   UNL     1      -4.632   3.306 -22.326  0.00  0.00    -0.076 C 
ATOM     16  C   UNL     1      -3.860   3.161 -21.289  0.00  0.00    +0.012 C 
ATOM     17  C   UNL     1      -4.111   3.477 -23.505  0.00  0.00    +0.038 C 
ENDBRANCH  13  16
ENDBRANCH  12  13
ENDBRANCH   1  12
TORSDOF 3
ENDMDL
MODEL 5
REMARK VINA RESULT:    -7.843      1.817      6.144
REMARK INTER + INTRA:          -9.651
REMARK INTER:                  -9.107
REMARK INTRA:                  -0.544
REMARK UNBOUND:                -0.433
REMARK  Name = ZINC000000388776
REMARK  5 active torsions:
REMARK  status: ('A' for Active; 'I' for Inactive)
REMARK    1  A    between atoms: C_1  and  C_2
REMARK    2  A    between atoms: C_2  and  C_3
REMARK    3  A    between atoms: C_4  and  C_5
REMARK    4  A    between atoms: C_5  and  O_6
REMARK    5  A    between atoms: O_6  and  C_7
REMARK                            x       y       z     vdW  Elec       q    Type
REMARK                         _______ _______ _______ _____ _____    ______ ____
ROOT
ATOM      1  C   UNL     1      -0.749   2.530 -23.177  0.00  0.00    +0.124 A 
ATOM      2  C   UNL     1      -0.852   1.810 -22.100  0.00  0.00    +0.046 A 
ATOM      3  C   UNL     1       0.217   1.448 -21.456  0.00  0.00    +0.015 A 
ATOM      4  C   UNL     1       1.389   1.806 -21.889  0.00  0.00    +0.018 A 
ATOM      5  C   UNL     1       2.460   1.444 -21.245  0.00  0.00    +0.018 A 
ATOM      6  C   UNL     1       3.631   1.803 -21.678  0.00  0.00    +0.092 A 
ATOM      7  C   UNL     1       3.734   2.523 -22.755  0.00  0.00    +0.337 A 
ATOM      8  O   UNL     1       2.664   2.885 -23.399  0.00  0.00    -0.422 OA
ATOM      9  O   UNL     1       4.906   2.882 -23.188  0.00  0.00    -0.245 OA
ATOM     10  C   UNL     1       1.492   2.527 -22.966  0.00  0.00    +0.143 A 
ATOM     11  C   UNL     1       0.423   2.888 -23.610  0.00  0.00    +0.092 A 
ENDROOT
BRANCH   1  12
ATOM     12  O   UNL     1      -1.819   2.892 -23.822  0.00  0.00    -0.488 OA
BRANCH  12  13
ATOM     13  C   UNL     1      -2.653   3.729 -23.280  0.00  0.00    +0.256 C 
BRANCH  13  16
ATOM     14  C   UNL     1      -5.718   3.061 -21.871  0.00  0.00    +0.038 C 
ATOM     15  C   UNL     1      -4.463   3.377 -21.988  0.00  0.00    -0.076 C 
ATOM     16  C   UNL     1      -3.908   3.412 -23.164  0.00  0.00    +0.012 C 
ATOM     17  C   UNL     1      -3.763   3.658 -20.930  0.00  0.00    +0.038 C 
ENDBRANCH  13  16
ENDBRANCH  12  13
ENDBRANCH   1  12
TORSDOF 3
ENDMDL
MODEL 6
REMARK VINA RESULT:    -7.493      2.247      6.640
REMARK INTER + INTRA:          -9.240
REMARK INTER:                  -8.828
REMARK INTRA:                  -0.412
REMARK UNBOUND:                -0.433
REMARK  Name = ZINC000000388776
REMARK  5 active torsions:
REMARK  status: ('A' for Active; 'I' for Inactive)
REMARK    1  A    between atoms: C_1  and  C_2
REMARK    2  A    between atoms: C_2  and  C_3
REMARK    3  A    between atoms: C_4  and  C_5
REMARK    4  A    between atoms: C_5  and  O_6
REMARK    5  A    between atoms: O_6  and  C_7
REMARK                            x       y       z     vdW  Elec       q    Type
REMARK                         _______ _______ _______ _____ _____    ______ ____
ROOT
ATOM      1  C   UNL     1       0.500   4.211 -23.971  0.00  0.00    +0.124 A 
ATOM      2  C   UNL     1       0.719   3.060 -24.534  0.00  0.00    +0.046 A 
ATOM      3  C   UNL     1       1.916   2.555 -24.535  0.00  0.00    +0.015 A 
ATOM      4  C   UNL     1       2.895   3.201 -23.975  0.00  0.00    +0.018 A 
ATOM      5  C   UNL     1       4.093   2.696 -23.976  0.00  0.00    +0.018 A 
ATOM      6  C   UNL     1       5.071   3.342 -23.416  0.00  0.00    +0.092 A 
ATOM      7  C   UNL     1       4.852   4.494 -22.853  0.00  0.00    +0.337 A 
ATOM      8  O   UNL     1       3.654   4.999 -22.852  0.00  0.00    -0.422 OA
ATOM      9  O   UNL     1       5.831   5.140 -22.292  0.00  0.00    -0.245 OA
ATOM     10  C   UNL     1       2.675   4.352 -23.412  0.00  0.00    +0.143 A 
ATOM     11  C   UNL     1       1.478   4.857 -23.410  0.00  0.00    +0.092 A 
ENDROOT
BRANCH   1  12
ATOM     12  O   UNL     1      -0.699   4.716 -23.970  0.00  0.00    -0.488 OA
BRANCH  12  13
ATOM     13  C   UNL     1      -1.670   4.085 -23.380  0.00  0.00    +0.256 C 
BRANCH  13  16
ATOM     14  C   UNL     1      -3.092   3.843 -20.258  0.00  0.00    +0.038 C 
ATOM     15  C   UNL     1      -2.894   3.686 -21.532  0.00  0.00    -0.076 C 
ATOM     16  C   UNL     1      -1.868   4.243 -22.105  0.00  0.00    +0.012 C 
ATOM     17  C   UNL     1      -3.723   2.972 -22.236  0.00  0.00    +0.038 C 
ENDBRANCH  13  16
ENDBRANCH  12  13
ENDBRANCH   1  12
TORSDOF 3
ENDMDL
MODEL 7
REMARK VINA RESULT:    -7.345      2.077      5.931
REMARK INTER + INTRA:          -9.066
REMARK INTER:                  -8.695
REMARK INTRA:                  -0.371
REMARK UNBOUND:                -0.433
REMARK  Name = ZINC000000388776
REMARK  5 active torsions:
REMARK  status: ('A' for Active; 'I' for Inactive)
REMARK    1  A    between atoms: C_1  and  C_2
REMARK    2  A    between atoms: C_2  and  C_3
REMARK    3  A    between atoms: C_4  and  C_5
REMARK    4  A    between atoms: C_5  and  O_6
REMARK    5  A    between atoms: O_6  and  C_7
REMARK                            x       y       z     vdW  Elec       q    Type
REMARK                         _______ _______ _______ _____ _____    ______ ____
ROOT
ATOM      1  C   UNL     1      -0.924   3.139 -22.435  0.00  0.00    +0.124 A 
ATOM      2  C   UNL     1      -0.922   2.177 -21.561  0.00  0.00    +0.046 A 
ATOM      3  C   UNL     1       0.167   1.504 -21.336  0.00  0.00    +0.015 A 
ATOM      4  C   UNL     1       1.255   1.795 -21.986  0.00  0.00    +0.018 A 
ATOM      5  C   UNL     1       2.346   1.122 -21.761  0.00  0.00    +0.018 A 
ATOM      6  C   UNL     1       3.433   1.413 -22.411  0.00  0.00    +0.092 A 
ATOM      7  C   UNL     1       3.432   2.375 -23.285  0.00  0.00    +0.337 A 
ATOM      8  O   UNL     1       2.341   3.047 -23.509  0.00  0.00    -0.422 OA
ATOM      9  O   UNL     1       4.520   2.665 -23.934  0.00  0.00    -0.245 OA
ATOM     10  C   UNL     1       1.254   2.757 -22.860  0.00  0.00    +0.143 A 
ATOM     11  C   UNL     1       0.164   3.429 -23.084  0.00  0.00    +0.092 A 
ENDROOT
BRANCH   1  12
ATOM     12  O   UNL     1      -2.014   3.811 -22.659  0.00  0.00    -0.488 OA
BRANCH  12  13
ATOM     13  C   UNL     1      -3.048   3.219 -23.177  0.00  0.00    +0.256 C 
BRANCH  13  16
ATOM     14  C   UNL     1      -3.946   3.202 -26.497  0.00  0.00    +0.038 C 
ATOM     15  C   UNL     1      -3.931   3.494 -25.231  0.00  0.00    -0.076 C 
ATOM     16  C   UNL     1      -3.064   2.928 -24.444  0.00  0.00    +0.012 C 
ATOM     17  C   UNL     1      -4.782   4.352 -24.751  0.00  0.00    +0.038 C 
ENDBRANCH  13  16
ENDBRANCH  12  13
ENDBRANCH   1  12
TORSDOF 3
ENDMDL
MODEL 8
REMARK VINA RESULT:    -7.206      2.264      6.326
REMARK INTER + INTRA:          -8.902
REMARK INTER:                  -8.470
REMARK INTRA:                  -0.433
REMARK UNBOUND:                -0.433
REMARK  Name = ZINC000000388776
REMARK  5 active torsions:
REMARK  status: ('A' for Active; 'I' for Inactive)
REMARK    1  A    between atoms: C_1  and  C_2
REMARK    2  A    between atoms: C_2  and  C_3
REMARK    3  A    between atoms: C_4  and  C_5
REMARK    4  A    between atoms: C_5  and  O_6
REMARK    5  A    between atoms: O_6  and  C_7
REMARK                            x       y       z     vdW  Elec       q    Type
REMARK                         _______ _______ _______ _____ _____    ______ ____
ROOT
ATOM      1  C   UNL     1       1.003   4.442 -23.516  0.00  0.00    +0.124 A 
ATOM      2  C   UNL     1       2.091   5.140 -23.652  0.00  0.00    +0.046 A 
ATOM      3  C   UNL     1       3.229   4.653 -23.257  0.00  0.00    +0.015 A 
ATOM      4  C   UNL     1       3.280   3.468 -22.725  0.00  0.00    +0.018 A 
ATOM      5  C   UNL     1       4.419   2.981 -22.330  0.00  0.00    +0.018 A 
ATOM      6  C   UNL     1       4.469   1.796 -21.798  0.00  0.00    +0.092 A 
ATOM      7  C   UNL     1       3.381   1.098 -21.661  0.00  0.00    +0.337 A 
ATOM      8  O   UNL     1       2.242   1.585 -22.057  0.00  0.00    -0.422 OA
ATOM      9  O   UNL     1       3.432  -0.087 -21.130  0.00  0.00    -0.245 OA
ATOM     10  C   UNL     1       2.192   2.770 -22.589  0.00  0.00    +0.143 A 
ATOM     11  C   UNL     1       1.053   3.257 -22.984  0.00  0.00    +0.092 A 
ENDROOT
BRANCH   1  12
ATOM     12  O   UNL     1      -0.136   4.929 -23.911  0.00  0.00    -0.488 OA
BRANCH  12  13
ATOM     13  C   UNL     1      -1.244   4.505 -23.381  0.00  0.00    +0.256 C 
BRANCH  13  16
ATOM     14  C   UNL     1      -4.430   3.733 -24.423  0.00  0.00    +0.038 C 
ATOM     15  C   UNL     1      -3.336   3.742 -23.722  0.00  0.00    -0.076 C 
ATOM     16  C   UNL     1      -2.339   4.496 -24.082  0.00  0.00    +0.012 C 
ATOM     17  C   UNL     1      -3.237   2.998 -22.661  0.00  0.00    +0.038 C 
ENDBRANCH  13  16
ENDBRANCH  12  13
ENDBRANCH   1  12
TORSDOF 3
ENDMDL
MODEL 9
REMARK VINA RESULT:    -7.139      2.355      6.605
REMARK INTER + INTRA:          -8.824
REMARK INTER:                  -8.400
REMARK INTRA:                  -0.424
REMARK UNBOUND:                -0.433
REMARK  Name = ZINC000000388776
REMARK  5 active torsions:
REMARK  status: ('A' for Active; 'I' for Inactive)
REMARK    1  A    between atoms: C_1  and  C_2
REMARK    2  A    between atoms: C_2  and  C_3
REMARK    3  A    between atoms: C_4  and  C_5
REMARK    4  A    between atoms: C_5  and  O_6
REMARK    5  A    between atoms: O_6  and  C_7
REMARK                            x       y       z     vdW  Elec       q    Type
REMARK                         _______ _______ _______ _____ _____    ______ ____
ROOT
ATOM      1  C   UNL     1       0.348   2.988 -23.560  0.00  0.00    +0.124 A 
ATOM      2  C   UNL     1       0.416   4.274 -23.742  0.00  0.00    +0.046 A 
ATOM      3  C   UNL     1       1.555   4.887 -23.624  0.00  0.00    +0.015 A 
ATOM      4  C   UNL     1       2.627   4.215 -23.325  0.00  0.00    +0.018 A 
ATOM      5  C   UNL     1       3.768   4.829 -23.207  0.00  0.00    +0.018 A 
ATOM      6  C   UNL     1       4.839   4.157 -22.908  0.00  0.00    +0.092 A 
ATOM      7  C   UNL     1       4.771   2.872 -22.725  0.00  0.00    +0.337 A 
ATOM      8  O   UNL     1       3.631   2.258 -22.843  0.00  0.00    -0.422 OA
ATOM      9  O   UNL     1       5.843   2.200 -22.426  0.00  0.00    -0.245 OA
ATOM     10  C   UNL     1       2.559   2.930 -23.142  0.00  0.00    +0.143 A 
ATOM     11  C   UNL     1       1.419   2.317 -23.260  0.00  0.00    +0.092 A 
ENDROOT
BRANCH   1  12
ATOM     12  O   UNL     1      -0.793   2.375 -23.677  0.00  0.00    -0.488 OA
BRANCH  12  13
ATOM     13  C   UNL     1      -1.870   3.050 -23.944  0.00  0.00    +0.256 C 
BRANCH  13  16
ATOM     14  C   UNL     1      -4.438   2.964 -26.230  0.00  0.00    +0.038 C 
ATOM     15  C   UNL     1      -3.594   3.409 -25.348  0.00  0.00    -0.076 C 
ATOM     16  C   UNL     1      -2.715   2.605 -24.825  0.00  0.00    +0.012 C 
ATOM     17  C   UNL     1      -3.626   4.658 -24.989  0.00  0.00    +0.038 C 
ENDBRANCH  13  16
ENDBRANCH  12  13
ENDBRANCH   1  12
TORSDOF 3
ENDMDL
