MODEL 1
REMARK VINA RESULT:    -7.261      0.000      0.000
REMARK INTER + INTRA:          -8.796
REMARK INTER:                  -8.510
REMARK INTRA:                  -0.285
REMARK UNBOUND:                -0.262
REMARK  Name = ZINC000014684899
REMARK  6 active torsions:
REMARK  status: ('A' for Active; 'I' for Inactive)
REMARK    1  A    between atoms: C_1  and  O_2
REMARK    2  A    between atoms: O_2  and  C_3
REMARK    3  A    between atoms: C_5  and  O_6
REMARK    4  A    between atoms: O_6  and  C_7
REMARK    5  A    between atoms: C_13  and  O_14
REMARK    6  A    between atoms: O_14  and  C_15
REMARK                            x       y       z     vdW  Elec       q    Type
REMARK                         _______ _______ _______ _____ _____    ______ ____
ROOT
ATOM      1  C   UNL     1      -0.516   2.132 -22.221  0.00  0.00    +0.124 A 
ATOM      2  C   UNL     1       0.052   2.616 -23.285  0.00  0.00    +0.093 A 
ATOM      3  C   UNL     1      -0.654   3.272 -24.157  0.00  0.00    +0.148 A 
ATOM      4  C   UNL     1      -1.928   3.444 -23.965  0.00  0.00    +0.095 A 
ATOM      5  N   UNL     1      -2.635   4.100 -24.838  0.00  0.00    -0.319 N 
ATOM      6  H   UNL     1      -2.204   4.467 -25.643  0.00  0.00    +0.169 HD
ATOM      7  C   UNL     1      -3.908   4.272 -24.646  0.00  0.00    +0.253 A 
ATOM      8  C   UNL     1      -4.477   3.788 -23.582  0.00  0.00    +0.116 A 
ATOM      9  C   UNL     1      -3.771   3.132 -22.709  0.00  0.00    +0.135 A 
ATOM     10  O   UNL     1      -4.614   4.928 -25.518  0.00  0.00    -0.268 OA
ATOM     11  C   UNL     1      -2.497   2.960 -22.901  0.00  0.00    +0.047 A 
ATOM     12  C   UNL     1      -1.790   2.303 -22.029  0.00  0.00    +0.059 A 
ENDROOT
BRANCH   1  14
ATOM     13  C   UNL     1       1.487   1.484 -21.423  0.00  0.00    +0.277 C 
ATOM     14  O   UNL     1       0.189   1.476 -21.348  0.00  0.00    -0.495 OA
ENDBRANCH   1  14
BRANCH   9  15
ATOM     15  O   UNL     1      -4.339   2.647 -21.645  0.00  0.00    -0.494 OA
ATOM     16  C   UNL     1      -5.633   2.679 -21.527  0.00  0.00    +0.277 C 
ENDBRANCH   9  15
BRANCH   3  17
ATOM     17  O   UNL     1      -0.086   3.757 -25.221  0.00  0.00    -0.493 OA
ATOM     18  C   UNL     1       1.161   4.125 -25.183  0.00  0.00    +0.277 C 
ENDBRANCH   3  17
TORSDOF 3
ENDMDL
MODEL 2
REMARK VINA RESULT:    -7.190      1.575      5.415
REMARK INTER + INTRA:          -8.713
REMARK INTER:                  -8.432
REMARK INTRA:                  -0.281
REMARK UNBOUND:                -0.262
REMARK  Name = ZINC000014684899
REMARK  6 active torsions:
REMARK  status: ('A' for Active; 'I' for Inactive)
REMARK    1  A    between atoms: C_1  and  O_2
REMARK    2  A    between atoms: O_2  and  C_3
REMARK    3  A    between atoms: C_5  and  O_6
REMARK    4  A    between atoms: O_6  and  C_7
REMARK    5  A    between atoms: C_13  and  O_14
REMARK    6  A    between atoms: O_14  and  C_15
REMARK                            x       y       z     vdW  Elec       q    Type
REMARK                         _______ _______ _______ _____ _____    ______ ____
ROOT
ATOM      1  C   UNL     1      -2.795   3.624 -24.813  0.00  0.00    +0.124 A 
ATOM      2  C   UNL     1      -3.551   3.398 -23.779  0.00  0.00    +0.093 A 
ATOM      3  C   UNL     1      -3.041   2.882 -22.701  0.00  0.00    +0.148 A 
ATOM      4  C   UNL     1      -1.775   2.591 -22.656  0.00  0.00    +0.095 A 
ATOM      5  N   UNL     1      -1.264   2.075 -21.577  0.00  0.00    -0.319 N 
ATOM      6  H   UNL     1      -1.836   1.904 -20.795  0.00  0.00    +0.169 HD
ATOM      7  C   UNL     1       0.002   1.784 -21.533  0.00  0.00    +0.253 A 
ATOM      8  C   UNL     1       0.758   2.010 -22.566  0.00  0.00    +0.116 A 
ATOM      9  C   UNL     1       0.248   2.527 -23.644  0.00  0.00    +0.135 A 
ATOM     10  O   UNL     1       0.512   1.268 -20.454  0.00  0.00    -0.268 OA
ATOM     11  C   UNL     1      -1.018   2.817 -23.689  0.00  0.00    +0.047 A 
ATOM     12  C   UNL     1      -1.529   3.334 -24.768  0.00  0.00    +0.059 A 
ENDROOT
BRANCH   1  14
ATOM     13  C   UNL     1      -3.220   3.502 -27.020  0.00  0.00    +0.277 C 
ATOM     14  O   UNL     1      -3.305   4.140 -25.891  0.00  0.00    -0.495 OA
ENDBRANCH   1  14
BRANCH   9  15
ATOM     15  O   UNL     1       1.004   2.752 -24.677  0.00  0.00    -0.494 OA
ATOM     16  C   UNL     1       2.150   2.150 -24.788  0.00  0.00    +0.277 C 
ENDBRANCH   9  15
BRANCH   3  17
ATOM     17  O   UNL     1      -3.797   2.656 -21.668  0.00  0.00    -0.493 OA
ATOM     18  C   UNL     1      -5.063   2.947 -21.713  0.00  0.00    +0.277 C 
ENDBRANCH   3  17
TORSDOF 3
ENDMDL
MODEL 3
REMARK VINA RESULT:    -7.095      1.552      4.473
REMARK INTER + INTRA:          -8.601
REMARK INTER:                  -8.319
REMARK INTRA:                  -0.282
REMARK UNBOUND:                -0.262
REMARK  Name = ZINC000014684899
REMARK  6 active torsions:
REMARK  status: ('A' for Active; 'I' for Inactive)
REMARK    1  A    between atoms: C_1  and  O_2
REMARK    2  A    between atoms: O_2  and  C_3
REMARK    3  A    between atoms: C_5  and  O_6
REMARK    4  A    between atoms: O_6  and  C_7
REMARK    5  A    between atoms: C_13  and  O_14
REMARK    6  A    between atoms: O_14  and  C_15
REMARK                            x       y       z     vdW  Elec       q    Type
REMARK                         _______ _______ _______ _____ _____    ______ ____
ROOT
ATOM      1  C   UNL     1      -2.441   2.765 -21.827  0.00  0.00    +0.124 A 
ATOM      2  C   UNL     1      -2.919   3.198 -22.956  0.00  0.00    +0.093 A 
ATOM      3  C   UNL     1      -2.152   3.270 -24.003  0.00  0.00    +0.148 A 
ATOM      4  C   UNL     1      -0.906   2.909 -23.921  0.00  0.00    +0.095 A 
ATOM      5  N   UNL     1      -0.138   2.981 -24.968  0.00  0.00    -0.319 N 
ATOM      6  H   UNL     1      -0.501   3.309 -25.822  0.00  0.00    +0.169 HD
ATOM      7  C   UNL     1       1.108   2.620 -24.886  0.00  0.00    +0.253 A 
ATOM      8  C   UNL     1       1.586   2.187 -23.758  0.00  0.00    +0.116 A 
ATOM      9  C   UNL     1       0.819   2.115 -22.711  0.00  0.00    +0.135 A 
ATOM     10  O   UNL     1       1.875   2.692 -25.933  0.00  0.00    -0.268 OA
ATOM     11  C   UNL     1      -0.427   2.476 -22.793  0.00  0.00    +0.047 A 
ATOM     12  C   UNL     1      -1.195   2.404 -21.746  0.00  0.00    +0.059 A 
ENDROOT
BRANCH   1  14
ATOM     13  C   UNL     1      -3.249   3.680 -19.935  0.00  0.00    +0.277 C 
ATOM     14  O   UNL     1      -3.208   2.693 -20.781  0.00  0.00    -0.495 OA
ENDBRANCH   1  14
BRANCH   9  15
ATOM     15  O   UNL     1       1.298   1.682 -21.582  0.00  0.00    -0.494 OA
ATOM     16  C   UNL     1       2.562   1.402 -21.478  0.00  0.00    +0.277 C 
ENDBRANCH   9  15
BRANCH   3  17
ATOM     17  O   UNL     1      -2.631   3.703 -25.131  0.00  0.00    -0.493 OA
ATOM     18  C   UNL     1      -3.630   4.536 -25.137  0.00  0.00    +0.277 C 
ENDBRANCH   3  17
TORSDOF 3
ENDMDL
MODEL 4
REMARK VINA RESULT:    -7.095      1.268      1.374
REMARK INTER + INTRA:          -8.601
REMARK INTER:                  -8.317
REMARK INTRA:                  -0.284
REMARK UNBOUND:                -0.262
REMARK  Name = ZINC000014684899
REMARK  6 active torsions:
REMARK  status: ('A' for Active; 'I' for Inactive)
REMARK    1  A    between atoms: C_1  and  O_2
REMARK    2  A    between atoms: O_2  and  C_3
REMARK    3  A    between atoms: C_5  and  O_6
REMARK    4  A    between atoms: O_6  and  C_7
REMARK    5  A    between atoms: C_13  and  O_14
REMARK    6  A    between atoms: O_14  and  C_15
REMARK                            x       y       z     vdW  Elec       q    Type
REMARK                         _______ _______ _______ _____ _____    ______ ____
ROOT
ATOM      1  C   UNL     1       0.211   1.857 -21.699  0.00  0.00    +0.124 A 
ATOM      2  C   UNL     1       0.956   2.007 -22.754  0.00  0.00    +0.093 A 
ATOM      3  C   UNL     1       0.431   2.427 -23.866  0.00  0.00    +0.148 A 
ATOM      4  C   UNL     1      -0.839   2.697 -23.924  0.00  0.00    +0.095 A 
ATOM      5  N   UNL     1      -1.366   3.117 -25.036  0.00  0.00    -0.319 N 
ATOM      6  H   UNL     1      -0.802   3.231 -25.835  0.00  0.00    +0.169 HD
ATOM      7  C   UNL     1      -2.636   3.386 -25.094  0.00  0.00    +0.253 A 
ATOM      8  C   UNL     1      -3.380   3.236 -24.039  0.00  0.00    +0.116 A 
ATOM      9  C   UNL     1      -2.855   2.816 -22.926  0.00  0.00    +0.135 A 
ATOM     10  O   UNL     1      -3.161   3.806 -26.206  0.00  0.00    -0.268 OA
ATOM     11  C   UNL     1      -1.585   2.546 -22.869  0.00  0.00    +0.047 A 
ATOM     12  C   UNL     1      -1.059   2.126 -21.756  0.00  0.00    +0.059 A 
ENDROOT
BRANCH   1  14
ATOM     13  C   UNL     1       2.027   1.455 -20.430  0.00  0.00    +0.277 C 
ATOM     14  O   UNL     1       0.737   1.437 -20.587  0.00  0.00    -0.495 OA
ENDBRANCH   1  14
BRANCH   9  15
ATOM     15  O   UNL     1      -3.600   2.666 -21.871  0.00  0.00    -0.494 OA
ATOM     16  C   UNL     1      -4.845   3.037 -21.896  0.00  0.00    +0.277 C 
ENDBRANCH   9  15
BRANCH   3  17
ATOM     17  O   UNL     1       1.175   2.577 -24.921  0.00  0.00    -0.493 OA
ATOM     18  C   UNL     1       2.346   2.013 -24.977  0.00  0.00    +0.277 C 
ENDBRANCH   3  17
TORSDOF 3
ENDMDL
MODEL 5
REMARK VINA RESULT:    -6.742      1.309      3.333
REMARK INTER + INTRA:          -8.186
REMARK INTER:                  -8.241
REMARK INTRA:                   0.055
REMARK UNBOUND:                -0.262
REMARK  Name = ZINC000014684899
REMARK  6 active torsions:
REMARK  status: ('A' for Active; 'I' for Inactive)
REMARK    1  A    between atoms: C_1  and  O_2
REMARK    2  A    between atoms: O_2  and  C_3
REMARK    3  A    between atoms: C_5  and  O_6
REMARK    4  A    between atoms: O_6  and  C_7
REMARK    5  A    between atoms: C_13  and  O_14
REMARK    6  A    between atoms: O_14  and  C_15
REMARK                            x       y       z     vdW  Elec       q    Type
REMARK                         _______ _______ _______ _____ _____    ______ ____
ROOT
ATOM      1  C   UNL     1      -0.259   3.216 -24.534  0.00  0.00    +0.124 A 
ATOM      2  C   UNL     1      -0.114   2.783 -23.317  0.00  0.00    +0.093 A 
ATOM      3  C   UNL     1      -1.146   2.694 -22.531  0.00  0.00    +0.148 A 
ATOM      4  C   UNL     1      -2.322   3.039 -22.963  0.00  0.00    +0.095 A 
ATOM      5  N   UNL     1      -3.355   2.951 -22.177  0.00  0.00    -0.319 N 
ATOM      6  H   UNL     1      -3.245   2.623 -21.256  0.00  0.00    +0.169 HD
ATOM      7  C   UNL     1      -4.531   3.296 -22.608  0.00  0.00    +0.253 A 
ATOM      8  C   UNL     1      -4.676   3.730 -23.825  0.00  0.00    +0.116 A 
ATOM      9  C   UNL     1      -3.645   3.818 -24.611  0.00  0.00    +0.135 A 
ATOM     10  O   UNL     1      -5.563   3.208 -21.822  0.00  0.00    -0.268 OA
ATOM     11  C   UNL     1      -2.468   3.473 -24.179  0.00  0.00    +0.047 A 
ATOM     12  C   UNL     1      -1.436   3.561 -24.965  0.00  0.00    +0.059 A 
ENDROOT
BRANCH   1  14
ATOM     13  C   UNL     1       1.827   2.578 -25.093  0.00  0.00    +0.277 C 
ATOM     14  O   UNL     1       0.772   3.305 -25.320  0.00  0.00    -0.495 OA
ENDBRANCH   1  14
BRANCH   9  15
ATOM     15  O   UNL     1      -3.789   4.252 -25.828  0.00  0.00    -0.494 OA
ATOM     16  C   UNL     1      -4.049   3.416 -26.789  0.00  0.00    +0.277 C 
ENDBRANCH   9  15
BRANCH   3  17
ATOM     17  O   UNL     1      -1.001   2.261 -21.314  0.00  0.00    -0.493 OA
ATOM     18  C   UNL     1       0.018   1.513 -21.008  0.00  0.00    +0.277 C 
ENDBRANCH   3  17
TORSDOF 3
ENDMDL
MODEL 6
REMARK VINA RESULT:    -6.686      1.244      3.704
REMARK INTER + INTRA:          -8.120
REMARK INTER:                  -7.992
REMARK INTRA:                  -0.128
REMARK UNBOUND:                -0.262
REMARK  Name = ZINC000014684899
REMARK  6 active torsions:
REMARK  status: ('A' for Active; 'I' for Inactive)
REMARK    1  A    between atoms: C_1  and  O_2
REMARK    2  A    between atoms: O_2  and  C_3
REMARK    3  A    between atoms: C_5  and  O_6
REMARK    4  A    between atoms: O_6  and  C_7
REMARK    5  A    between atoms: C_13  and  O_14
REMARK    6  A    between atoms: O_14  and  C_15
REMARK                            x       y       z     vdW  Elec       q    Type
REMARK                         _______ _______ _______ _____ _____    ______ ____
ROOT
ATOM      1  C   UNL     1      -0.044   1.839 -21.640  0.00  0.00    +0.124 A 
ATOM      2  C   UNL     1      -1.193   2.014 -21.056  0.00  0.00    +0.093 A 
ATOM      3  C   UNL     1      -2.171   2.576 -21.701  0.00  0.00    +0.148 A 
ATOM      4  C   UNL     1      -2.001   2.965 -22.930  0.00  0.00    +0.095 A 
ATOM      5  N   UNL     1      -2.979   3.528 -23.576  0.00  0.00    -0.319 N 
ATOM      6  H   UNL     1      -3.849   3.660 -23.134  0.00  0.00    +0.169 HD
ATOM      7  C   UNL     1      -2.809   3.916 -24.804  0.00  0.00    +0.253 A 
ATOM      8  C   UNL     1      -1.660   3.742 -25.388  0.00  0.00    +0.116 A 
ATOM      9  C   UNL     1      -0.682   3.179 -24.743  0.00  0.00    +0.135 A 
ATOM     10  O   UNL     1      -3.787   4.479 -25.449  0.00  0.00    -0.268 OA
ATOM     11  C   UNL     1      -0.853   2.791 -23.514  0.00  0.00    +0.047 A 
ATOM     12  C   UNL     1       0.126   2.227 -22.869  0.00  0.00    +0.059 A 
ENDROOT
BRANCH   1  14
ATOM     13  C   UNL     1       2.140   1.320 -21.477  0.00  0.00    +0.277 C 
ATOM     14  O   UNL     1       0.934   1.276 -20.995  0.00  0.00    -0.495 OA
ENDBRANCH   1  14
BRANCH   9  15
ATOM     15  O   UNL     1       0.466   3.004 -25.326  0.00  0.00    -0.494 OA
ATOM     16  C   UNL     1       1.225   4.027 -25.586  0.00  0.00    +0.277 C 
ENDBRANCH   9  15
BRANCH   3  17
ATOM     17  O   UNL     1      -3.320   2.751 -21.118  0.00  0.00    -0.493 OA
ATOM     18  C   UNL     1      -3.409   3.526 -20.077  0.00  0.00    +0.277 C 
ENDBRANCH   3  17
TORSDOF 3
ENDMDL
MODEL 7
REMARK VINA RESULT:    -6.313      3.803      7.455
REMARK INTER + INTRA:          -7.682
REMARK INTER:                  -7.402
REMARK INTRA:                  -0.280
REMARK UNBOUND:                -0.262
REMARK  Name = ZINC000014684899
REMARK  6 active torsions:
REMARK  status: ('A' for Active; 'I' for Inactive)
REMARK    1  A    between atoms: C_1  and  O_2
REMARK    2  A    between atoms: O_2  and  C_3
REMARK    3  A    between atoms: C_5  and  O_6
REMARK    4  A    between atoms: O_6  and  C_7
REMARK    5  A    between atoms: C_13  and  O_14
REMARK    6  A    between atoms: O_14  and  C_15
REMARK                            x       y       z     vdW  Elec       q    Type
REMARK                         _______ _______ _______ _____ _____    ______ ____
ROOT
ATOM      1  C   UNL     1       1.788   3.495 -23.546  0.00  0.00    +0.124 A 
ATOM      2  C   UNL     1       0.974   2.761 -22.846  0.00  0.00    +0.093 A 
ATOM      3  C   UNL     1       1.443   1.849 -22.048  0.00  0.00    +0.148 A 
ATOM      4  C   UNL     1       2.727   1.672 -21.948  0.00  0.00    +0.095 A 
ATOM      5  N   UNL     1       3.197   0.760 -21.149  0.00  0.00    -0.319 N 
ATOM      6  H   UNL     1       2.581   0.204 -20.620  0.00  0.00    +0.169 HD
ATOM      7  C   UNL     1       4.481   0.582 -21.049  0.00  0.00    +0.253 A 
ATOM      8  C   UNL     1       5.295   1.316 -21.748  0.00  0.00    +0.116 A 
ATOM      9  C   UNL     1       4.825   2.228 -22.547  0.00  0.00    +0.135 A 
ATOM     10  O   UNL     1       4.951  -0.329 -20.251  0.00  0.00    -0.268 OA
ATOM     11  C   UNL     1       3.542   2.405 -22.647  0.00  0.00    +0.047 A 
ATOM     12  C   UNL     1       3.071   3.317 -23.446  0.00  0.00    +0.059 A 
ENDROOT
BRANCH   1  14
ATOM     13  C   UNL     1       0.902   4.079 -25.532  0.00  0.00    +0.277 C 
ATOM     14  O   UNL     1       1.318   4.406 -24.344  0.00  0.00    -0.495 OA
ENDBRANCH   1  14
BRANCH   9  15
ATOM     15  O   UNL     1       5.639   2.962 -23.246  0.00  0.00    -0.494 OA
ATOM     16  C   UNL     1       6.804   3.280 -22.765  0.00  0.00    +0.277 C 
ENDBRANCH   9  15
BRANCH   3  17
ATOM     17  O   UNL     1       0.629   1.115 -21.349  0.00  0.00    -0.493 OA
ATOM     18  C   UNL     1      -0.656   1.269 -21.474  0.00  0.00    +0.277 C 
ENDBRANCH   3  17
TORSDOF 3
ENDMDL
MODEL 8
REMARK VINA RESULT:    -6.282      3.268      5.504
REMARK INTER + INTRA:          -7.645
REMARK INTER:                  -7.365
REMARK INTRA:                  -0.280
REMARK UNBOUND:                -0.262
REMARK  Name = ZINC000014684899
REMARK  6 active torsions:
REMARK  status: ('A' for Active; 'I' for Inactive)
REMARK    1  A    between atoms: C_1  and  O_2
REMARK    2  A    between atoms: O_2  and  C_3
REMARK    3  A    between atoms: C_5  and  O_6
REMARK    4  A    between atoms: O_6  and  C_7
REMARK    5  A    between atoms: C_13  and  O_14
REMARK    6  A    between atoms: O_14  and  C_15
REMARK                            x       y       z     vdW  Elec       q    Type
REMARK                         _______ _______ _______ _____ _____    ______ ____
ROOT
ATOM      1  C   UNL     1       4.188   3.023 -23.093  0.00  0.00    +0.124 A 
ATOM      2  C   UNL     1       4.372   1.978 -22.343  0.00  0.00    +0.093 A 
ATOM      3  C   UNL     1       3.351   1.363 -21.823  0.00  0.00    +0.148 A 
ATOM      4  C   UNL     1       2.147   1.794 -22.053  0.00  0.00    +0.095 A 
ATOM      5  N   UNL     1       1.126   1.179 -21.533  0.00  0.00    -0.319 N 
ATOM      6  H   UNL     1       1.265   0.388 -20.966  0.00  0.00    +0.169 HD
ATOM      7  C   UNL     1      -0.079   1.610 -21.764  0.00  0.00    +0.253 A 
ATOM      8  C   UNL     1      -0.262   2.656 -22.514  0.00  0.00    +0.116 A 
ATOM      9  C   UNL     1       0.758   3.270 -23.034  0.00  0.00    +0.135 A 
ATOM     10  O   UNL     1      -1.099   0.995 -21.244  0.00  0.00    -0.268 OA
ATOM     11  C   UNL     1       1.962   2.839 -22.803  0.00  0.00    +0.047 A 
ATOM     12  C   UNL     1       2.984   3.454 -23.323  0.00  0.00    +0.059 A 
ENDROOT
BRANCH   1  14
ATOM     13  C   UNL     1       5.720   4.672 -23.012  0.00  0.00    +0.277 C 
ATOM     14  O   UNL     1       5.209   3.638 -23.612  0.00  0.00    -0.495 OA
ENDBRANCH   1  14
BRANCH   9  15
ATOM     15  O   UNL     1       0.574   4.316 -23.784  0.00  0.00    -0.494 OA
ATOM     16  C   UNL     1      -0.391   5.145 -23.518  0.00  0.00    +0.277 C 
ENDBRANCH   9  15
BRANCH   3  17
ATOM     17  O   UNL     1       3.535   0.317 -21.073  0.00  0.00    -0.493 OA
ATOM     18  C   UNL     1       4.712   0.072 -20.576  0.00  0.00    +0.277 C 
ENDBRANCH   3  17
TORSDOF 3
ENDMDL
MODEL 9
REMARK VINA RESULT:    -6.215      3.111      4.534
REMARK INTER + INTRA:          -7.567
REMARK INTER:                  -7.305
REMARK INTRA:                  -0.262
REMARK UNBOUND:                -0.262
REMARK  Name = ZINC000014684899
REMARK  6 active torsions:
REMARK  status: ('A' for Active; 'I' for Inactive)
REMARK    1  A    between atoms: C_1  and  O_2
REMARK    2  A    between atoms: O_2  and  C_3
REMARK    3  A    between atoms: C_5  and  O_6
REMARK    4  A    between atoms: O_6  and  C_7
REMARK    5  A    between atoms: C_13  and  O_14
REMARK    6  A    between atoms: O_14  and  C_15
REMARK                            x       y       z     vdW  Elec       q    Type
REMARK                         _______ _______ _______ _____ _____    ______ ____
ROOT
ATOM      1  C   UNL     1       3.845   1.546 -22.312  0.00  0.00    +0.124 A 
ATOM      2  C   UNL     1       4.428   2.678 -22.573  0.00  0.00    +0.093 A 
ATOM      3  C   UNL     1       3.717   3.715 -22.902  0.00  0.00    +0.148 A 
ATOM      4  C   UNL     1       2.423   3.620 -22.969  0.00  0.00    +0.095 A 
ATOM      5  N   UNL     1       1.710   4.658 -23.297  0.00  0.00    -0.319 N 
ATOM      6  H   UNL     1       2.152   5.515 -23.495  0.00  0.00    +0.169 HD
ATOM      7  C   UNL     1       0.416   4.563 -23.364  0.00  0.00    +0.253 A 
ATOM      8  C   UNL     1      -0.167   3.431 -23.103  0.00  0.00    +0.116 A 
ATOM      9  C   UNL     1       0.544   2.393 -22.775  0.00  0.00    +0.135 A 
ATOM     10  O   UNL     1      -0.296   5.600 -23.692  0.00  0.00    -0.268 OA
ATOM     11  C   UNL     1       1.839   2.489 -22.708  0.00  0.00    +0.047 A 
ATOM     12  C   UNL     1       2.551   1.451 -22.380  0.00  0.00    +0.059 A 
ENDROOT
BRANCH   1  14
ATOM     13  C   UNL     1       4.903   0.324 -20.745  0.00  0.00    +0.277 C 
ATOM     14  O   UNL     1       4.557   0.509 -21.984  0.00  0.00    -0.495 OA
ENDBRANCH   1  14
BRANCH   9  15
ATOM     15  O   UNL     1      -0.039   1.261 -22.514  0.00  0.00    -0.494 OA
ATOM     16  C   UNL     1      -1.043   1.222 -21.690  0.00  0.00    +0.277 C 
ENDBRANCH   9  15
BRANCH   3  17
ATOM     17  O   UNL     1       4.300   4.848 -23.163  0.00  0.00    -0.493 OA
ATOM     18  C   UNL     1       5.565   5.002 -22.905  0.00  0.00    +0.277 C 
ENDBRANCH   3  17
TORSDOF 3
ENDMDL
