MODEL 1
REMARK VINA RESULT:   -10.161      0.000      0.000
REMARK INTER + INTRA:         -10.161
REMARK INTER:                 -10.161
REMARK INTRA:                   0.000
REMARK UNBOUND:                 0.000
REMARK  Name = C=C1C(=O)O[C@H]2[C@H]1CC/C(C)=C/CC[C@]1(C)O[C@H]21                   ZINC000100066686
REMARK  2 active torsions:
REMARK  status: ('A' for Active; 'I' for Inactive)
REMARK    1  A    between atoms: C_10  and  C_11
REMARK    2  A    between atoms: C_15  and  C_16
REMARK                            x       y       z     vdW  Elec       q    Type
REMARK                         _______ _______ _______ _____ _____    ______ ____
ROOT
ATOM      1  C   UNL     1       0.666   2.439 -23.065  0.00  0.00    +0.020 C 
ATOM      2  C   UNL     1      -0.111   2.976 -23.973  0.00  0.00    +0.036 C 
ATOM      3  C   UNL     1       0.260   3.396 -25.157  0.00  0.00    +0.335 C 
ATOM      4  O   UNL     1      -0.799   3.866 -25.772  0.00  0.00    -0.455 OA
ATOM      5  C   UNL     1      -1.826   3.737 -24.968  0.00  0.00    +0.216 C 
ATOM      6  C   UNL     1      -3.178   4.083 -25.146  0.00  0.00    +0.192 C 
ATOM      7  O   UNL     1      -4.418   4.431 -25.381  0.00  0.00    -0.361 OA
ATOM      8  C   UNL     1      -4.096   3.885 -24.231  0.00  0.00    +0.097 C 
ATOM      9  C   UNL     1      -3.397   3.341 -23.266  0.00  0.00    +0.044 C 
ATOM     10  C   UNL     1      -5.356   3.903 -23.666  0.00  0.00    +0.041 C 
ATOM     11  C   UNL     1      -5.353   3.437 -22.553  0.00  0.00    +0.030 C 
ATOM     12  C   UNL     1      -4.211   3.138 -22.389  0.00  0.00    -0.028 C 
ATOM     13  C   UNL     1      -3.625   2.631 -21.458  0.00  0.00    -0.077 C 
ATOM     14  C   UNL     1      -4.187   2.278 -20.342  0.00  0.00    +0.039 C 
ATOM     15  C   UNL     1      -2.396   2.514 -21.769  0.00  0.00    +0.031 C 
ATOM     16  C   UNL     1      -2.343   3.012 -22.987  0.00  0.00    +0.016 C 
ATOM     17  O   UNL     1       1.479   3.353 -25.641  0.00  0.00    -0.245 OA
ATOM     18  C   UNL     1      -1.401   3.188 -23.859  0.00  0.00    +0.069 C 
ENDROOT
TORSDOF 0
ENDMDL
MODEL 2
REMARK VINA RESULT:   -10.113      1.278      1.689
REMARK INTER + INTRA:         -10.113
REMARK INTER:                 -10.113
REMARK INTRA:                   0.000
REMARK UNBOUND:                 0.000
REMARK  Name = C=C1C(=O)O[C@H]2[C@H]1CC/C(C)=C/CC[C@]1(C)O[C@H]21                   ZINC000100066686
REMARK  2 active torsions:
REMARK  status: ('A' for Active; 'I' for Inactive)
REMARK    1  A    between atoms: C_10  and  C_11
REMARK    2  A    between atoms: C_15  and  C_16
REMARK                            x       y       z     vdW  Elec       q    Type
REMARK                         _______ _______ _______ _____ _____    ______ ____
ROOT
ATOM      1  C   UNL     1      -0.244   1.747 -21.105  0.00  0.00    +0.020 C 
ATOM      2  C   UNL     1      -0.275   2.186 -22.339  0.00  0.00    +0.036 C 
ATOM      3  C   UNL     1       0.743   2.255 -23.160  0.00  0.00    +0.335 C 
ATOM      4  O   UNL     1       0.314   2.746 -24.299  0.00  0.00    -0.455 OA
ATOM      5  C   UNL     1      -0.970   2.981 -24.181  0.00  0.00    +0.216 C 
ATOM      6  C   UNL     1      -1.894   3.504 -25.105  0.00  0.00    +0.192 C 
ATOM      7  O   UNL     1      -2.697   3.996 -26.015  0.00  0.00    -0.361 OA
ATOM      8  C   UNL     1      -3.164   3.681 -24.829  0.00  0.00    +0.097 C 
ATOM      9  C   UNL     1      -3.227   3.260 -23.590  0.00  0.00    +0.044 C 
ATOM     10  C   UNL     1      -4.478   4.042 -25.052  0.00  0.00    +0.041 C 
ATOM     11  C   UNL     1      -5.165   3.849 -24.080  0.00  0.00    +0.030 C 
ATOM     12  C   UNL     1      -4.393   3.405 -23.287  0.00  0.00    -0.028 C 
ATOM     13  C   UNL     1      -4.522   3.031 -22.142  0.00  0.00    -0.077 C 
ATOM     14  C   UNL     1      -5.644   3.044 -21.489  0.00  0.00    +0.039 C 
ATOM     15  C   UNL     1      -3.389   2.638 -21.716  0.00  0.00    +0.031 C 
ATOM     16  C   UNL     1      -2.594   2.828 -22.747  0.00  0.00    +0.016 C 
ATOM     17  O   UNL     1       1.976   1.895 -22.890  0.00  0.00    -0.245 OA
ATOM     18  C   UNL     1      -1.333   2.636 -22.973  0.00  0.00    +0.069 C 
ENDROOT
TORSDOF 0
ENDMDL
MODEL 3
REMARK VINA RESULT:    -9.903      2.142      3.269
REMARK INTER + INTRA:          -9.903
REMARK INTER:                  -9.903
REMARK INTRA:                   0.000
REMARK UNBOUND:                 0.000
REMARK  Name = C=C1C(=O)O[C@H]2[C@H]1CC/C(C)=C/CC[C@]1(C)O[C@H]21                   ZINC000100066686
REMARK  2 active torsions:
REMARK  status: ('A' for Active; 'I' for Inactive)
REMARK    1  A    between atoms: C_10  and  C_11
REMARK    2  A    between atoms: C_15  and  C_16
REMARK                            x       y       z     vdW  Elec       q    Type
REMARK                         _______ _______ _______ _____ _____    ______ ____
ROOT
ATOM      1  C   UNL     1       0.796   2.616 -24.018  0.00  0.00    +0.020 C 
ATOM      2  C   UNL     1       0.067   2.358 -22.961  0.00  0.00    +0.036 C 
ATOM      3  C   UNL     1       0.488   1.812 -21.847  0.00  0.00    +0.335 C 
ATOM      4  O   UNL     1      -0.534   1.718 -21.029  0.00  0.00    -0.455 OA
ATOM      5  C   UNL     1      -1.587   2.206 -21.638  0.00  0.00    +0.216 C 
ATOM      6  C   UNL     1      -2.918   2.337 -21.201  0.00  0.00    +0.192 C 
ATOM      7  O   UNL     1      -4.136   2.428 -20.730  0.00  0.00    -0.361 OA
ATOM      8  C   UNL     1      -3.869   2.855 -21.942  0.00  0.00    +0.097 C 
ATOM      9  C   UNL     1      -3.219   3.148 -23.041  0.00  0.00    +0.044 C 
ATOM     10  C   UNL     1      -5.142   3.279 -22.267  0.00  0.00    +0.041 C 
ATOM     11  C   UNL     1      -5.189   3.739 -23.381  0.00  0.00    +0.030 C 
ATOM     12  C   UNL     1      -4.065   3.634 -23.763  0.00  0.00    -0.028 C 
ATOM     13  C   UNL     1      -3.526   3.931 -24.807  0.00  0.00    -0.077 C 
ATOM     14  C   UNL     1      -4.133   4.478 -25.816  0.00  0.00    +0.039 C 
ATOM     15  C   UNL     1      -2.295   3.616 -24.730  0.00  0.00    +0.031 C 
ATOM     16  C   UNL     1      -2.187   3.104 -23.522  0.00  0.00    +0.016 C 
ATOM     17  O   UNL     1       1.717   1.427 -21.595  0.00  0.00    -0.245 OA
ATOM     18  C   UNL     1      -1.216   2.601 -22.828  0.00  0.00    +0.069 C 
ENDROOT
TORSDOF 0
ENDMDL
MODEL 4
REMARK VINA RESULT:    -9.831      1.367      4.463
REMARK INTER + INTRA:          -9.831
REMARK INTER:                  -9.831
REMARK INTRA:                   0.000
REMARK UNBOUND:                 0.000
REMARK  Name = C=C1C(=O)O[C@H]2[C@H]1CC/C(C)=C/CC[C@]1(C)O[C@H]21                   ZINC000100066686
REMARK  2 active torsions:
REMARK  status: ('A' for Active; 'I' for Inactive)
REMARK    1  A    between atoms: C_10  and  C_11
REMARK    2  A    between atoms: C_15  and  C_16
REMARK                            x       y       z     vdW  Elec       q    Type
REMARK                         _______ _______ _______ _____ _____    ______ ____
ROOT
ATOM      1  C   UNL     1      -4.157   2.290 -20.499  0.00  0.00    +0.020 C 
ATOM      2  C   UNL     1      -4.086   2.753 -21.722  0.00  0.00    +0.036 C 
ATOM      3  C   UNL     1      -5.078   3.244 -22.421  0.00  0.00    +0.335 C 
ATOM      4  O   UNL     1      -4.612   3.600 -23.595  0.00  0.00    -0.455 OA
ATOM      5  C   UNL     1      -3.331   3.329 -23.622  0.00  0.00    +0.216 C 
ATOM      6  C   UNL     1      -2.376   3.516 -24.638  0.00  0.00    +0.192 C 
ATOM      7  O   UNL     1      -1.542   3.719 -25.628  0.00  0.00    -0.361 OA
ATOM      8  C   UNL     1      -1.113   3.186 -24.507  0.00  0.00    +0.097 C 
ATOM      9  C   UNL     1      -1.090   2.705 -23.289  0.00  0.00    +0.044 C 
ATOM     10  C   UNL     1       0.209   3.038 -24.874  0.00  0.00    +0.041 C 
ATOM     11  C   UNL     1       0.867   2.548 -23.990  0.00  0.00    +0.030 C 
ATOM     12  C   UNL     1       0.069   2.384 -23.120  0.00  0.00    -0.028 C 
ATOM     13  C   UNL     1       0.161   1.927 -22.002  0.00  0.00    -0.077 C 
ATOM     14  C   UNL     1       1.263   1.480 -21.481  0.00  0.00    +0.039 C 
ATOM     15  C   UNL     1      -0.988   1.965 -21.454  0.00  0.00    +0.031 C 
ATOM     16  C   UNL     1      -1.751   2.497 -22.385  0.00  0.00    +0.016 C 
ATOM     17  O   UNL     1      -6.321   3.360 -22.017  0.00  0.00    -0.245 OA
ATOM     18  C   UNL     1      -3.006   2.806 -22.467  0.00  0.00    +0.069 C 
ENDROOT
TORSDOF 0
ENDMDL
MODEL 5
REMARK VINA RESULT:    -9.601      2.197      5.321
REMARK INTER + INTRA:          -9.601
REMARK INTER:                  -9.601
REMARK INTRA:                   0.000
REMARK UNBOUND:                 0.000
REMARK  Name = C=C1C(=O)O[C@H]2[C@H]1CC/C(C)=C/CC[C@]1(C)O[C@H]21                   ZINC000100066686
REMARK  2 active torsions:
REMARK  status: ('A' for Active; 'I' for Inactive)
REMARK    1  A    between atoms: C_10  and  C_11
REMARK    2  A    between atoms: C_15  and  C_16
REMARK                            x       y       z     vdW  Elec       q    Type
REMARK                         _______ _______ _______ _____ _____    ______ ____
ROOT
ATOM      1  C   UNL     1      -4.209   4.170 -24.177  0.00  0.00    +0.020 C 
ATOM      2  C   UNL     1      -3.762   3.459 -23.171  0.00  0.00    +0.036 C 
ATOM      3  C   UNL     1      -4.475   2.998 -22.174  0.00  0.00    +0.335 C 
ATOM      4  O   UNL     1      -3.673   2.338 -21.372  0.00  0.00    -0.455 OA
ATOM      5  C   UNL     1      -2.464   2.391 -21.874  0.00  0.00    +0.216 C 
ATOM      6  C   UNL     1      -1.253   1.848 -21.405  0.00  0.00    +0.192 C 
ATOM      7  O   UNL     1      -0.164   1.315 -20.909  0.00  0.00    -0.361 OA
ATOM      8  C   UNL     1      -0.111   1.992 -22.032  0.00  0.00    +0.097 C 
ATOM      9  C   UNL     1      -0.467   2.705 -23.072  0.00  0.00    +0.044 C 
ATOM     10  C   UNL     1       1.243   1.849 -22.263  0.00  0.00    +0.041 C 
ATOM     11  C   UNL     1       1.584   2.400 -23.280  0.00  0.00    +0.030 C 
ATOM     12  C   UNL     1       0.566   2.865 -23.689  0.00  0.00    -0.028 C 
ATOM     13  C   UNL     1       0.305   3.523 -24.672  0.00  0.00    -0.077 C 
ATOM     14  C   UNL     1       1.176   3.886 -25.564  0.00  0.00    +0.039 C 
ATOM     15  C   UNL     1      -0.942   3.782 -24.666  0.00  0.00    +0.031 C 
ATOM     16  C   UNL     1      -1.368   3.197 -23.566  0.00  0.00    +0.016 C 
ATOM     17  O   UNL     1      -5.766   3.168 -22.008  0.00  0.00    -0.245 OA
ATOM     18  C   UNL     1      -2.519   3.082 -22.983  0.00  0.00    +0.069 C 
ENDROOT
TORSDOF 0
ENDMDL
MODEL 6
REMARK VINA RESULT:    -8.709      2.845      4.549
REMARK INTER + INTRA:          -8.709
REMARK INTER:                  -8.709
REMARK INTRA:                   0.000
REMARK UNBOUND:                 0.000
REMARK  Name = C=C1C(=O)O[C@H]2[C@H]1CC/C(C)=C/CC[C@]1(C)O[C@H]21                   ZINC000100066686
REMARK  2 active torsions:
REMARK  status: ('A' for Active; 'I' for Inactive)
REMARK    1  A    between atoms: C_10  and  C_11
REMARK    2  A    between atoms: C_15  and  C_16
REMARK                            x       y       z     vdW  Elec       q    Type
REMARK                         _______ _______ _______ _____ _____    ______ ____
ROOT
ATOM      1  C   UNL     1       3.257   0.428 -21.522  0.00  0.00    +0.020 C 
ATOM      2  C   UNL     1       3.408   1.564 -22.156  0.00  0.00    +0.036 C 
ATOM      3  C   UNL     1       4.539   2.066 -22.584  0.00  0.00    +0.335 C 
ATOM      4  O   UNL     1       4.281   3.213 -23.167  0.00  0.00    -0.455 OA
ATOM      5  C   UNL     1       2.989   3.420 -23.099  0.00  0.00    +0.216 C 
ATOM      6  C   UNL     1       2.208   4.492 -23.569  0.00  0.00    +0.192 C 
ATOM      7  O   UNL     1       1.544   5.522 -24.032  0.00  0.00    -0.361 OA
ATOM      8  C   UNL     1       0.906   4.551 -23.420  0.00  0.00    +0.097 C 
ATOM      9  C   UNL     1       0.661   3.433 -22.783  0.00  0.00    +0.044 C 
ATOM     10  C   UNL     1      -0.366   5.077 -23.528  0.00  0.00    +0.041 C 
ATOM     11  C   UNL     1      -1.192   4.357 -23.024  0.00  0.00    +0.030 C 
ATOM     12  C   UNL     1      -0.542   3.442 -22.621  0.00  0.00    -0.028 C 
ATOM     13  C   UNL     1      -0.839   2.426 -22.032  0.00  0.00    -0.077 C 
ATOM     14  C   UNL     1      -2.049   2.104 -21.690  0.00  0.00    +0.039 C 
ATOM     15  C   UNL     1       0.224   1.758 -21.819  0.00  0.00    +0.031 C 
ATOM     16  C   UNL     1       1.166   2.507 -22.354  0.00  0.00    +0.016 C 
ATOM     17  O   UNL     1       5.724   1.517 -22.452  0.00  0.00    -0.245 OA
ATOM     18  C   UNL     1       2.451   2.404 -22.476  0.00  0.00    +0.069 C 
ENDROOT
TORSDOF 0
ENDMDL
MODEL 7
REMARK VINA RESULT:    -8.608      1.335      3.589
REMARK INTER + INTRA:          -8.608
REMARK INTER:                  -8.608
REMARK INTRA:                   0.000
REMARK UNBOUND:                 0.000
REMARK  Name = C=C1C(=O)O[C@H]2[C@H]1CC/C(C)=C/CC[C@]1(C)O[C@H]21                   ZINC000100066686
REMARK  2 active torsions:
REMARK  status: ('A' for Active; 'I' for Inactive)
REMARK    1  A    between atoms: C_10  and  C_11
REMARK    2  A    between atoms: C_15  and  C_16
REMARK                            x       y       z     vdW  Elec       q    Type
REMARK                         _______ _______ _______ _____ _____    ______ ____
ROOT
ATOM      1  C   UNL     1      -5.045   4.204 -25.136  0.00  0.00    +0.020 C 
ATOM      2  C   UNL     1      -3.826   3.771 -25.347  0.00  0.00    +0.036 C 
ATOM      3  C   UNL     1      -3.240   3.651 -26.512  0.00  0.00    +0.335 C 
ATOM      4  O   UNL     1      -2.029   3.187 -26.312  0.00  0.00    -0.455 OA
ATOM      5  C   UNL     1      -1.867   3.020 -25.023  0.00  0.00    +0.216 C 
ATOM      6  C   UNL     1      -0.759   2.550 -24.293  0.00  0.00    +0.192 C 
ATOM      7  O   UNL     1       0.308   2.104 -23.678  0.00  0.00    -0.361 OA
ATOM      8  C   UNL     1      -0.755   2.440 -22.986  0.00  0.00    +0.097 C 
ATOM      9  C   UNL     1      -1.958   2.859 -22.680  0.00  0.00    +0.044 C 
ATOM     10  C   UNL     1      -0.252   2.150 -21.733  0.00  0.00    +0.041 C 
ATOM     11  C   UNL     1      -1.057   2.375 -20.864  0.00  0.00    +0.030 C 
ATOM     12  C   UNL     1      -2.003   2.775 -21.470  0.00  0.00    -0.028 C 
ATOM     13  C   UNL     1      -3.099   3.151 -21.119  0.00  0.00    -0.077 C 
ATOM     14  C   UNL     1      -3.497   3.196 -19.884  0.00  0.00    +0.039 C 
ATOM     15  C   UNL     1      -3.764   3.483 -22.153  0.00  0.00    +0.031 C 
ATOM     16  C   UNL     1      -2.923   3.254 -23.140  0.00  0.00    +0.016 C 
ATOM     17  O   UNL     1      -3.772   3.944 -27.675  0.00  0.00    -0.245 OA
ATOM     18  C   UNL     1      -2.975   3.380 -24.428  0.00  0.00    +0.069 C 
ENDROOT
TORSDOF 0
ENDMDL
MODEL 8
REMARK VINA RESULT:    -8.589      2.459      5.742
REMARK INTER + INTRA:          -8.589
REMARK INTER:                  -8.589
REMARK INTRA:                   0.000
REMARK UNBOUND:                 0.000
REMARK  Name = C=C1C(=O)O[C@H]2[C@H]1CC/C(C)=C/CC[C@]1(C)O[C@H]21                   ZINC000100066686
REMARK  2 active torsions:
REMARK  status: ('A' for Active; 'I' for Inactive)
REMARK    1  A    between atoms: C_10  and  C_11
REMARK    2  A    between atoms: C_15  and  C_16
REMARK                            x       y       z     vdW  Elec       q    Type
REMARK                         _______ _______ _______ _____ _____    ______ ____
ROOT
ATOM      1  C   UNL     1      -1.229   3.678 -25.441  0.00  0.00    +0.020 C 
ATOM      2  C   UNL     1      -1.393   3.133 -24.260  0.00  0.00    +0.036 C 
ATOM      3  C   UNL     1      -2.538   2.897 -23.670  0.00  0.00    +0.335 C 
ATOM      4  O   UNL     1      -2.289   2.346 -22.505  0.00  0.00    -0.455 OA
ATOM      5  C   UNL     1      -0.989   2.242 -22.375  0.00  0.00    +0.216 C 
ATOM      6  C   UNL     1      -0.213   1.726 -21.322  0.00  0.00    +0.192 C 
ATOM      7  O   UNL     1       0.446   1.230 -20.304  0.00  0.00    -0.361 OA
ATOM      8  C   UNL     1       1.098   1.693 -21.344  0.00  0.00    +0.097 C 
ATOM      9  C   UNL     1       1.356   2.228 -22.512  0.00  0.00    +0.044 C 
ATOM     10  C   UNL     1       2.374   1.436 -20.884  0.00  0.00    +0.041 C 
ATOM     11  C   UNL     1       3.214   1.779 -21.680  0.00  0.00    +0.030 C 
ATOM     12  C   UNL     1       2.568   2.219 -22.580  0.00  0.00    -0.028 C 
ATOM     13  C   UNL     1       2.877   2.705 -23.645  0.00  0.00    -0.077 C 
ATOM     14  C   UNL     1       4.100   2.855 -24.056  0.00  0.00    +0.039 C 
ATOM     15  C   UNL     1       1.814   3.029 -24.266  0.00  0.00    +0.031 C 
ATOM     16  C   UNL     1       0.857   2.674 -23.434  0.00  0.00    +0.016 C 
ATOM     17  O   UNL     1      -3.726   3.165 -24.160  0.00  0.00    -0.245 OA
ATOM     18  C   UNL     1      -0.437   2.728 -23.457  0.00  0.00    +0.069 C 
ENDROOT
TORSDOF 0
ENDMDL
MODEL 9
REMARK VINA RESULT:    -8.575      3.310      6.909
REMARK INTER + INTRA:          -8.575
REMARK INTER:                  -8.575
REMARK INTRA:                   0.000
REMARK UNBOUND:                 0.000
REMARK  Name = C=C1C(=O)O[C@H]2[C@H]1CC/C(C)=C/CC[C@]1(C)O[C@H]21                   ZINC000100066686
REMARK  2 active torsions:
REMARK  status: ('A' for Active; 'I' for Inactive)
REMARK    1  A    between atoms: C_10  and  C_11
REMARK    2  A    between atoms: C_15  and  C_16
REMARK                            x       y       z     vdW  Elec       q    Type
REMARK                         _______ _______ _______ _____ _____    ______ ____
ROOT
ATOM      1  C   UNL     1      -0.059   4.772 -23.630  0.00  0.00    +0.020 C 
ATOM      2  C   UNL     1       0.130   3.533 -23.245  0.00  0.00    +0.036 C 
ATOM      3  C   UNL     1      -0.798   2.624 -23.086  0.00  0.00    +0.335 C 
ATOM      4  O   UNL     1      -0.218   1.514 -22.694  0.00  0.00    -0.455 OA
ATOM      5  C   UNL     1       1.071   1.739 -22.610  0.00  0.00    +0.216 C 
ATOM      6  C   UNL     1       2.126   0.886 -22.238  0.00  0.00    +0.192 C 
ATOM      7  O   UNL     1       3.058   0.038 -21.882  0.00  0.00    -0.361 OA
ATOM      8  C   UNL     1       3.381   1.268 -22.205  0.00  0.00    +0.097 C 
ATOM      9  C   UNL     1       3.287   2.520 -22.582  0.00  0.00    +0.044 C 
ATOM     10  C   UNL     1       4.743   1.153 -22.013  0.00  0.00    +0.041 C 
ATOM     11  C   UNL     1       5.317   2.187 -22.250  0.00  0.00    +0.030 C 
ATOM     12  C   UNL     1       4.432   2.920 -22.567  0.00  0.00    -0.028 C 
ATOM     13  C   UNL     1       4.417   4.082 -22.909  0.00  0.00    -0.077 C 
ATOM     14  C   UNL     1       5.473   4.831 -23.007  0.00  0.00    +0.039 C 
ATOM     15  C   UNL     1       3.212   4.417 -23.147  0.00  0.00    +0.031 C 
ATOM     16  C   UNL     1       2.536   3.314 -22.902  0.00  0.00    +0.016 C 
ATOM     17  O   UNL     1      -2.084   2.793 -23.285  0.00  0.00    -0.245 OA
ATOM     18  C   UNL     1       1.285   2.983 -22.950  0.00  0.00    +0.069 C 
ENDROOT
TORSDOF 0
ENDMDL
