MODEL 1
REMARK VINA RESULT:    -8.414      0.000      0.000
REMARK INTER + INTRA:         -11.227
REMARK INTER:                 -10.253
REMARK INTRA:                  -0.974
REMARK UNBOUND:                -0.845
REMARK  Name = ZINC000085340915
REMARK  9 active torsions:
REMARK  status: ('A' for Active; 'I' for Inactive)
REMARK    1  A    between atoms: C_1  and  C_2
REMARK    2  A    between atoms: C_2  and  C_3
REMARK    3  A    between atoms: C_4  and  C_5
REMARK    4  A    between atoms: C_5  and  C_6
REMARK    5  A    between atoms: C_6  and  O_7
REMARK    6  A    between atoms: C_6  and  C_8
REMARK    7  A    between atoms: C_8  and  C_9
REMARK    8  A    between atoms: C_15  and  C_16
REMARK    9  A    between atoms: C_15  and  O_17
REMARK                            x       y       z     vdW  Elec       q    Type
REMARK                         _______ _______ _______ _____ _____    ______ ____
ROOT
ATOM      1  C   UNL     1      -3.105   3.221 -23.358  0.00  0.00    +0.026 C 
ATOM      2  C   UNL     1      -4.383   3.360 -23.011  0.00  0.00    +0.000 C 
ATOM      3  C   UNL     1      -5.600   3.413 -22.486  0.00  0.00    +0.004 C 
ATOM      4  C   UNL     1      -4.999   2.685 -21.013  0.00  0.00    +0.006 C 
ATOM      5  C   UNL     1      -3.782   2.631 -21.536  0.00  0.00    +0.021 C 
ATOM      6  C   UNL     1      -4.313   3.005 -22.174  0.00  0.00    +0.010 C 
ATOM      7  C   UNL     1      -3.426   3.765 -24.527  0.00  0.00    +0.017 C 
ATOM      8  C   UNL     1      -2.646   2.662 -22.227  0.00  0.00    +0.074 C 
ATOM      9  C   UNL     1      -1.609   2.621 -22.683  0.00  0.00    +0.042 C 
ENDROOT
BRANCH   8  10
ATOM     10  O   UNL     1      -2.078   2.106 -21.162  0.00  0.00    -0.388 OA
ATOM     11  H   UNL     1      -1.312   2.638 -20.889  0.00  0.00    +0.210 HD
ENDBRANCH   8  10
BRANCH   1  12
ATOM     12  C   UNL     1      -1.783   3.129 -23.843  0.00  0.00    +0.127 C 
BRANCH  12  13
ATOM     13  O   UNL     1      -1.210   1.958 -23.999  0.00  0.00    -0.391 OA
ATOM     14  H   UNL     1      -1.883   1.296 -24.222  0.00  0.00    +0.210 HD
ENDBRANCH  12  13
BRANCH  12  15
ATOM     15  C   UNL     1      -1.107   4.256 -24.145  0.00  0.00    +0.059 C 
BRANCH  15  18
ATOM     16  C   UNL     1       2.296   4.853 -23.603  0.00  0.00    +0.038 C 
ATOM     17  C   UNL     1       1.170   4.517 -24.212  0.00  0.00    -0.080 C 
ATOM     18  C   UNL     1       0.008   4.587 -23.547  0.00  0.00    -0.026 C 
ATOM     19  C   UNL     1       1.200   4.109 -25.483  0.00  0.00    +0.038 C 
ENDBRANCH  15  18
ENDBRANCH  12  15
ENDBRANCH   1  12
TORSDOF 5
ENDMDL
MODEL 2
REMARK VINA RESULT:    -8.225      1.455      5.171
REMARK INTER + INTRA:         -10.993
REMARK INTER:                 -10.019
REMARK INTRA:                  -0.974
REMARK UNBOUND:                -0.845
REMARK  Name = ZINC000085340915
REMARK  9 active torsions:
REMARK  status: ('A' for Active; 'I' for Inactive)
REMARK    1  A    between atoms: C_1  and  C_2
REMARK    2  A    between atoms: C_2  and  C_3
REMARK    3  A    between atoms: C_4  and  C_5
REMARK    4  A    between atoms: C_5  and  C_6
REMARK    5  A    between atoms: C_6  and  O_7
REMARK    6  A    between atoms: C_6  and  C_8
REMARK    7  A    between atoms: C_8  and  C_9
REMARK    8  A    between atoms: C_15  and  C_16
REMARK    9  A    between atoms: C_15  and  O_17
REMARK                            x       y       z     vdW  Elec       q    Type
REMARK                         _______ _______ _______ _____ _____    ______ ____
ROOT
ATOM      1  C   UNL     1       0.044   4.051 -23.439  0.00  0.00    +0.026 C 
ATOM      2  C   UNL     1       1.141   4.803 -23.375  0.00  0.00    +0.000 C 
ATOM      3  C   UNL     1       2.335   5.373 -23.289  0.00  0.00    +0.004 C 
ATOM      4  C   UNL     1       3.076   3.799 -23.101  0.00  0.00    +0.006 C 
ATOM      5  C   UNL     1       1.883   3.227 -23.188  0.00  0.00    +0.021 C 
ATOM      6  C   UNL     1       1.739   4.123 -23.265  0.00  0.00    +0.010 C 
ATOM      7  C   UNL     1      -0.645   5.176 -23.589  0.00  0.00    +0.017 C 
ATOM      8  C   UNL     1       0.615   2.844 -23.295  0.00  0.00    +0.074 C 
ATOM      9  C   UNL     1      -0.409   2.364 -23.370  0.00  0.00    +0.042 C 
ENDROOT
BRANCH   8  10
ATOM     10  O   UNL     1       1.063   1.600 -23.161  0.00  0.00    -0.388 OA
ATOM     11  H   UNL     1       1.478   1.497 -22.289  0.00  0.00    +0.210 HD
ENDBRANCH   8  10
BRANCH   1  12
ATOM     12  C   UNL     1      -1.188   3.367 -23.521  0.00  0.00    +0.127 C 
BRANCH  12  13
ATOM     13  O   UNL     1      -1.319   2.321 -24.304  0.00  0.00    -0.391 OA
ATOM     14  H   UNL     1      -2.253   2.205 -24.535  0.00  0.00    +0.210 HD
ENDBRANCH  12  13
BRANCH  12  15
ATOM     15  C   UNL     1      -2.234   3.796 -22.788  0.00  0.00    +0.059 C 
BRANCH  15  18
ATOM     16  C   UNL     1      -4.550   2.186 -20.719  0.00  0.00    +0.038 C 
ATOM     17  C   UNL     1      -3.581   2.997 -21.112  0.00  0.00    -0.080 C 
ATOM     18  C   UNL     1      -3.192   2.995 -22.395  0.00  0.00    -0.026 C 
ATOM     19  C   UNL     1      -2.999   3.812 -20.229  0.00  0.00    +0.038 C 
ENDBRANCH  15  18
ENDBRANCH  12  15
ENDBRANCH   1  12
TORSDOF 5
ENDMDL
MODEL 3
REMARK VINA RESULT:    -8.196      0.965      1.753
REMARK INTER + INTRA:         -10.957
REMARK INTER:                 -10.626
REMARK INTRA:                  -0.331
REMARK UNBOUND:                -0.845
REMARK  Name = ZINC000085340915
REMARK  9 active torsions:
REMARK  status: ('A' for Active; 'I' for Inactive)
REMARK    1  A    between atoms: C_1  and  C_2
REMARK    2  A    between atoms: C_2  and  C_3
REMARK    3  A    between atoms: C_4  and  C_5
REMARK    4  A    between atoms: C_5  and  C_6
REMARK    5  A    between atoms: C_6  and  O_7
REMARK    6  A    between atoms: C_6  and  C_8
REMARK    7  A    between atoms: C_8  and  C_9
REMARK    8  A    between atoms: C_15  and  C_16
REMARK    9  A    between atoms: C_15  and  O_17
REMARK                            x       y       z     vdW  Elec       q    Type
REMARK                         _______ _______ _______ _____ _____    ______ ____
ROOT
ATOM      1  C   UNL     1      -2.632   2.844 -22.574  0.00  0.00    +0.026 C 
ATOM      2  C   UNL     1      -3.556   2.675 -21.630  0.00  0.00    +0.000 C 
ATOM      3  C   UNL     1      -4.608   2.587 -20.827  0.00  0.00    +0.004 C 
ATOM      4  C   UNL     1      -5.621   3.282 -22.074  0.00  0.00    +0.006 C 
ATOM      5  C   UNL     1      -4.570   3.371 -22.878  0.00  0.00    +0.021 C 
ATOM      6  C   UNL     1      -4.263   3.006 -22.102  0.00  0.00    +0.010 C 
ATOM      7  C   UNL     1      -1.754   2.330 -21.721  0.00  0.00    +0.017 C 
ATOM      8  C   UNL     1      -3.411   3.377 -23.529  0.00  0.00    +0.074 C 
ATOM      9  C   UNL     1      -2.507   3.449 -24.209  0.00  0.00    +0.042 C 
ENDROOT
BRANCH   8  10
ATOM     10  O   UNL     1      -4.078   3.911 -24.547  0.00  0.00    -0.388 OA
ATOM     11  H   UNL     1      -4.625   3.229 -24.969  0.00  0.00    +0.210 HD
ENDBRANCH   8  10
BRANCH   1  12
ATOM     12  C   UNL     1      -1.565   2.972 -23.488  0.00  0.00    +0.127 C 
BRANCH  12  13
ATOM     13  O   UNL     1      -1.022   1.908 -24.033  0.00  0.00    -0.391 OA
ATOM     14  H   UNL     1      -0.297   2.178 -24.616  0.00  0.00    +0.210 HD
ENDBRANCH  12  13
BRANCH  12  15
ATOM     15  C   UNL     1      -1.104   4.199 -23.801  0.00  0.00    +0.059 C 
BRANCH  15  18
ATOM     16  C   UNL     1       2.208   5.246 -23.391  0.00  0.00    +0.038 C 
ATOM     17  C   UNL     1       1.122   4.734 -23.946  0.00  0.00    -0.080 C 
ATOM     18  C   UNL     1      -0.027   4.705 -23.256  0.00  0.00    -0.026 C 
ATOM     19  C   UNL     1       1.177   4.251 -25.190  0.00  0.00    +0.038 C 
ENDBRANCH  15  18
ENDBRANCH  12  15
ENDBRANCH   1  12
TORSDOF 5
ENDMDL
MODEL 4
REMARK VINA RESULT:    -7.951      1.693      2.041
REMARK INTER + INTRA:         -10.655
REMARK INTER:                  -9.824
REMARK INTRA:                  -0.831
REMARK UNBOUND:                -0.845
REMARK  Name = ZINC000085340915
REMARK  9 active torsions:
REMARK  status: ('A' for Active; 'I' for Inactive)
REMARK    1  A    between atoms: C_1  and  C_2
REMARK    2  A    between atoms: C_2  and  C_3
REMARK    3  A    between atoms: C_4  and  C_5
REMARK    4  A    between atoms: C_5  and  C_6
REMARK    5  A    between atoms: C_6  and  O_7
REMARK    6  A    between atoms: C_6  and  C_8
REMARK    7  A    between atoms: C_8  and  C_9
REMARK    8  A    between atoms: C_15  and  C_16
REMARK    9  A    between atoms: C_15  and  O_17
REMARK                            x       y       z     vdW  Elec       q    Type
REMARK                         _______ _______ _______ _____ _____    ______ ____
ROOT
ATOM      1  C   UNL     1      -2.976   3.807 -23.215  0.00  0.00    +0.026 C 
ATOM      2  C   UNL     1      -4.241   3.779 -23.629  0.00  0.00    +0.000 C 
ATOM      3  C   UNL     1      -5.547   3.700 -23.845  0.00  0.00    +0.004 C 
ATOM      4  C   UNL     1      -5.802   3.273 -22.168  0.00  0.00    +0.006 C 
ATOM      5  C   UNL     1      -4.497   3.351 -21.949  0.00  0.00    +0.021 C 
ATOM      6  C   UNL     1      -4.617   3.550 -22.830  0.00  0.00    +0.010 C 
ATOM      7  C   UNL     1      -2.641   4.138 -24.457  0.00  0.00    +0.017 C 
ATOM      8  C   UNL     1      -3.174   3.479 -21.928  0.00  0.00    +0.074 C 
ATOM      9  C   UNL     1      -2.057   3.549 -21.751  0.00  0.00    +0.042 C 
ENDROOT
BRANCH   8  10
ATOM     10  O   UNL     1      -3.245   3.163 -20.639  0.00  0.00    -0.388 OA
ATOM     11  H   UNL     1      -2.753   3.818 -20.118  0.00  0.00    +0.210 HD
ENDBRANCH   8  10
BRANCH   1  12
ATOM     12  C   UNL     1      -1.601   3.870 -22.901  0.00  0.00    +0.127 C 
BRANCH  12  13
ATOM     13  O   UNL     1      -1.099   4.930 -22.313  0.00  0.00    -0.391 OA
ATOM     14  H   UNL     1      -0.459   5.356 -22.904  0.00  0.00    +0.210 HD
ENDBRANCH  12  13
BRANCH  12  15
ATOM     15  C   UNL     1      -0.803   2.829 -23.211  0.00  0.00    +0.059 C 
BRANCH  15  18
ATOM     16  C   UNL     1       2.611   2.368 -22.605  0.00  0.00    +0.038 C 
ATOM     17  C   UNL     1       1.298   2.246 -22.498  0.00  0.00    -0.080 C 
ATOM     18  C   UNL     1       0.497   2.947 -23.314  0.00  0.00    -0.026 C 
ATOM     19  C   UNL     1       0.781   1.427 -21.580  0.00  0.00    +0.038 C 
ENDBRANCH  15  18
ENDBRANCH  12  15
ENDBRANCH   1  12
TORSDOF 5
ENDMDL
MODEL 5
REMARK VINA RESULT:    -7.743      1.607      4.971
REMARK INTER + INTRA:         -10.398
REMARK INTER:                  -9.477
REMARK INTRA:                  -0.921
REMARK UNBOUND:                -0.845
REMARK  Name = ZINC000085340915
REMARK  9 active torsions:
REMARK  status: ('A' for Active; 'I' for Inactive)
REMARK    1  A    between atoms: C_1  and  C_2
REMARK    2  A    between atoms: C_2  and  C_3
REMARK    3  A    between atoms: C_4  and  C_5
REMARK    4  A    between atoms: C_5  and  C_6
REMARK    5  A    between atoms: C_6  and  O_7
REMARK    6  A    between atoms: C_6  and  C_8
REMARK    7  A    between atoms: C_8  and  C_9
REMARK    8  A    between atoms: C_15  and  C_16
REMARK    9  A    between atoms: C_15  and  O_17
REMARK                            x       y       z     vdW  Elec       q    Type
REMARK                         _______ _______ _______ _____ _____    ______ ____
ROOT
ATOM      1  C   UNL     1       0.391   3.385 -23.460  0.00  0.00    +0.026 C 
ATOM      2  C   UNL     1       1.665   3.761 -23.366  0.00  0.00    +0.000 C 
ATOM      3  C   UNL     1       2.961   3.958 -23.169  0.00  0.00    +0.004 C 
ATOM      4  C   UNL     1       3.065   2.436 -22.312  0.00  0.00    +0.006 C 
ATOM      5  C   UNL     1       1.769   2.237 -22.508  0.00  0.00    +0.021 C 
ATOM      6  C   UNL     1       1.963   3.036 -22.899  0.00  0.00    +0.010 C 
ATOM      7  C   UNL     1       0.171   4.512 -24.128  0.00  0.00    +0.017 C 
ATOM      8  C   UNL     1       0.472   2.217 -22.802  0.00  0.00    +0.074 C 
ATOM      9  C   UNL     1      -0.636   2.057 -22.975  0.00  0.00    +0.042 C 
ENDROOT
BRANCH   8  10
ATOM     10  O   UNL     1       0.430   1.048 -22.172  0.00  0.00    -0.388 OA
ATOM     11  H   UNL     1       0.235   0.343 -22.811  0.00  0.00    +0.210 HD
ENDBRANCH   8  10
BRANCH   1  12
ATOM     12  C   UNL     1      -0.982   3.100 -23.627  0.00  0.00    +0.127 C 
BRANCH  12  13
ATOM     13  O   UNL     1      -1.366   1.973 -24.179  0.00  0.00    -0.391 OA
ATOM     14  H   UNL     1      -0.978   1.227 -23.696  0.00  0.00    +0.210 HD
ENDBRANCH  12  13
BRANCH  12  15
ATOM     15  C   UNL     1      -1.900   3.997 -23.214  0.00  0.00    +0.059 C 
BRANCH  15  18
ATOM     16  C   UNL     1      -5.331   3.726 -23.832  0.00  0.00    +0.038 C 
ATOM     17  C   UNL     1      -4.056   4.040 -23.993  0.00  0.00    -0.080 C 
ATOM     18  C   UNL     1      -3.162   3.688 -23.058  0.00  0.00    -0.026 C 
ATOM     19  C   UNL     1      -3.669   4.704 -25.085  0.00  0.00    +0.038 C 
ENDBRANCH  15  18
ENDBRANCH  12  15
ENDBRANCH   1  12
TORSDOF 5
ENDMDL
MODEL 6
REMARK VINA RESULT:    -7.592      1.790      5.273
REMARK INTER + INTRA:         -10.212
REMARK INTER:                  -9.367
REMARK INTRA:                  -0.845
REMARK UNBOUND:                -0.845
REMARK  Name = ZINC000085340915
REMARK  9 active torsions:
REMARK  status: ('A' for Active; 'I' for Inactive)
REMARK    1  A    between atoms: C_1  and  C_2
REMARK    2  A    between atoms: C_2  and  C_3
REMARK    3  A    between atoms: C_4  and  C_5
REMARK    4  A    between atoms: C_5  and  C_6
REMARK    5  A    between atoms: C_6  and  O_7
REMARK    6  A    between atoms: C_6  and  C_8
REMARK    7  A    between atoms: C_8  and  C_9
REMARK    8  A    between atoms: C_15  and  C_16
REMARK    9  A    between atoms: C_15  and  O_17
REMARK                            x       y       z     vdW  Elec       q    Type
REMARK                         _______ _______ _______ _____ _____    ______ ____
ROOT
ATOM      1  C   UNL     1       0.160   3.172 -22.872  0.00  0.00    +0.026 C 
ATOM      2  C   UNL     1       1.355   2.584 -22.897  0.00  0.00    +0.000 C 
ATOM      3  C   UNL     1       2.616   2.184 -22.979  0.00  0.00    +0.004 C 
ATOM      4  C   UNL     1       3.099   3.796 -23.459  0.00  0.00    +0.006 C 
ATOM      5  C   UNL     1       1.838   4.198 -23.377  0.00  0.00    +0.021 C 
ATOM      6  C   UNL     1       1.836   3.315 -23.153  0.00  0.00    +0.010 C 
ATOM      7  C   UNL     1      -0.342   2.000 -22.501  0.00  0.00    +0.017 C 
ATOM      8  C   UNL     1       0.533   4.409 -23.240  0.00  0.00    +0.074 C 
ATOM      9  C   UNL     1      -0.547   4.743 -23.168  0.00  0.00    +0.042 C 
ENDROOT
BRANCH   8  10
ATOM     10  O   UNL     1       0.780   5.665 -23.595  0.00  0.00    -0.388 OA
ATOM     11  H   UNL     1       0.160   5.933 -24.293  0.00  0.00    +0.210 HD
ENDBRANCH   8  10
BRANCH   1  12
ATOM     12  C   UNL     1      -1.156   3.678 -22.809  0.00  0.00    +0.127 C 
BRANCH  12  13
ATOM     13  O   UNL     1      -1.464   4.632 -21.962  0.00  0.00    -0.391 OA
ATOM     14  H   UNL     1      -0.947   4.522 -21.149  0.00  0.00    +0.210 HD
ENDBRANCH  12  13
BRANCH  12  15
ATOM     15  C   UNL     1      -2.100   3.171 -23.627  0.00  0.00    +0.059 C 
BRANCH  15  18
ATOM     16  C   UNL     1      -5.527   3.848 -23.799  0.00  0.00    +0.038 C 
ATOM     17  C   UNL     1      -4.241   3.837 -24.110  0.00  0.00    -0.080 C 
ATOM     18  C   UNL     1      -3.373   3.185 -23.323  0.00  0.00    -0.026 C 
ATOM     19  C   UNL     1      -3.817   4.474 -25.204  0.00  0.00    +0.038 C 
ENDBRANCH  15  18
ENDBRANCH  12  15
ENDBRANCH   1  12
TORSDOF 5
ENDMDL
MODEL 7
REMARK VINA RESULT:    -7.495      1.922      3.260
REMARK INTER + INTRA:         -10.092
REMARK INTER:                  -9.119
REMARK INTRA:                  -0.973
REMARK UNBOUND:                -0.845
REMARK  Name = ZINC000085340915
REMARK  9 active torsions:
REMARK  status: ('A' for Active; 'I' for Inactive)
REMARK    1  A    between atoms: C_1  and  C_2
REMARK    2  A    between atoms: C_2  and  C_3
REMARK    3  A    between atoms: C_4  and  C_5
REMARK    4  A    between atoms: C_5  and  C_6
REMARK    5  A    between atoms: C_6  and  O_7
REMARK    6  A    between atoms: C_6  and  C_8
REMARK    7  A    between atoms: C_8  and  C_9
REMARK    8  A    between atoms: C_15  and  C_16
REMARK    9  A    between atoms: C_15  and  O_17
REMARK                            x       y       z     vdW  Elec       q    Type
REMARK                         _______ _______ _______ _____ _____    ______ ____
ROOT
ATOM      1  C   UNL     1      -0.670   2.744 -23.485  0.00  0.00    +0.026 C 
ATOM      2  C   UNL     1      -1.970   2.873 -23.226  0.00  0.00    +0.000 C 
ATOM      3  C   UNL     1      -3.277   3.082 -23.157  0.00  0.00    +0.004 C 
ATOM      4  C   UNL     1      -3.259   3.745 -24.777  0.00  0.00    +0.006 C 
ATOM      5  C   UNL     1      -1.951   3.536 -24.847  0.00  0.00    +0.021 C 
ATOM      6  C   UNL     1      -2.209   3.245 -24.024  0.00  0.00    +0.010 C 
ATOM      7  C   UNL     1      -0.541   2.221 -22.271  0.00  0.00    +0.017 C 
ATOM      8  C   UNL     1      -0.658   3.253 -24.728  0.00  0.00    +0.074 C 
ATOM      9  C   UNL     1       0.459   3.071 -24.778  0.00  0.00    +0.042 C 
ENDROOT
BRANCH   8  10
ATOM     10  O   UNL     1      -0.522   3.734 -25.959  0.00  0.00    -0.388 OA
ATOM     11  H   UNL     1       0.363   3.518 -26.295  0.00  0.00    +0.210 HD
ENDBRANCH   8  10
BRANCH   1  12
ATOM     12  C   UNL     1       0.720   2.555 -23.638  0.00  0.00    +0.127 C 
BRANCH  12  13
ATOM     13  O   UNL     1       1.193   1.885 -24.664  0.00  0.00    -0.391 OA
ATOM     14  H   UNL     1       1.181   2.450 -25.452  0.00  0.00    +0.210 HD
ENDBRANCH  12  13
BRANCH  12  15
ATOM     15  C   UNL     1       1.564   3.068 -22.721  0.00  0.00    +0.059 C 
BRANCH  15  18
ATOM     16  C   UNL     1       4.796   4.299 -23.242  0.00  0.00    +0.038 C 
ATOM     17  C   UNL     1       3.485   4.273 -23.063  0.00  0.00    -0.080 C 
ATOM     18  C   UNL     1       2.860   3.099 -22.898  0.00  0.00    -0.026 C 
ATOM     19  C   UNL     1       2.794   5.416 -23.047  0.00  0.00    +0.038 C 
ENDBRANCH  15  18
ENDBRANCH  12  15
ENDBRANCH   1  12
TORSDOF 5
ENDMDL
MODEL 8
REMARK VINA RESULT:    -7.464      2.457      5.660
REMARK INTER + INTRA:         -10.055
REMARK INTER:                  -9.171
REMARK INTRA:                  -0.884
REMARK UNBOUND:                -0.845
REMARK  Name = ZINC000085340915
REMARK  9 active torsions:
REMARK  status: ('A' for Active; 'I' for Inactive)
REMARK    1  A    between atoms: C_1  and  C_2
REMARK    2  A    between atoms: C_2  and  C_3
REMARK    3  A    between atoms: C_4  and  C_5
REMARK    4  A    between atoms: C_5  and  C_6
REMARK    5  A    between atoms: C_6  and  O_7
REMARK    6  A    between atoms: C_6  and  C_8
REMARK    7  A    between atoms: C_8  and  C_9
REMARK    8  A    between atoms: C_15  and  C_16
REMARK    9  A    between atoms: C_15  and  O_17
REMARK                            x       y       z     vdW  Elec       q    Type
REMARK                         _______ _______ _______ _____ _____    ______ ____
ROOT
ATOM      1  C   UNL     1       0.713   2.051 -22.429  0.00  0.00    +0.026 C 
ATOM      2  C   UNL     1       1.818   1.308 -22.417  0.00  0.00    +0.000 C 
ATOM      3  C   UNL     1       2.947   0.638 -22.598  0.00  0.00    +0.004 C 
ATOM      4  C   UNL     1       3.081   1.294 -24.215  0.00  0.00    +0.006 C 
ATOM      5  C   UNL     1       1.951   1.965 -24.036  0.00  0.00    +0.021 C 
ATOM      6  C   UNL     1       2.099   1.509 -23.261  0.00  0.00    +0.010 C 
ATOM      7  C   UNL     1       0.489   1.629 -21.189  0.00  0.00    +0.017 C 
ATOM      8  C   UNL     1       0.817   2.554 -23.670  0.00  0.00    +0.074 C 
ATOM      9  C   UNL     1      -0.149   3.123 -23.507  0.00  0.00    +0.042 C 
ENDROOT
BRANCH   8  10
ATOM     10  O   UNL     1       0.812   3.112 -24.875  0.00  0.00    -0.388 OA
ATOM     11  H   UNL     1       1.647   2.913 -25.328  0.00  0.00    +0.210 HD
ENDBRANCH   8  10
BRANCH   1  12
ATOM     12  C   UNL     1      -0.481   2.796 -22.316  0.00  0.00    +0.127 C 
BRANCH  12  13
ATOM     13  O   UNL     1      -0.529   4.044 -22.723  0.00  0.00    -0.391 OA
ATOM     14  H   UNL     1       0.054   4.586 -22.170  0.00  0.00    +0.210 HD
ENDBRANCH  12  13
BRANCH  12  15
ATOM     15  C   UNL     1      -1.576   2.217 -21.787  0.00  0.00    +0.059 C 
BRANCH  15  18
ATOM     16  C   UNL     1      -4.851   3.444 -21.845  0.00  0.00    +0.038 C 
ATOM     17  C   UNL     1      -3.629   3.171 -21.418  0.00  0.00    -0.080 C 
ATOM     18  C   UNL     1      -2.786   2.488 -22.205  0.00  0.00    -0.026 C 
ATOM     19  C   UNL     1      -3.243   3.580 -20.206  0.00  0.00    +0.038 C 
ENDBRANCH  15  18
ENDBRANCH  12  15
ENDBRANCH   1  12
TORSDOF 5
ENDMDL
MODEL 9
REMARK VINA RESULT:    -7.295      2.495      6.378
REMARK INTER + INTRA:          -9.846
REMARK INTER:                  -9.001
REMARK INTRA:                  -0.845
REMARK UNBOUND:                -0.845
REMARK  Name = ZINC000085340915
REMARK  9 active torsions:
REMARK  status: ('A' for Active; 'I' for Inactive)
REMARK    1  A    between atoms: C_1  and  C_2
REMARK    2  A    between atoms: C_2  and  C_3
REMARK    3  A    between atoms: C_4  and  C_5
REMARK    4  A    between atoms: C_5  and  C_6
REMARK    5  A    between atoms: C_6  and  O_7
REMARK    6  A    between atoms: C_6  and  C_8
REMARK    7  A    between atoms: C_8  and  C_9
REMARK    8  A    between atoms: C_15  and  C_16
REMARK    9  A    between atoms: C_15  and  O_17
REMARK                            x       y       z     vdW  Elec       q    Type
REMARK                         _______ _______ _______ _____ _____    ______ ____
ROOT
ATOM      1  C   UNL     1       2.615   3.633 -24.022  0.00  0.00    +0.026 C 
ATOM      2  C   UNL     1       3.682   4.182 -23.446  0.00  0.00    +0.000 C 
ATOM      3  C   UNL     1       4.842   4.551 -22.920  0.00  0.00    +0.004 C 
ATOM      4  C   UNL     1       5.541   3.012 -23.374  0.00  0.00    +0.006 C 
ATOM      5  C   UNL     1       4.383   2.641 -23.900  0.00  0.00    +0.021 C 
ATOM      6  C   UNL     1       4.253   3.481 -23.573  0.00  0.00    +0.010 C 
ATOM      7  C   UNL     1       1.960   4.753 -23.737  0.00  0.00    +0.017 C 
ATOM      8  C   UNL     1       3.153   2.452 -24.369  0.00  0.00    +0.074 C 
ATOM      9  C   UNL     1       2.159   2.144 -24.816  0.00  0.00    +0.042 C 
ENDROOT
BRANCH   8  10
ATOM     10  O   UNL     1       3.573   1.254 -24.761  0.00  0.00    -0.388 OA
ATOM     11  H   UNL     1       4.532   1.186 -24.621  0.00  0.00    +0.210 HD
ENDBRANCH   8  10
BRANCH   1  12
ATOM     12  C   UNL     1       1.417   3.163 -24.603  0.00  0.00    +0.127 C 
BRANCH  12  13
ATOM     13  O   UNL     1       1.363   2.884 -25.885  0.00  0.00    -0.391 OA
ATOM     14  H   UNL     1       1.485   3.698 -26.398  0.00  0.00    +0.210 HD
ENDBRANCH  12  13
BRANCH  12  15
ATOM     15  C   UNL     1       0.324   3.003 -23.831  0.00  0.00    +0.059 C 
BRANCH  15  18
ATOM     16  C   UNL     1      -3.021   3.968 -24.167  0.00  0.00    +0.038 C 
ATOM     17  C   UNL     1      -1.793   3.873 -23.683  0.00  0.00    -0.080 C 
ATOM     18  C   UNL     1      -0.892   3.100 -24.306  0.00  0.00    -0.026 C 
ATOM     19  C   UNL     1      -1.460   4.548 -22.580  0.00  0.00    +0.038 C 
ENDBRANCH  15  18
ENDBRANCH  12  15
ENDBRANCH   1  12
TORSDOF 5
ENDMDL
