MODEL 1
REMARK VINA RESULT:   -10.993      0.000      0.000
REMARK INTER + INTRA:         -10.993
REMARK INTER:                 -10.993
REMARK INTRA:                   0.000
REMARK UNBOUND:                 0.000
REMARK  Name = ZINC000071325824
REMARK  3 active torsions:
REMARK  status: ('A' for Active; 'I' for Inactive)
REMARK    1  A    between atoms: C_1  and  C_2
REMARK    2  A    between atoms: C_16  and  C_17
REMARK    3  A    between atoms: C_16  and  C_18
REMARK                            x       y       z     vdW  Elec       q    Type
REMARK                         _______ _______ _______ _____ _____    ______ ____
ROOT
ATOM      1  C   UNL     1       0.667   3.753 -25.495  0.00  0.00    +0.047 C 
ATOM      2  C   UNL     1      -0.056   3.357 -24.490  0.00  0.00    -0.008 A 
ATOM      3  C   UNL     1      -1.335   3.591 -24.477  0.00  0.00    +0.017 A 
ATOM      4  C   UNL     1      -2.058   3.195 -23.473  0.00  0.00    +0.008 A 
ATOM      5  C   UNL     1      -1.503   2.564 -22.481  0.00  0.00    +0.054 A 
ATOM      6  C   UNL     1      -0.224   2.330 -22.494  0.00  0.00    +0.019 A 
ATOM      7  C   UNL     1       0.331   1.699 -21.501  0.00  0.00    +0.045 C 
ATOM      8  C   UNL     1       1.610   1.465 -21.515  0.00  0.00    +0.052 C 
ATOM      9  C   UNL     1       2.333   1.862 -22.520  0.00  0.00    +0.105 C 
ATOM     10  C   UNL     1       3.375   2.063 -23.270  0.00  0.00    +0.055 C 
ATOM     11  C   UNL     1       3.250   1.301 -21.789  0.00  0.00    +0.055 C 
ATOM     12  O   UNL     1       1.778   2.492 -23.511  0.00  0.00    -0.486 OA
ATOM     13  N   UNL     1      -2.430   2.280 -21.615  0.00  0.00    -0.354 N 
ATOM     14  H   UNL     1      -2.301   1.804 -20.763  0.00  0.00    +0.166 HD
ATOM     15  C   UNL     1      -3.560   2.735 -22.072  0.00  0.00    +0.047 A 
ATOM     16  C   UNL     1      -4.767   2.708 -21.592  0.00  0.00    +0.026 A 
ATOM     17  C   UNL     1      -5.744   3.246 -22.259  0.00  0.00    +0.002 A 
ATOM     18  C   UNL     1      -5.514   3.811 -23.406  0.00  0.00    +0.001 A 
ATOM     19  C   UNL     1      -4.307   3.838 -23.887  0.00  0.00    +0.010 A 
ATOM     20  C   UNL     1      -3.330   3.300 -23.220  0.00  0.00    +0.007 A 
ATOM     21  C   UNL     1       0.499   2.727 -23.499  0.00  0.00    +0.129 A 
ENDROOT
TORSDOF 0
ENDMDL
MODEL 2
REMARK VINA RESULT:   -10.660      1.911      6.124
REMARK INTER + INTRA:         -10.660
REMARK INTER:                 -10.660
REMARK INTRA:                   0.000
REMARK UNBOUND:                 0.000
REMARK  Name = ZINC000071325824
REMARK  3 active torsions:
REMARK  status: ('A' for Active; 'I' for Inactive)
REMARK    1  A    between atoms: C_1  and  C_2
REMARK    2  A    between atoms: C_16  and  C_17
REMARK    3  A    between atoms: C_16  and  C_18
REMARK                            x       y       z     vdW  Elec       q    Type
REMARK                         _______ _______ _______ _____ _____    ______ ____
ROOT
ATOM      1  C   UNL     1      -3.186   2.633 -20.754  0.00  0.00    +0.047 C 
ATOM      2  C   UNL     1      -2.289   2.600 -21.694  0.00  0.00    -0.008 A 
ATOM      3  C   UNL     1      -1.074   2.224 -21.422  0.00  0.00    +0.017 A 
ATOM      4  C   UNL     1      -0.177   2.190 -22.361  0.00  0.00    +0.008 A 
ATOM      5  C   UNL     1      -0.494   2.533 -23.574  0.00  0.00    +0.054 A 
ATOM      6  C   UNL     1      -1.708   2.909 -23.847  0.00  0.00    +0.019 A 
ATOM      7  C   UNL     1      -2.025   3.251 -25.061  0.00  0.00    +0.045 C 
ATOM      8  C   UNL     1      -3.240   3.627 -25.334  0.00  0.00    +0.052 C 
ATOM      9  C   UNL     1      -4.137   3.660 -24.394  0.00  0.00    +0.105 C 
ATOM     10  C   UNL     1      -5.282   3.834 -23.804  0.00  0.00    +0.055 C 
ATOM     11  C   UNL     1      -4.851   4.063 -25.402  0.00  0.00    +0.055 C 
ATOM     12  O   UNL     1      -3.820   3.318 -23.181  0.00  0.00    -0.486 OA
ATOM     13  N   UNL     1       0.567   2.414 -24.316  0.00  0.00    -0.354 N 
ATOM     14  H   UNL     1       0.624   2.605 -25.280  0.00  0.00    +0.166 HD
ATOM     15  C   UNL     1       1.540   1.998 -23.560  0.00  0.00    +0.047 A 
ATOM     16  C   UNL     1       2.786   1.727 -23.817  0.00  0.00    +0.026 A 
ATOM     17  C   UNL     1       3.571   1.318 -22.865  0.00  0.00    +0.002 A 
ATOM     18  C   UNL     1       3.111   1.180 -21.657  0.00  0.00    +0.001 A 
ATOM     19  C   UNL     1       1.866   1.451 -21.401  0.00  0.00    +0.010 A 
ATOM     20  C   UNL     1       1.080   1.860 -22.353  0.00  0.00    +0.007 A 
ATOM     21  C   UNL     1      -2.605   2.942 -22.907  0.00  0.00    +0.129 A 
ENDROOT
TORSDOF 0
ENDMDL
MODEL 3
REMARK VINA RESULT:   -10.564      1.556      5.656
REMARK INTER + INTRA:         -10.564
REMARK INTER:                 -10.564
REMARK INTRA:                   0.000
REMARK UNBOUND:                 0.000
REMARK  Name = ZINC000071325824
REMARK  3 active torsions:
REMARK  status: ('A' for Active; 'I' for Inactive)
REMARK    1  A    between atoms: C_1  and  C_2
REMARK    2  A    between atoms: C_16  and  C_17
REMARK    3  A    between atoms: C_16  and  C_18
REMARK                            x       y       z     vdW  Elec       q    Type
REMARK                         _______ _______ _______ _____ _____    ______ ____
ROOT
ATOM      1  C   UNL     1      -2.200   3.742 -25.623  0.00  0.00    +0.047 C 
ATOM      2  C   UNL     1      -1.729   3.276 -24.505  0.00  0.00    -0.008 A 
ATOM      3  C   UNL     1      -0.466   2.984 -24.402  0.00  0.00    +0.017 A 
ATOM      4  C   UNL     1       0.005   2.518 -23.285  0.00  0.00    +0.008 A 
ATOM      5  C   UNL     1      -0.787   2.343 -22.268  0.00  0.00    +0.054 A 
ATOM      6  C   UNL     1      -2.050   2.635 -22.371  0.00  0.00    +0.019 A 
ATOM      7  C   UNL     1      -2.842   2.460 -21.354  0.00  0.00    +0.045 C 
ATOM      8  C   UNL     1      -4.105   2.752 -21.457  0.00  0.00    +0.052 C 
ATOM      9  C   UNL     1      -4.575   3.218 -22.575  0.00  0.00    +0.105 C 
ATOM     10  C   UNL     1      -5.424   3.679 -23.445  0.00  0.00    +0.055 C 
ATOM     11  C   UNL     1      -5.662   3.204 -21.862  0.00  0.00    +0.055 C 
ATOM     12  O   UNL     1      -3.784   3.393 -23.591  0.00  0.00    -0.486 OA
ATOM     13  N   UNL     1      -0.080   1.873 -21.284  0.00  0.00    -0.354 N 
ATOM     14  H   UNL     1      -0.416   1.645 -20.387  0.00  0.00    +0.166 HD
ATOM     15  C   UNL     1       1.149   1.757 -21.691  0.00  0.00    +0.047 A 
ATOM     16  C   UNL     1       2.227   1.341 -21.096  0.00  0.00    +0.026 A 
ATOM     17  C   UNL     1       3.358   1.322 -21.738  0.00  0.00    +0.002 A 
ATOM     18  C   UNL     1       3.410   1.721 -22.974  0.00  0.00    +0.001 A 
ATOM     19  C   UNL     1       2.332   2.138 -23.569  0.00  0.00    +0.010 A 
ATOM     20  C   UNL     1       1.202   2.156 -22.927  0.00  0.00    +0.007 A 
ATOM     21  C   UNL     1      -2.521   3.101 -23.489  0.00  0.00    +0.129 A 
ENDROOT
TORSDOF 0
ENDMDL
MODEL 4
REMARK VINA RESULT:   -10.381      1.254      2.571
REMARK INTER + INTRA:         -10.381
REMARK INTER:                 -10.381
REMARK INTRA:                   0.000
REMARK UNBOUND:                 0.000
REMARK  Name = ZINC000071325824
REMARK  3 active torsions:
REMARK  status: ('A' for Active; 'I' for Inactive)
REMARK    1  A    between atoms: C_1  and  C_2
REMARK    2  A    between atoms: C_16  and  C_17
REMARK    3  A    between atoms: C_16  and  C_18
REMARK                            x       y       z     vdW  Elec       q    Type
REMARK                         _______ _______ _______ _____ _____    ______ ____
ROOT
ATOM      1  C   UNL     1       0.260   1.476 -20.658  0.00  0.00    +0.047 C 
ATOM      2  C   UNL     1      -0.185   2.009 -21.757  0.00  0.00    -0.008 A 
ATOM      3  C   UNL     1      -1.440   2.334 -21.860  0.00  0.00    +0.017 A 
ATOM      4  C   UNL     1      -1.886   2.868 -22.957  0.00  0.00    +0.008 A 
ATOM      5  C   UNL     1      -1.077   3.077 -23.953  0.00  0.00    +0.054 A 
ATOM      6  C   UNL     1       0.178   2.753 -23.850  0.00  0.00    +0.019 A 
ATOM      7  C   UNL     1       0.987   2.962 -24.846  0.00  0.00    +0.045 C 
ATOM      8  C   UNL     1       2.242   2.638 -24.743  0.00  0.00    +0.052 C 
ATOM      9  C   UNL     1       2.688   2.104 -23.645  0.00  0.00    +0.105 C 
ATOM     10  C   UNL     1       3.514   1.580 -22.790  0.00  0.00    +0.055 C 
ATOM     11  C   UNL     1       3.783   2.131 -24.343  0.00  0.00    +0.055 C 
ATOM     12  O   UNL     1       1.879   1.895 -22.650  0.00  0.00    -0.486 OA
ATOM     13  N   UNL     1      -1.760   3.613 -24.920  0.00  0.00    -0.354 N 
ATOM     14  H   UNL     1      -1.407   3.880 -25.800  0.00  0.00    +0.166 HD
ATOM     15  C   UNL     1      -2.992   3.735 -24.523  0.00  0.00    +0.047 A 
ATOM     16  C   UNL     1      -4.053   4.206 -25.108  0.00  0.00    +0.026 A 
ATOM     17  C   UNL     1      -5.191   4.216 -24.481  0.00  0.00    +0.002 A 
ATOM     18  C   UNL     1      -5.269   3.756 -23.268  0.00  0.00    +0.001 A 
ATOM     19  C   UNL     1      -4.208   3.285 -22.682  0.00  0.00    +0.010 A 
ATOM     20  C   UNL     1      -3.070   3.274 -23.310  0.00  0.00    +0.007 A 
ATOM     21  C   UNL     1       0.623   2.219 -22.752  0.00  0.00    +0.129 A 
ENDROOT
TORSDOF 0
ENDMDL
MODEL 5
REMARK VINA RESULT:    -9.879      1.578      5.903
REMARK INTER + INTRA:          -9.879
REMARK INTER:                  -9.879
REMARK INTRA:                   0.000
REMARK UNBOUND:                 0.000
REMARK  Name = ZINC000071325824
REMARK  3 active torsions:
REMARK  status: ('A' for Active; 'I' for Inactive)
REMARK    1  A    between atoms: C_1  and  C_2
REMARK    2  A    between atoms: C_16  and  C_17
REMARK    3  A    between atoms: C_16  and  C_18
REMARK                            x       y       z     vdW  Elec       q    Type
REMARK                         _______ _______ _______ _____ _____    ______ ____
ROOT
ATOM      1  C   UNL     1      -0.013   3.750 -25.358  0.00  0.00    +0.047 C 
ATOM      2  C   UNL     1       0.283   3.131 -24.254  0.00  0.00    -0.008 A 
ATOM      3  C   UNL     1       1.506   2.752 -24.028  0.00  0.00    +0.017 A 
ATOM      4  C   UNL     1       1.802   2.133 -22.925  0.00  0.00    +0.008 A 
ATOM      5  C   UNL     1       0.875   1.892 -22.046  0.00  0.00    +0.054 A 
ATOM      6  C   UNL     1      -0.348   2.271 -22.271  0.00  0.00    +0.019 A 
ATOM      7  C   UNL     1      -1.276   2.030 -21.392  0.00  0.00    +0.045 C 
ATOM      8  C   UNL     1      -2.499   2.409 -21.617  0.00  0.00    +0.052 C 
ATOM      9  C   UNL     1      -2.794   3.029 -22.721  0.00  0.00    +0.105 C 
ATOM     10  C   UNL     1      -3.497   3.638 -23.629  0.00  0.00    +0.055 C 
ATOM     11  C   UNL     1      -3.965   3.000 -22.158  0.00  0.00    +0.055 C 
ATOM     12  O   UNL     1      -1.868   3.269 -23.600  0.00  0.00    -0.486 OA
ATOM     13  N   UNL     1       1.422   1.270 -21.045  0.00  0.00    -0.354 N 
ATOM     14  H   UNL     1       0.960   0.961 -20.232  0.00  0.00    +0.166 HD
ATOM     15  C   UNL     1       2.688   1.125 -21.305  0.00  0.00    +0.047 A 
ATOM     16  C   UNL     1       3.657   0.577 -20.633  0.00  0.00    +0.026 A 
ATOM     17  C   UNL     1       4.860   0.562 -21.124  0.00  0.00    +0.002 A 
ATOM     18  C   UNL     1       5.095   1.096 -22.286  0.00  0.00    +0.001 A 
ATOM     19  C   UNL     1       4.126   1.644 -22.957  0.00  0.00    +0.010 A 
ATOM     20  C   UNL     1       2.923   1.659 -22.467  0.00  0.00    +0.007 A 
ATOM     21  C   UNL     1      -0.644   2.891 -23.375  0.00  0.00    +0.129 A 
ENDROOT
TORSDOF 0
ENDMDL
MODEL 6
REMARK VINA RESULT:    -9.375      2.180      6.465
REMARK INTER + INTRA:          -9.375
REMARK INTER:                  -9.375
REMARK INTRA:                   0.000
REMARK UNBOUND:                 0.000
REMARK  Name = ZINC000071325824
REMARK  3 active torsions:
REMARK  status: ('A' for Active; 'I' for Inactive)
REMARK    1  A    between atoms: C_1  and  C_2
REMARK    2  A    between atoms: C_16  and  C_17
REMARK    3  A    between atoms: C_16  and  C_18
REMARK                            x       y       z     vdW  Elec       q    Type
REMARK                         _______ _______ _______ _____ _____    ______ ____
ROOT
ATOM      1  C   UNL     1      -1.261   1.516 -21.393  0.00  0.00    +0.047 C 
ATOM      2  C   UNL     1      -0.301   1.965 -22.145  0.00  0.00    -0.008 A 
ATOM      3  C   UNL     1       0.934   1.877 -21.745  0.00  0.00    +0.017 A 
ATOM      4  C   UNL     1       1.894   2.326 -22.496  0.00  0.00    +0.008 A 
ATOM      5  C   UNL     1       1.621   2.863 -23.649  0.00  0.00    +0.054 A 
ATOM      6  C   UNL     1       0.387   2.951 -24.049  0.00  0.00    +0.019 A 
ATOM      7  C   UNL     1       0.114   3.489 -25.201  0.00  0.00    +0.045 C 
ATOM      8  C   UNL     1      -1.120   3.576 -25.601  0.00  0.00    +0.052 C 
ATOM      9  C   UNL     1      -2.080   3.127 -24.849  0.00  0.00    +0.105 C 
ATOM     10  C   UNL     1      -3.281   2.829 -24.449  0.00  0.00    +0.055 C 
ATOM     11  C   UNL     1      -2.770   3.561 -25.862  0.00  0.00    +0.055 C 
ATOM     12  O   UNL     1      -1.808   2.590 -23.698  0.00  0.00    -0.486 OA
ATOM     13  N   UNL     1       2.741   3.228 -24.198  0.00  0.00    -0.354 N 
ATOM     14  H   UNL     1       2.841   3.664 -25.075  0.00  0.00    +0.166 HD
ATOM     15  C   UNL     1       3.707   2.916 -23.385  0.00  0.00    +0.047 A 
ATOM     16  C   UNL     1       4.996   3.067 -23.467  0.00  0.00    +0.026 A 
ATOM     17  C   UNL     1       5.761   2.662 -22.497  0.00  0.00    +0.002 A 
ATOM     18  C   UNL     1       5.237   2.104 -21.446  0.00  0.00    +0.001 A 
ATOM     19  C   UNL     1       3.949   1.953 -21.364  0.00  0.00    +0.010 A 
ATOM     20  C   UNL     1       3.184   2.359 -22.334  0.00  0.00    +0.007 A 
ATOM     21  C   UNL     1      -0.574   2.502 -23.296  0.00  0.00    +0.129 A 
ENDROOT
TORSDOF 0
ENDMDL
MODEL 7
REMARK VINA RESULT:    -9.293      1.571      2.277
REMARK INTER + INTRA:          -9.293
REMARK INTER:                  -9.293
REMARK INTRA:                   0.000
REMARK UNBOUND:                 0.000
REMARK  Name = ZINC000071325824
REMARK  3 active torsions:
REMARK  status: ('A' for Active; 'I' for Inactive)
REMARK    1  A    between atoms: C_1  and  C_2
REMARK    2  A    between atoms: C_16  and  C_17
REMARK    3  A    between atoms: C_16  and  C_18
REMARK                            x       y       z     vdW  Elec       q    Type
REMARK                         _______ _______ _______ _____ _____    ______ ____
ROOT
ATOM      1  C   UNL     1       3.041   5.302 -23.227  0.00  0.00    +0.047 C 
ATOM      2  C   UNL     1       2.067   4.443 -23.165  0.00  0.00    -0.008 A 
ATOM      3  C   UNL     1       0.886   4.766 -23.601  0.00  0.00    +0.017 A 
ATOM      4  C   UNL     1      -0.087   3.908 -23.539  0.00  0.00    +0.008 A 
ATOM      5  C   UNL     1       0.119   2.725 -23.040  0.00  0.00    +0.054 A 
ATOM      6  C   UNL     1       1.301   2.402 -22.603  0.00  0.00    +0.019 A 
ATOM      7  C   UNL     1       1.508   1.219 -22.103  0.00  0.00    +0.045 C 
ATOM      8  C   UNL     1       2.689   0.896 -21.667  0.00  0.00    +0.052 C 
ATOM      9  C   UNL     1       3.663   1.755 -21.729  0.00  0.00    +0.105 C 
ATOM     10  C   UNL     1       4.852   2.264 -21.603  0.00  0.00    +0.055 C 
ATOM     11  C   UNL     1       4.282   0.750 -21.186  0.00  0.00    +0.055 C 
ATOM     12  O   UNL     1       3.456   2.937 -22.228  0.00  0.00    -0.486 OA
ATOM     13  N   UNL     1      -0.999   2.066 -23.091  0.00  0.00    -0.354 N 
ATOM     14  H   UNL     1      -1.142   1.142 -22.782  0.00  0.00    +0.166 HD
ATOM     15  C   UNL     1      -1.899   2.841 -23.622  0.00  0.00    +0.047 A 
ATOM     16  C   UNL     1      -3.158   2.657 -23.889  0.00  0.00    +0.026 A 
ATOM     17  C   UNL     1      -3.853   3.611 -24.433  0.00  0.00    +0.002 A 
ATOM     18  C   UNL     1      -3.289   4.749 -24.710  0.00  0.00    +0.001 A 
ATOM     19  C   UNL     1      -2.030   4.933 -24.443  0.00  0.00    +0.010 A 
ATOM     20  C   UNL     1      -1.335   3.979 -23.899  0.00  0.00    +0.007 A 
ATOM     21  C   UNL     1       2.274   3.261 -22.666  0.00  0.00    +0.129 A 
ENDROOT
TORSDOF 0
ENDMDL
MODEL 8
REMARK VINA RESULT:    -8.636      1.872      3.455
REMARK INTER + INTRA:          -8.636
REMARK INTER:                  -8.636
REMARK INTRA:                   0.000
REMARK UNBOUND:                 0.000
REMARK  Name = ZINC000071325824
REMARK  3 active torsions:
REMARK  status: ('A' for Active; 'I' for Inactive)
REMARK    1  A    between atoms: C_1  and  C_2
REMARK    2  A    between atoms: C_16  and  C_17
REMARK    3  A    between atoms: C_16  and  C_18
REMARK                            x       y       z     vdW  Elec       q    Type
REMARK                         _______ _______ _______ _____ _____    ______ ____
ROOT
ATOM      1  C   UNL     1       1.510   1.390 -20.224  0.00  0.00    +0.047 C 
ATOM      2  C   UNL     1       1.312   1.890 -21.407  0.00  0.00    -0.008 A 
ATOM      3  C   UNL     1       0.101   2.022 -21.863  0.00  0.00    +0.017 A 
ATOM      4  C   UNL     1      -0.097   2.522 -23.046  0.00  0.00    +0.008 A 
ATOM      5  C   UNL     1       0.915   2.890 -23.774  0.00  0.00    +0.054 A 
ATOM      6  C   UNL     1       2.126   2.758 -23.318  0.00  0.00    +0.019 A 
ATOM      7  C   UNL     1       3.138   3.126 -24.047  0.00  0.00    +0.045 C 
ATOM      8  C   UNL     1       4.349   2.993 -23.591  0.00  0.00    +0.052 C 
ATOM      9  C   UNL     1       4.547   2.493 -22.407  0.00  0.00    +0.105 C 
ATOM     10  C   UNL     1       5.172   2.069 -21.350  0.00  0.00    +0.055 C 
ATOM     11  C   UNL     1       5.776   2.713 -22.768  0.00  0.00    +0.055 C 
ATOM     12  O   UNL     1       3.535   2.125 -21.680  0.00  0.00    -0.486 OA
ATOM     13  N   UNL     1       0.455   3.351 -24.899  0.00  0.00    -0.354 N 
ATOM     14  H   UNL     1       0.994   3.702 -25.645  0.00  0.00    +0.166 HD
ATOM     15  C   UNL     1      -0.842   3.269 -24.866  0.00  0.00    +0.047 A 
ATOM     16  C   UNL     1      -1.757   3.593 -25.731  0.00  0.00    +0.026 A 
ATOM     17  C   UNL     1      -3.012   3.406 -25.451  0.00  0.00    +0.002 A 
ATOM     18  C   UNL     1      -3.353   2.894 -24.306  0.00  0.00    +0.001 A 
ATOM     19  C   UNL     1      -2.439   2.569 -23.441  0.00  0.00    +0.010 A 
ATOM     20  C   UNL     1      -1.183   2.756 -23.721  0.00  0.00    +0.007 A 
ATOM     21  C   UNL     1       2.323   2.257 -22.135  0.00  0.00    +0.129 A 
ENDROOT
TORSDOF 0
ENDMDL
MODEL 9
REMARK VINA RESULT:    -8.415      3.387      7.536
REMARK INTER + INTRA:          -8.415
REMARK INTER:                  -8.415
REMARK INTRA:                   0.000
REMARK UNBOUND:                 0.000
REMARK  Name = ZINC000071325824
REMARK  3 active torsions:
REMARK  status: ('A' for Active; 'I' for Inactive)
REMARK    1  A    between atoms: C_1  and  C_2
REMARK    2  A    between atoms: C_16  and  C_17
REMARK    3  A    between atoms: C_16  and  C_18
REMARK                            x       y       z     vdW  Elec       q    Type
REMARK                         _______ _______ _______ _____ _____    ______ ____
ROOT
ATOM      1  C   UNL     1       2.675   1.095 -24.688  0.00  0.00    +0.047 C 
ATOM      2  C   UNL     1       3.052   2.236 -24.194  0.00  0.00    -0.008 A 
ATOM      3  C   UNL     1       4.313   2.463 -23.970  0.00  0.00    +0.017 A 
ATOM      4  C   UNL     1       4.691   3.604 -23.477  0.00  0.00    +0.008 A 
ATOM      5  C   UNL     1       3.809   4.520 -23.207  0.00  0.00    +0.054 A 
ATOM      6  C   UNL     1       2.548   4.293 -23.431  0.00  0.00    +0.019 A 
ATOM      7  C   UNL     1       1.665   5.209 -23.160  0.00  0.00    +0.045 C 
ATOM      8  C   UNL     1       0.405   4.983 -23.384  0.00  0.00    +0.052 C 
ATOM      9  C   UNL     1       0.027   3.841 -23.878  0.00  0.00    +0.105 C 
ATOM     10  C   UNL     1      -0.752   2.905 -24.332  0.00  0.00    +0.055 C 
ATOM     11  C   UNL     1      -1.126   4.431 -23.765  0.00  0.00    +0.055 C 
ATOM     12  O   UNL     1       0.909   2.926 -24.148  0.00  0.00    -0.486 OA
ATOM     13  N   UNL     1       4.435   5.554 -22.730  0.00  0.00    -0.354 N 
ATOM     14  H   UNL     1       4.021   6.398 -22.438  0.00  0.00    +0.166 HD
ATOM     15  C   UNL     1       5.706   5.277 -22.705  0.00  0.00    +0.047 A 
ATOM     16  C   UNL     1       6.739   5.967 -22.321  0.00  0.00    +0.026 A 
ATOM     17  C   UNL     1       7.929   5.452 -22.399  0.00  0.00    +0.002 A 
ATOM     18  C   UNL     1       8.087   4.247 -22.861  0.00  0.00    +0.001 A 
ATOM     19  C   UNL     1       7.055   3.558 -23.245  0.00  0.00    +0.010 A 
ATOM     20  C   UNL     1       5.864   4.073 -23.166  0.00  0.00    +0.007 A 
ATOM     21  C   UNL     1       2.170   3.151 -23.924  0.00  0.00    +0.129 A 
ENDROOT
TORSDOF 0
ENDMDL
