MODEL 1
REMARK VINA RESULT:   -10.214      0.000      0.000
REMARK INTER + INTRA:         -11.362
REMARK INTER:                 -11.255
REMARK INTRA:                  -0.107
REMARK UNBOUND:                 0.046
REMARK  Name = COc1ccc2c(c1O)[C@@]13CCN(C)[C@@H](C2)[C@H]1C(Br)=CC=C3C              ZINC000253504286
REMARK  5 active torsions:
REMARK  status: ('A' for Active; 'I' for Inactive)
REMARK    1  A    between atoms: C_1  and  O_2
REMARK    2  A    between atoms: O_2  and  C_3
REMARK    3  A    between atoms: C_8  and  O_9
REMARK    4  A    between atoms: N_13  and  C_14
REMARK    5  A    between atoms: C_22  and  C_23
REMARK                            x       y       z     vdW  Elec       q    Type
REMARK                         _______ _______ _______ _____ _____    ______ ____
ROOT
ATOM      1  C   UNL     1      -4.894   3.468 -22.932  0.00  0.00    +0.162 A 
ATOM      2  C   UNL     1      -5.187   3.799 -24.122  0.00  0.00    +0.049 A 
ATOM      3  C   UNL     1      -4.261   3.807 -24.994  0.00  0.00    +0.008 A 
ATOM      4  C   UNL     1      -2.888   3.434 -24.594  0.00  0.00    -0.034 A 
ATOM      5  C   UNL     1      -2.723   3.168 -23.570  0.00  0.00    +0.012 A 
ATOM      6  C   UNL     1      -1.927   2.898 -23.104  0.00  0.00    +0.038 C 
ATOM      7  C   UNL     1      -3.432   3.352 -23.741  0.00  0.00    +0.067 C 
ATOM      8  C   UNL     1      -3.535   3.699 -25.175  0.00  0.00    +0.132 C 
ATOM      9  N   UNL     1      -2.572   3.655 -25.853  0.00  0.00    +0.236 N 
ATOM     10  H   UNL     1      -1.609   3.529 -26.166  0.00  0.00    +0.203 HD
ATOM     11  C   UNL     1      -1.144   3.232 -25.280  0.00  0.00    +0.078 C 
ATOM     12  C   UNL     1      -3.310   4.042 -26.889  0.00  0.00    +0.190 C 
ATOM     13  C   UNL     1      -1.718   2.581 -21.895  0.00  0.00    -0.061 C 
ATOM     14  C   UNL     1      -2.630   2.573 -21.037  0.00  0.00    +0.040 C 
ATOM     15  C   UNL     1      -0.517   2.247 -21.511  0.00  0.00    +0.001 C 
ATOM     16  C   UNL     1       0.490   2.235 -22.367  0.00  0.00    +0.011 C 
ATOM     17  C   UNL     1       0.321   2.554 -23.619  0.00  0.00    +0.005 C 
ATOM     18 BR   UNL     1       1.311   2.538 -24.445  0.00  0.00    -0.054 Br
ATOM     19  C   UNL     1      -0.829   2.883 -24.029  0.00  0.00    +0.090 C 
ATOM     20  C   UNL     1      -1.967   3.444 -25.469  0.00  0.00    +0.090 C 
ATOM     21  C   UNL     1      -3.671   3.151 -22.641  0.00  0.00    +0.163 A 
ENDROOT
BRANCH   1  23
ATOM     22  C   UNL     1      -6.752   2.642 -21.704  0.00  0.00    +0.277 C 
ATOM     23  O   UNL     1      -5.733   3.392 -21.835  0.00  0.00    -0.491 OA
ENDBRANCH   1  23
BRANCH  21  24
ATOM     24  O   UNL     1      -3.404   2.823 -21.438  0.00  0.00    -0.503 OA
ATOM     25  H   UNL     1      -2.544   2.966 -21.093  0.00  0.00    +0.292 HD
ENDBRANCH  21  24
TORSDOF 2
ENDMDL
MODEL 2
REMARK VINA RESULT:   -10.016      2.205      4.069
REMARK INTER + INTRA:         -11.140
REMARK INTER:                 -10.994
REMARK INTRA:                  -0.146
REMARK UNBOUND:                 0.046
REMARK  Name = COc1ccc2c(c1O)[C@@]13CCN(C)[C@@H](C2)[C@H]1C(Br)=CC=C3C              ZINC000253504286
REMARK  5 active torsions:
REMARK  status: ('A' for Active; 'I' for Inactive)
REMARK    1  A    between atoms: C_1  and  O_2
REMARK    2  A    between atoms: O_2  and  C_3
REMARK    3  A    between atoms: C_8  and  O_9
REMARK    4  A    between atoms: N_13  and  C_14
REMARK    5  A    between atoms: C_22  and  C_23
REMARK                            x       y       z     vdW  Elec       q    Type
REMARK                         _______ _______ _______ _____ _____    ______ ____
ROOT
ATOM      1  C   UNL     1       0.134   3.033 -24.313  0.00  0.00    +0.162 A 
ATOM      2  C   UNL     1      -0.206   3.305 -25.507  0.00  0.00    +0.049 A 
ATOM      3  C   UNL     1      -1.440   3.481 -25.759  0.00  0.00    +0.008 A 
ATOM      4  C   UNL     1      -2.426   3.365 -24.665  0.00  0.00    -0.034 A 
ATOM      5  C   UNL     1      -2.059   3.133 -23.686  0.00  0.00    +0.012 A 
ATOM      6  C   UNL     1      -2.514   3.014 -22.848  0.00  0.00    +0.038 C 
ATOM      7  C   UNL     1      -1.532   3.185 -24.220  0.00  0.00    +0.067 C 
ATOM      8  C   UNL     1      -2.157   3.507 -25.522  0.00  0.00    +0.132 C 
ATOM      9  N   UNL     1      -3.327   3.640 -25.586  0.00  0.00    +0.236 N 
ATOM     10  H   UNL     1      -4.314   3.691 -25.334  0.00  0.00    +0.203 HD
ATOM     11  C   UNL     1      -4.274   3.484 -24.311  0.00  0.00    +0.078 C 
ATOM     12  C   UNL     1      -3.205   3.885 -26.887  0.00  0.00    +0.190 C 
ATOM     13  C   UNL     1      -2.092   2.741 -21.685  0.00  0.00    -0.061 C 
ATOM     14  C   UNL     1      -0.878   2.567 -21.436  0.00  0.00    +0.040 C 
ATOM     15  C   UNL     1      -2.938   2.632 -20.698  0.00  0.00    +0.001 C 
ATOM     16  C   UNL     1      -4.234   2.803 -20.893  0.00  0.00    +0.011 C 
ATOM     17  C   UNL     1      -4.712   3.085 -22.072  0.00  0.00    +0.005 C 
ATOM     18 BR   UNL     1      -5.978   3.250 -22.251  0.00  0.00    -0.054 Br
ATOM     19  C   UNL     1      -3.923   3.199 -23.054  0.00  0.00    +0.090 C 
ATOM     20  C   UNL     1      -3.657   3.542 -24.923  0.00  0.00    +0.090 C 
ATOM     21  C   UNL     1      -0.778   2.945 -23.395  0.00  0.00    +0.163 A 
ENDROOT
BRANCH   1  23
ATOM     22  C   UNL     1       2.350   2.184 -24.398  0.00  0.00    +0.277 C 
ATOM     23  O   UNL     1       1.404   2.805 -23.818  0.00  0.00    -0.491 OA
ENDBRANCH   1  23
BRANCH  21  24
ATOM     24  O   UNL     1      -0.409   2.672 -22.205  0.00  0.00    -0.503 OA
ATOM     25  H   UNL     1      -0.400   3.343 -21.551  0.00  0.00    +0.292 HD
ENDBRANCH  21  24
TORSDOF 2
ENDMDL
MODEL 3
REMARK VINA RESULT:    -9.720      2.300      3.861
REMARK INTER + INTRA:         -10.810
REMARK INTER:                 -10.667
REMARK INTRA:                  -0.144
REMARK UNBOUND:                 0.046
REMARK  Name = COc1ccc2c(c1O)[C@@]13CCN(C)[C@@H](C2)[C@H]1C(Br)=CC=C3C              ZINC000253504286
REMARK  5 active torsions:
REMARK  status: ('A' for Active; 'I' for Inactive)
REMARK    1  A    between atoms: C_1  and  O_2
REMARK    2  A    between atoms: O_2  and  C_3
REMARK    3  A    between atoms: C_8  and  O_9
REMARK    4  A    between atoms: N_13  and  C_14
REMARK    5  A    between atoms: C_22  and  C_23
REMARK                            x       y       z     vdW  Elec       q    Type
REMARK                         _______ _______ _______ _____ _____    ______ ____
ROOT
ATOM      1  C   UNL     1      -2.363   3.403 -25.124  0.00  0.00    +0.162 A 
ATOM      2  C   UNL     1      -3.311   3.273 -24.288  0.00  0.00    +0.049 A 
ATOM      3  C   UNL     1      -3.031   2.877 -23.113  0.00  0.00    +0.008 A 
ATOM      4  C   UNL     1      -1.625   2.584 -22.764  0.00  0.00    -0.034 A 
ATOM      5  C   UNL     1      -0.884   2.719 -23.526  0.00  0.00    +0.012 A 
ATOM      6  C   UNL     1       0.068   2.590 -23.516  0.00  0.00    +0.038 C 
ATOM      7  C   UNL     1      -1.589   2.876 -23.735  0.00  0.00    +0.067 C 
ATOM      8  C   UNL     1      -2.517   2.653 -22.605  0.00  0.00    +0.132 C 
ATOM      9  N   UNL     1      -2.092   2.281 -21.570  0.00  0.00    +0.236 N 
ATOM     10  H   UNL     1      -1.454   1.973 -20.837  0.00  0.00    +0.203 HD
ATOM     11  C   UNL     1      -0.538   2.004 -21.337  0.00  0.00    +0.078 C 
ATOM     12  C   UNL     1      -3.329   2.295 -21.082  0.00  0.00    +0.190 C 
ATOM     13  C   UNL     1       0.954   2.746 -24.408  0.00  0.00    -0.061 C 
ATOM     14  C   UNL     1       0.679   3.136 -25.565  0.00  0.00    +0.040 C 
ATOM     15  C   UNL     1       2.204   2.496 -24.131  0.00  0.00    +0.001 C 
ATOM     16  C   UNL     1       2.562   2.081 -22.928  0.00  0.00    +0.011 C 
ATOM     17  C   UNL     1       1.685   1.907 -21.981  0.00  0.00    +0.005 C 
ATOM     18 BR   UNL     1       2.046   1.502 -20.810  0.00  0.00    -0.054 Br
ATOM     19  C   UNL     1       0.463   2.139 -22.211  0.00  0.00    +0.090 C 
ATOM     20  C   UNL     1      -1.351   2.189 -21.588  0.00  0.00    +0.090 C 
ATOM     21  C   UNL     1      -1.149   3.131 -24.759  0.00  0.00    +0.163 A 
ENDROOT
BRANCH   1  23
ATOM     22  C   UNL     1      -3.300   3.461 -27.306  0.00  0.00    +0.277 C 
ATOM     23  O   UNL     1      -2.437   3.815 -26.442  0.00  0.00    -0.491 OA
ENDBRANCH   1  23
BRANCH  21  24
ATOM     24  O   UNL     1      -0.217   3.270 -25.618  0.00  0.00    -0.503 OA
ATOM     25  H   UNL     1       0.198   4.104 -25.729  0.00  0.00    +0.292 HD
ENDBRANCH  21  24
TORSDOF 2
ENDMDL
MODEL 4
REMARK VINA RESULT:    -9.650      1.940      4.170
REMARK INTER + INTRA:         -10.732
REMARK INTER:                 -10.588
REMARK INTRA:                  -0.145
REMARK UNBOUND:                 0.046
REMARK  Name = COc1ccc2c(c1O)[C@@]13CCN(C)[C@@H](C2)[C@H]1C(Br)=CC=C3C              ZINC000253504286
REMARK  5 active torsions:
REMARK  status: ('A' for Active; 'I' for Inactive)
REMARK    1  A    between atoms: C_1  and  O_2
REMARK    2  A    between atoms: O_2  and  C_3
REMARK    3  A    between atoms: C_8  and  O_9
REMARK    4  A    between atoms: N_13  and  C_14
REMARK    5  A    between atoms: C_22  and  C_23
REMARK                            x       y       z     vdW  Elec       q    Type
REMARK                         _______ _______ _______ _____ _____    ______ ____
ROOT
ATOM      1  C   UNL     1       0.258   2.055 -21.905  0.00  0.00    +0.162 A 
ATOM      2  C   UNL     1       1.042   2.330 -22.866  0.00  0.00    +0.049 A 
ATOM      3  C   UNL     1       0.559   2.889 -23.900  0.00  0.00    +0.008 A 
ATOM      4  C   UNL     1      -0.886   3.198 -23.947  0.00  0.00    -0.034 A 
ATOM      5  C   UNL     1      -1.479   2.935 -23.096  0.00  0.00    +0.012 A 
ATOM      6  C   UNL     1      -2.417   3.042 -22.917  0.00  0.00    +0.038 C 
ATOM      7  C   UNL     1      -0.749   2.765 -23.040  0.00  0.00    +0.067 C 
ATOM      8  C   UNL     1      -0.036   3.174 -24.270  0.00  0.00    +0.132 C 
ATOM      9  N   UNL     1      -0.638   3.685 -25.146  0.00  0.00    +0.236 N 
ATOM     10  H   UNL     1      -1.395   4.085 -25.700  0.00  0.00    +0.203 HD
ATOM     11  C   UNL     1      -2.207   3.958 -25.056  0.00  0.00    +0.078 C 
ATOM     12  C   UNL     1       0.492   3.772 -25.842  0.00  0.00    +0.190 C 
ATOM     13  C   UNL     1      -3.131   2.736 -21.916  0.00  0.00    -0.061 C 
ATOM     14  C   UNL     1      -2.655   2.185 -20.897  0.00  0.00    +0.040 C 
ATOM     15  C   UNL     1      -4.409   2.995 -21.927  0.00  0.00    +0.001 C 
ATOM     16  C   UNL     1      -4.974   3.576 -22.972  0.00  0.00    +0.011 C 
ATOM     17  C   UNL     1      -4.280   3.908 -24.022  0.00  0.00    +0.005 C 
ATOM     18 BR   UNL     1      -4.841   4.474 -25.036  0.00  0.00    -0.054 Br
ATOM     19  C   UNL     1      -3.037   3.672 -24.049  0.00  0.00    +0.090 C 
ATOM     20  C   UNL     1      -1.363   3.757 -24.983  0.00  0.00    +0.090 C 
ATOM     21  C   UNL     1      -1.000   2.351 -22.005  0.00  0.00    +0.163 A 
ENDROOT
BRANCH   1  23
ATOM     22  C   UNL     1       1.697   1.433 -20.121  0.00  0.00    +0.277 C 
ATOM     23  O   UNL     1       0.564   1.454 -20.698  0.00  0.00    -0.491 OA
ENDBRANCH   1  23
BRANCH  21  24
ATOM     24  O   UNL     1      -1.766   2.065 -21.025  0.00  0.00    -0.503 OA
ATOM     25  H   UNL     1      -1.598   2.427 -20.177  0.00  0.00    +0.292 HD
ENDBRANCH  21  24
TORSDOF 2
ENDMDL
MODEL 5
REMARK VINA RESULT:    -9.586      2.515      4.904
REMARK INTER + INTRA:         -10.660
REMARK INTER:                 -10.515
REMARK INTRA:                  -0.145
REMARK UNBOUND:                 0.046
REMARK  Name = COc1ccc2c(c1O)[C@@]13CCN(C)[C@@H](C2)[C@H]1C(Br)=CC=C3C              ZINC000253504286
REMARK  5 active torsions:
REMARK  status: ('A' for Active; 'I' for Inactive)
REMARK    1  A    between atoms: C_1  and  O_2
REMARK    2  A    between atoms: O_2  and  C_3
REMARK    3  A    between atoms: C_8  and  O_9
REMARK    4  A    between atoms: N_13  and  C_14
REMARK    5  A    between atoms: C_22  and  C_23
REMARK                            x       y       z     vdW  Elec       q    Type
REMARK                         _______ _______ _______ _____ _____    ______ ____
ROOT
ATOM      1  C   UNL     1       0.016   2.213 -22.344  0.00  0.00    +0.162 A 
ATOM      2  C   UNL     1      -0.533   2.071 -21.208  0.00  0.00    +0.049 A 
ATOM      3  C   UNL     1      -1.777   2.317 -21.102  0.00  0.00    +0.008 A 
ATOM      4  C   UNL     1      -2.531   2.755 -22.294  0.00  0.00    -0.034 A 
ATOM      5  C   UNL     1      -1.995   2.850 -23.216  0.00  0.00    +0.012 A 
ATOM      6  C   UNL     1      -2.282   3.114 -24.094  0.00  0.00    +0.038 C 
ATOM      7  C   UNL     1      -1.582   2.626 -22.629  0.00  0.00    +0.067 C 
ATOM      8  C   UNL     1      -2.428   2.531 -21.419  0.00  0.00    +0.132 C 
ATOM      9  N   UNL     1      -3.575   2.797 -21.491  0.00  0.00    +0.236 N 
ATOM     10  H   UNL     1      -4.486   3.078 -21.854  0.00  0.00    +0.203 HD
ATOM     11  C   UNL     1      -4.258   3.259 -22.857  0.00  0.00    +0.078 C 
ATOM     12  C   UNL     1      -3.697   2.525 -20.195  0.00  0.00    +0.190 C 
ATOM     13  C   UNL     1      -1.659   3.231 -25.191  0.00  0.00    -0.061 C 
ATOM     14  C   UNL     1      -0.435   2.989 -25.296  0.00  0.00    +0.040 C 
ATOM     15  C   UNL     1      -2.297   3.616 -26.262  0.00  0.00    +0.001 C 
ATOM     16  C   UNL     1      -3.590   3.887 -26.219  0.00  0.00    +0.011 C 
ATOM     17  C   UNL     1      -4.270   3.780 -25.114  0.00  0.00    +0.005 C 
ATOM     18 BR   UNL     1      -5.532   4.048 -25.084  0.00  0.00    -0.054 Br
ATOM     19  C   UNL     1      -3.686   3.410 -24.055  0.00  0.00    +0.090 C 
ATOM     20  C   UNL     1      -3.773   2.999 -22.182  0.00  0.00    +0.090 C 
ATOM     21  C   UNL     1      -0.699   2.600 -23.354  0.00  0.00    +0.163 A 
ENDROOT
BRANCH   1  23
ATOM     22  C   UNL     1       2.150   1.190 -22.138  0.00  0.00    +0.277 C 
ATOM     23  O   UNL     1       1.340   2.004 -22.685  0.00  0.00    -0.491 OA
ENDBRANCH   1  23
BRANCH  21  24
ATOM     24  O   UNL     1      -0.122   2.735 -24.484  0.00  0.00    -0.503 OA
ATOM     25  H   UNL     1       0.810   2.653 -24.547  0.00  0.00    +0.292 HD
ENDBRANCH  21  24
TORSDOF 2
ENDMDL
MODEL 6
REMARK VINA RESULT:    -9.199      2.599      5.249
REMARK INTER + INTRA:         -10.228
REMARK INTER:                 -10.089
REMARK INTRA:                  -0.139
REMARK UNBOUND:                 0.046
REMARK  Name = COc1ccc2c(c1O)[C@@]13CCN(C)[C@@H](C2)[C@H]1C(Br)=CC=C3C              ZINC000253504286
REMARK  5 active torsions:
REMARK  status: ('A' for Active; 'I' for Inactive)
REMARK    1  A    between atoms: C_1  and  O_2
REMARK    2  A    between atoms: O_2  and  C_3
REMARK    3  A    between atoms: C_8  and  O_9
REMARK    4  A    between atoms: N_13  and  C_14
REMARK    5  A    between atoms: C_22  and  C_23
REMARK                            x       y       z     vdW  Elec       q    Type
REMARK                         _______ _______ _______ _____ _____    ______ ____
ROOT
ATOM      1  C   UNL     1       0.485   2.669 -24.508  0.00  0.00    +0.162 A 
ATOM      2  C   UNL     1       0.945   2.282 -23.389  0.00  0.00    +0.049 A 
ATOM      3  C   UNL     1       0.146   2.195 -22.403  0.00  0.00    +0.008 A 
ATOM      4  C   UNL     1      -1.277   2.546 -22.593  0.00  0.00    -0.034 A 
ATOM      5  C   UNL     1      -1.586   2.864 -23.568  0.00  0.00    +0.012 A 
ATOM      6  C   UNL     1      -2.444   3.134 -23.906  0.00  0.00    +0.038 C 
ATOM      7  C   UNL     1      -0.857   2.693 -23.505  0.00  0.00    +0.067 C 
ATOM      8  C   UNL     1      -0.551   2.269 -22.121  0.00  0.00    +0.132 C 
ATOM      9  N   UNL     1      -1.415   2.244 -21.318  0.00  0.00    +0.236 N 
ATOM     10  H   UNL     1      -2.328   2.322 -20.872  0.00  0.00    +0.203 HD
ATOM     11  C   UNL     1      -2.916   2.653 -21.669  0.00  0.00    +0.078 C 
ATOM     12  C   UNL     1      -0.534   1.823 -20.415  0.00  0.00    +0.190 C 
ATOM     13  C   UNL     1      -2.823   3.512 -25.054  0.00  0.00    -0.061 C 
ATOM     14  C   UNL     1      -2.036   3.597 -26.025  0.00  0.00    +0.040 C 
ATOM     15  C   UNL     1      -4.072   3.829 -25.253  0.00  0.00    +0.001 C 
ATOM     16  C   UNL     1      -4.954   3.761 -24.270  0.00  0.00    +0.011 C 
ATOM     17  C   UNL     1      -4.609   3.377 -23.075  0.00  0.00    +0.005 C 
ATOM     18 BR   UNL     1      -5.478   3.314 -22.123  0.00  0.00    -0.054 Br
ATOM     19  C   UNL     1      -3.406   3.062 -22.843  0.00  0.00    +0.090 C 
ATOM     20  C   UNL     1      -2.070   2.458 -21.605  0.00  0.00    +0.090 C 
ATOM     21  C   UNL     1      -0.774   2.963 -24.612  0.00  0.00    +0.163 A 
ENDROOT
BRANCH   1  23
ATOM     22  C   UNL     1       1.973   2.013 -26.239  0.00  0.00    +0.277 C 
ATOM     23  O   UNL     1       1.165   2.835 -25.700  0.00  0.00    -0.491 OA
ENDBRANCH   1  23
BRANCH  21  24
ATOM     24  O   UNL     1      -1.209   3.350 -25.747  0.00  0.00    -0.503 OA
ATOM     25  H   UNL     1      -1.752   4.112 -25.806  0.00  0.00    +0.292 HD
ENDBRANCH  21  24
TORSDOF 2
ENDMDL
MODEL 7
REMARK VINA RESULT:    -8.864      0.950      1.282
REMARK INTER + INTRA:          -9.854
REMARK INTER:                  -9.766
REMARK INTRA:                  -0.088
REMARK UNBOUND:                 0.046
REMARK  Name = COc1ccc2c(c1O)[C@@]13CCN(C)[C@@H](C2)[C@H]1C(Br)=CC=C3C              ZINC000253504286
REMARK  5 active torsions:
REMARK  status: ('A' for Active; 'I' for Inactive)
REMARK    1  A    between atoms: C_1  and  O_2
REMARK    2  A    between atoms: O_2  and  C_3
REMARK    3  A    between atoms: C_8  and  O_9
REMARK    4  A    between atoms: N_13  and  C_14
REMARK    5  A    between atoms: C_22  and  C_23
REMARK                            x       y       z     vdW  Elec       q    Type
REMARK                         _______ _______ _______ _____ _____    ______ ____
ROOT
ATOM      1  C   UNL     1      -3.661   3.009 -22.229  0.00  0.00    +0.162 A 
ATOM      2  C   UNL     1      -4.307   3.414 -23.246  0.00  0.00    +0.049 A 
ATOM      3  C   UNL     1      -3.675   3.582 -24.337  0.00  0.00    +0.008 A 
ATOM      4  C   UNL     1      -2.225   3.301 -24.383  0.00  0.00    -0.034 A 
ATOM      5  C   UNL     1      -1.754   2.963 -23.482  0.00  0.00    +0.012 A 
ATOM      6  C   UNL     1      -0.842   2.727 -23.292  0.00  0.00    +0.038 C 
ATOM      7  C   UNL     1      -2.492   3.096 -23.425  0.00  0.00    +0.067 C 
ATOM      8  C   UNL     1      -3.027   3.556 -24.726  0.00  0.00    +0.132 C 
ATOM      9  N   UNL     1      -2.300   3.659 -25.648  0.00  0.00    +0.236 N 
ATOM     10  H   UNL     1      -1.464   3.648 -26.232  0.00  0.00    +0.203 HD
ATOM     11  C   UNL     1      -0.745   3.318 -25.550  0.00  0.00    +0.078 C 
ATOM     12  C   UNL     1      -3.330   4.066 -26.386  0.00  0.00    +0.190 C 
ATOM     13  C   UNL     1      -0.273   2.326 -22.233  0.00  0.00    -0.061 C 
ATOM     14  C   UNL     1      -0.895   2.161 -21.159  0.00  0.00    +0.040 C 
ATOM     15  C   UNL     1       1.006   2.070 -22.242  0.00  0.00    +0.001 C 
ATOM     16  C   UNL     1       1.721   2.224 -23.344  0.00  0.00    +0.011 C 
ATOM     17  C   UNL     1       1.177   2.634 -24.454  0.00  0.00    +0.005 C 
ATOM     18 BR   UNL     1       1.885   2.780 -25.522  0.00  0.00    -0.054 Br
ATOM     19  C   UNL     1      -0.061   2.892 -24.485  0.00  0.00    +0.090 C 
ATOM     20  C   UNL     1      -1.599   3.470 -25.475  0.00  0.00    +0.090 C 
ATOM     21  C   UNL     1      -2.390   2.780 -22.332  0.00  0.00    +0.163 A 
ENDROOT
BRANCH   1  23
ATOM     22  C   UNL     1      -4.972   1.862 -20.615  0.00  0.00    +0.277 C 
ATOM     23  O   UNL     1      -4.141   2.762 -20.956  0.00  0.00    -0.491 OA
ENDBRANCH   1  23
BRANCH  21  24
ATOM     24  O   UNL     1      -1.766   2.374 -21.296  0.00  0.00    -0.503 OA
ATOM     25  H   UNL     1      -2.219   2.286 -20.480  0.00  0.00    +0.292 HD
ENDBRANCH  21  24
TORSDOF 2
ENDMDL
MODEL 8
REMARK VINA RESULT:    -8.723      2.306      4.352
REMARK INTER + INTRA:          -9.697
REMARK INTER:                  -9.743
REMARK INTRA:                   0.046
REMARK UNBOUND:                 0.046
REMARK  Name = COc1ccc2c(c1O)[C@@]13CCN(C)[C@@H](C2)[C@H]1C(Br)=CC=C3C              ZINC000253504286
REMARK  5 active torsions:
REMARK  status: ('A' for Active; 'I' for Inactive)
REMARK    1  A    between atoms: C_1  and  O_2
REMARK    2  A    between atoms: O_2  and  C_3
REMARK    3  A    between atoms: C_8  and  O_9
REMARK    4  A    between atoms: N_13  and  C_14
REMARK    5  A    between atoms: C_22  and  C_23
REMARK                            x       y       z     vdW  Elec       q    Type
REMARK                         _______ _______ _______ _____ _____    ______ ____
ROOT
ATOM      1  C   UNL     1      -2.362   3.676 -25.921  0.00  0.00    +0.162 A 
ATOM      2  C   UNL     1      -1.141   3.393 -25.712  0.00  0.00    +0.049 A 
ATOM      3  C   UNL     1      -0.798   3.017 -24.547  0.00  0.00    +0.008 A 
ATOM      4  C   UNL     1      -1.823   2.922 -23.486  0.00  0.00    -0.034 A 
ATOM      5  C   UNL     1      -2.831   3.178 -23.744  0.00  0.00    +0.012 A 
ATOM      6  C   UNL     1      -3.637   3.188 -23.221  0.00  0.00    +0.038 C 
ATOM      7  C   UNL     1      -2.334   3.237 -24.305  0.00  0.00    +0.067 C 
ATOM      8  C   UNL     1      -0.984   2.859 -23.831  0.00  0.00    +0.132 C 
ATOM      9  N   UNL     1      -0.835   2.530 -22.709  0.00  0.00    +0.236 N 
ATOM     10  H   UNL     1      -1.016   2.301 -21.732  0.00  0.00    +0.203 HD
ATOM     11  C   UNL     1      -2.044   2.475 -21.669  0.00  0.00    +0.078 C 
ATOM     12  C   UNL     1       0.460   2.355 -22.955  0.00  0.00    +0.190 C 
ATOM     13  C   UNL     1      -4.833   3.488 -23.512  0.00  0.00    -0.061 C 
ATOM     14  C   UNL     1      -5.171   3.859 -24.659  0.00  0.00    +0.040 C 
ATOM     15  C   UNL     1      -5.761   3.415 -22.598  0.00  0.00    +0.001 C 
ATOM     16  C   UNL     1      -5.471   3.030 -21.367  0.00  0.00    +0.011 C 
ATOM     17  C   UNL     1      -4.256   2.712 -21.024  0.00  0.00    +0.005 C 
ATOM     18 BR   UNL     1      -3.985   2.338 -19.819  0.00  0.00    -0.054 Br
ATOM     19  C   UNL     1      -3.329   2.771 -21.882  0.00  0.00    +0.090 C 
ATOM     20  C   UNL     1      -1.475   2.545 -22.324  0.00  0.00    +0.090 C 
ATOM     21  C   UNL     1      -3.215   3.574 -24.951  0.00  0.00    +0.163 A 
ENDROOT
BRANCH   1  23
ATOM     22  C   UNL     1      -3.351   3.372 -28.059  0.00  0.00    +0.277 C 
ATOM     23  O   UNL     1      -2.950   4.102 -27.098  0.00  0.00    -0.491 OA
ENDBRANCH   1  23
BRANCH  21  24
ATOM     24  O   UNL     1      -4.434   3.864 -25.188  0.00  0.00    -0.503 OA
ATOM     25  H   UNL     1      -4.712   4.043 -26.066  0.00  0.00    +0.292 HD
ENDBRANCH  21  24
TORSDOF 2
ENDMDL
MODEL 9
REMARK VINA RESULT:    -8.687      1.717      2.959
REMARK INTER + INTRA:          -9.656
REMARK INTER:                  -9.512
REMARK INTRA:                  -0.145
REMARK UNBOUND:                 0.046
REMARK  Name = COc1ccc2c(c1O)[C@@]13CCN(C)[C@@H](C2)[C@H]1C(Br)=CC=C3C              ZINC000253504286
REMARK  5 active torsions:
REMARK  status: ('A' for Active; 'I' for Inactive)
REMARK    1  A    between atoms: C_1  and  O_2
REMARK    2  A    between atoms: O_2  and  C_3
REMARK    3  A    between atoms: C_8  and  O_9
REMARK    4  A    between atoms: N_13  and  C_14
REMARK    5  A    between atoms: C_22  and  C_23
REMARK                            x       y       z     vdW  Elec       q    Type
REMARK                         _______ _______ _______ _____ _____    ______ ____
ROOT
ATOM      1  C   UNL     1      -2.354   3.071 -23.908  0.00  0.00    +0.162 A 
ATOM      2  C   UNL     1      -1.955   3.609 -24.987  0.00  0.00    +0.049 A 
ATOM      3  C   UNL     1      -0.703   3.706 -25.189  0.00  0.00    +0.008 A 
ATOM      4  C   UNL     1       0.235   3.194 -24.168  0.00  0.00    -0.034 A 
ATOM      5  C   UNL     1      -0.182   2.754 -23.285  0.00  0.00    +0.012 A 
ATOM      6  C   UNL     1       0.235   2.366 -22.511  0.00  0.00    +0.038 C 
ATOM      7  C   UNL     1      -0.685   3.004 -23.784  0.00  0.00    +0.067 C 
ATOM      8  C   UNL     1       0.006   3.587 -24.955  0.00  0.00    +0.132 C 
ATOM      9  N   UNL     1       1.184   3.599 -24.986  0.00  0.00    +0.236 N 
ATOM     10  H   UNL     1       2.164   3.471 -24.733  0.00  0.00    +0.203 HD
ATOM     11  C   UNL     1       2.074   3.006 -23.802  0.00  0.00    +0.078 C 
ATOM     12  C   UNL     1       1.125   4.193 -26.174  0.00  0.00    +0.190 C 
ATOM     13  C   UNL     1      -0.244   1.843 -21.461  0.00  0.00    -0.061 C 
ATOM     14  C   UNL     1      -1.476   1.747 -21.263  0.00  0.00    +0.040 C 
ATOM     15  C   UNL     1       0.558   1.381 -20.542  0.00  0.00    +0.001 C 
ATOM     16  C   UNL     1       1.870   1.451 -20.690  0.00  0.00    +0.011 C 
ATOM     17  C   UNL     1       2.407   1.981 -21.752  0.00  0.00    +0.005 C 
ATOM     18 BR   UNL     1       3.688   2.044 -21.885  0.00  0.00    -0.054 Br
ATOM     19  C   UNL     1       1.661   2.439 -22.665  0.00  0.00    +0.090 C 
ATOM     20  C   UNL     1       1.484   3.293 -24.375  0.00  0.00    +0.090 C 
ATOM     21  C   UNL     1      -1.483   2.640 -23.051  0.00  0.00    +0.163 A 
ENDROOT
BRANCH   1  23
ATOM     22  C   UNL     1      -4.630   3.673 -23.594  0.00  0.00    +0.277 C 
ATOM     23  O   UNL     1      -3.655   2.864 -23.487  0.00  0.00    -0.491 OA
ENDBRANCH   1  23
BRANCH  21  24
ATOM     24  O   UNL     1      -1.910   2.104 -21.975  0.00  0.00    -0.503 OA
ATOM     25  H   UNL     1      -1.728   2.504 -21.147  0.00  0.00    +0.292 HD
ENDBRANCH  21  24
TORSDOF 2
ENDMDL
