MODEL 1
REMARK VINA RESULT:    -7.567      0.000      0.000
REMARK INTER + INTRA:          -7.788
REMARK INTER:                  -7.788
REMARK INTRA:                   0.000
REMARK UNBOUND:                 0.000
REMARK  Name = ZINC000000058121
REMARK  2 active torsions:
REMARK  status: ('A' for Active; 'I' for Inactive)
REMARK    1  A    between atoms: C_1  and  C_2
REMARK    2  A    between atoms: C_9  and  O_10
REMARK                            x       y       z     vdW  Elec       q    Type
REMARK                         _______ _______ _______ _____ _____    ______ ____
ROOT
ATOM      1  C   UNL     1      -3.135   3.375 -20.487  0.00  0.00    +0.045 C 
ATOM      2  C   UNL     1      -2.509   2.919 -21.532  0.00  0.00    -0.033 A 
ATOM      3  C   UNL     1      -1.367   2.314 -21.392  0.00  0.00    +0.096 A 
ATOM      4  C   UNL     1      -0.741   1.859 -22.437  0.00  0.00    +0.337 A 
ATOM      5  O   UNL     1      -1.256   2.009 -23.620  0.00  0.00    -0.422 OA
ATOM      6  C   UNL     1      -2.398   2.615 -23.759  0.00  0.00    +0.143 A 
ATOM      7  C   UNL     1      -2.914   2.765 -24.944  0.00  0.00    +0.092 A 
ATOM      8  C   UNL     1      -4.056   3.371 -25.083  0.00  0.00    +0.120 A 
ATOM      9  C   UNL     1      -4.682   3.826 -24.038  0.00  0.00    +0.046 A 
ATOM     10  C   UNL     1      -4.167   3.676 -22.855  0.00  0.00    +0.015 A 
ATOM     11  O   UNL     1       0.401   1.253 -22.298  0.00  0.00    -0.245 OA
ATOM     12  C   UNL     1      -3.024   3.070 -22.715  0.00  0.00    +0.021 A 
ENDROOT
BRANCH   8  13
ATOM     13  O   UNL     1      -4.571   3.521 -26.267  0.00  0.00    -0.507 OA
ATOM     14  H   UNL     1      -4.024   3.755 -26.990  0.00  0.00    +0.292 HD
ENDBRANCH   8  13
TORSDOF 1
ENDMDL
MODEL 2
REMARK VINA RESULT:    -7.562      1.414      3.719
REMARK INTER + INTRA:          -7.783
REMARK INTER:                  -7.783
REMARK INTRA:                   0.000
REMARK UNBOUND:                 0.000
REMARK  Name = ZINC000000058121
REMARK  2 active torsions:
REMARK  status: ('A' for Active; 'I' for Inactive)
REMARK    1  A    between atoms: C_1  and  C_2
REMARK    2  A    between atoms: C_9  and  O_10
REMARK                            x       y       z     vdW  Elec       q    Type
REMARK                         _______ _______ _______ _____ _____    ______ ____
ROOT
ATOM      1  C   UNL     1      -3.301   3.386 -19.892  0.00  0.00    +0.045 C 
ATOM      2  C   UNL     1      -3.430   3.315 -21.184  0.00  0.00    -0.033 A 
ATOM      3  C   UNL     1      -4.571   3.595 -21.740  0.00  0.00    +0.096 A 
ATOM      4  C   UNL     1      -4.700   3.524 -23.031  0.00  0.00    +0.337 A 
ATOM      5  O   UNL     1      -3.688   3.174 -23.767  0.00  0.00    -0.422 OA
ATOM      6  C   UNL     1      -2.546   2.895 -23.212  0.00  0.00    +0.143 A 
ATOM      7  C   UNL     1      -1.533   2.545 -23.948  0.00  0.00    +0.092 A 
ATOM      8  C   UNL     1      -0.392   2.266 -23.392  0.00  0.00    +0.120 A 
ATOM      9  C   UNL     1      -0.263   2.336 -22.100  0.00  0.00    +0.046 A 
ATOM     10  C   UNL     1      -1.275   2.686 -21.364  0.00  0.00    +0.015 A 
ATOM     11  O   UNL     1      -5.842   3.804 -23.587  0.00  0.00    -0.245 OA
ATOM     12  C   UNL     1      -2.418   2.966 -21.920  0.00  0.00    +0.021 A 
ENDROOT
BRANCH   8  13
ATOM     13  O   UNL     1       0.621   1.916 -24.129  0.00  0.00    -0.507 OA
ATOM     14  H   UNL     1       0.545   1.189 -24.715  0.00  0.00    +0.292 HD
ENDBRANCH   8  13
TORSDOF 1
ENDMDL
MODEL 3
REMARK VINA RESULT:    -7.333      1.994      2.897
REMARK INTER + INTRA:          -7.547
REMARK INTER:                  -7.547
REMARK INTRA:                   0.000
REMARK UNBOUND:                 0.000
REMARK  Name = ZINC000000058121
REMARK  2 active torsions:
REMARK  status: ('A' for Active; 'I' for Inactive)
REMARK    1  A    between atoms: C_1  and  C_2
REMARK    2  A    between atoms: C_9  and  O_10
REMARK                            x       y       z     vdW  Elec       q    Type
REMARK                         _______ _______ _______ _____ _____    ______ ____
ROOT
ATOM      1  C   UNL     1      -5.863   3.407 -22.927  0.00  0.00    +0.045 C 
ATOM      2  C   UNL     1      -4.633   3.491 -22.515  0.00  0.00    -0.033 A 
ATOM      3  C   UNL     1      -4.378   3.582 -21.244  0.00  0.00    +0.096 A 
ATOM      4  C   UNL     1      -3.148   3.665 -20.832  0.00  0.00    +0.337 A 
ATOM      5  O   UNL     1      -2.173   3.657 -21.691  0.00  0.00    -0.422 OA
ATOM      6  C   UNL     1      -2.428   3.566 -22.962  0.00  0.00    +0.143 A 
ATOM      7  C   UNL     1      -1.452   3.558 -23.822  0.00  0.00    +0.092 A 
ATOM      8  C   UNL     1      -1.707   3.467 -25.093  0.00  0.00    +0.120 A 
ATOM      9  C   UNL     1      -2.937   3.384 -25.505  0.00  0.00    +0.046 A 
ATOM     10  C   UNL     1      -3.913   3.392 -24.646  0.00  0.00    +0.015 A 
ATOM     11  O   UNL     1      -2.893   3.756 -19.560  0.00  0.00    -0.245 OA
ATOM     12  C   UNL     1      -3.658   3.483 -23.374  0.00  0.00    +0.021 A 
ENDROOT
BRANCH   8  13
ATOM     13  O   UNL     1      -0.731   3.460 -25.952  0.00  0.00    -0.507 OA
ATOM     14  H   UNL     1      -0.117   2.753 -25.957  0.00  0.00    +0.292 HD
ENDBRANCH   8  13
TORSDOF 1
ENDMDL
MODEL 4
REMARK VINA RESULT:    -7.274      1.755      2.573
REMARK INTER + INTRA:          -7.487
REMARK INTER:                  -7.487
REMARK INTRA:                   0.000
REMARK UNBOUND:                 0.000
REMARK  Name = ZINC000000058121
REMARK  2 active torsions:
REMARK  status: ('A' for Active; 'I' for Inactive)
REMARK    1  A    between atoms: C_1  and  C_2
REMARK    2  A    between atoms: C_9  and  O_10
REMARK                            x       y       z     vdW  Elec       q    Type
REMARK                         _______ _______ _______ _____ _____    ______ ____
ROOT
ATOM      1  C   UNL     1      -0.993   3.481 -24.804  0.00  0.00    +0.045 C 
ATOM      2  C   UNL     1      -1.364   2.985 -23.661  0.00  0.00    -0.033 A 
ATOM      3  C   UNL     1      -0.503   2.358 -22.915  0.00  0.00    +0.096 A 
ATOM      4  C   UNL     1      -0.873   1.861 -21.772  0.00  0.00    +0.337 A 
ATOM      5  O   UNL     1      -2.104   1.991 -21.375  0.00  0.00    -0.422 OA
ATOM      6  C   UNL     1      -2.964   2.618 -22.121  0.00  0.00    +0.143 A 
ATOM      7  C   UNL     1      -4.196   2.749 -21.724  0.00  0.00    +0.092 A 
ATOM      8  C   UNL     1      -5.056   3.375 -22.469  0.00  0.00    +0.120 A 
ATOM      9  C   UNL     1      -4.686   3.872 -23.612  0.00  0.00    +0.046 A 
ATOM     10  C   UNL     1      -3.456   3.742 -24.010  0.00  0.00    +0.015 A 
ATOM     11  O   UNL     1      -0.013   1.234 -21.027  0.00  0.00    -0.245 OA
ATOM     12  C   UNL     1      -2.594   3.115 -23.264  0.00  0.00    +0.021 A 
ENDROOT
BRANCH   8  13
ATOM     13  O   UNL     1      -6.287   3.505 -22.071  0.00  0.00    -0.507 OA
ATOM     14  H   UNL     1      -6.495   4.095 -21.375  0.00  0.00    +0.292 HD
ENDBRANCH   8  13
TORSDOF 1
ENDMDL
MODEL 5
REMARK VINA RESULT:    -7.238      1.787      2.635
REMARK INTER + INTRA:          -7.449
REMARK INTER:                  -7.449
REMARK INTRA:                   0.000
REMARK UNBOUND:                 0.000
REMARK  Name = ZINC000000058121
REMARK  2 active torsions:
REMARK  status: ('A' for Active; 'I' for Inactive)
REMARK    1  A    between atoms: C_1  and  C_2
REMARK    2  A    between atoms: C_9  and  O_10
REMARK                            x       y       z     vdW  Elec       q    Type
REMARK                         _______ _______ _______ _____ _____    ______ ____
ROOT
ATOM      1  C   UNL     1      -0.462   1.619 -21.366  0.00  0.00    +0.045 C 
ATOM      2  C   UNL     1      -0.959   2.283 -22.367  0.00  0.00    -0.033 A 
ATOM      3  C   UNL     1      -0.204   2.597 -23.377  0.00  0.00    +0.096 A 
ATOM      4  C   UNL     1      -0.701   3.261 -24.378  0.00  0.00    +0.337 A 
ATOM      5  O   UNL     1      -1.952   3.611 -24.369  0.00  0.00    -0.422 OA
ATOM      6  C   UNL     1      -2.707   3.298 -23.358  0.00  0.00    +0.143 A 
ATOM      7  C   UNL     1      -3.959   3.648 -23.348  0.00  0.00    +0.092 A 
ATOM      8  C   UNL     1      -4.714   3.335 -22.337  0.00  0.00    +0.120 A 
ATOM      9  C   UNL     1      -4.217   2.671 -21.336  0.00  0.00    +0.046 A 
ATOM     10  C   UNL     1      -2.966   2.320 -21.346  0.00  0.00    +0.015 A 
ATOM     11  O   UNL     1       0.054   3.575 -25.389  0.00  0.00    -0.245 OA
ATOM     12  C   UNL     1      -2.210   2.634 -22.357  0.00  0.00    +0.021 A 
ENDROOT
BRANCH   8  13
ATOM     13  O   UNL     1      -5.966   3.685 -22.328  0.00  0.00    -0.507 OA
ATOM     14  H   UNL     1      -6.374   3.946 -21.528  0.00  0.00    +0.292 HD
ENDBRANCH   8  13
TORSDOF 1
ENDMDL
MODEL 6
REMARK VINA RESULT:    -7.172      1.911      3.634
REMARK INTER + INTRA:          -7.382
REMARK INTER:                  -7.382
REMARK INTRA:                   0.000
REMARK UNBOUND:                 0.000
REMARK  Name = ZINC000000058121
REMARK  2 active torsions:
REMARK  status: ('A' for Active; 'I' for Inactive)
REMARK    1  A    between atoms: C_1  and  C_2
REMARK    2  A    between atoms: C_9  and  O_10
REMARK                            x       y       z     vdW  Elec       q    Type
REMARK                         _______ _______ _______ _____ _____    ______ ____
ROOT
ATOM      1  C   UNL     1      -4.445   3.377 -25.468  0.00  0.00    +0.045 C 
ATOM      2  C   UNL     1      -3.319   3.496 -24.830  0.00  0.00    -0.033 A 
ATOM      3  C   UNL     1      -2.201   3.551 -25.490  0.00  0.00    +0.096 A 
ATOM      4  C   UNL     1      -1.074   3.670 -24.852  0.00  0.00    +0.337 A 
ATOM      5  O   UNL     1      -1.067   3.734 -23.554  0.00  0.00    -0.422 OA
ATOM      6  C   UNL     1      -2.185   3.680 -22.894  0.00  0.00    +0.143 A 
ATOM      7  C   UNL     1      -2.178   3.744 -21.595  0.00  0.00    +0.092 A 
ATOM      8  C   UNL     1      -3.297   3.690 -20.935  0.00  0.00    +0.120 A 
ATOM      9  C   UNL     1      -4.423   3.571 -21.573  0.00  0.00    +0.046 A 
ATOM     10  C   UNL     1      -4.431   3.506 -22.871  0.00  0.00    +0.015 A 
ATOM     11  O   UNL     1       0.044   3.724 -25.511  0.00  0.00    -0.245 OA
ATOM     12  C   UNL     1      -3.311   3.561 -23.532  0.00  0.00    +0.021 A 
ENDROOT
BRANCH   8  13
ATOM     13  O   UNL     1      -3.288   3.754 -19.637  0.00  0.00    -0.507 OA
ATOM     14  H   UNL     1      -3.196   4.582 -19.209  0.00  0.00    +0.292 HD
ENDBRANCH   8  13
TORSDOF 1
ENDMDL
MODEL 7
REMARK VINA RESULT:    -7.151      1.890      4.326
REMARK INTER + INTRA:          -7.360
REMARK INTER:                  -7.360
REMARK INTRA:                   0.000
REMARK UNBOUND:                 0.000
REMARK  Name = ZINC000000058121
REMARK  2 active torsions:
REMARK  status: ('A' for Active; 'I' for Inactive)
REMARK    1  A    between atoms: C_1  and  C_2
REMARK    2  A    between atoms: C_9  and  O_10
REMARK                            x       y       z     vdW  Elec       q    Type
REMARK                         _______ _______ _______ _____ _____    ______ ____
ROOT
ATOM      1  C   UNL     1      -4.062   4.337 -25.503  0.00  0.00    +0.045 C 
ATOM      2  C   UNL     1      -4.111   3.854 -24.297  0.00  0.00    -0.033 A 
ATOM      3  C   UNL     1      -5.245   3.804 -23.663  0.00  0.00    +0.096 A 
ATOM      4  C   UNL     1      -5.294   3.321 -22.457  0.00  0.00    +0.337 A 
ATOM      5  O   UNL     1      -4.210   2.888 -21.885  0.00  0.00    -0.422 OA
ATOM      6  C   UNL     1      -3.077   2.938 -22.520  0.00  0.00    +0.143 A 
ATOM      7  C   UNL     1      -1.992   2.504 -21.948  0.00  0.00    +0.092 A 
ATOM      8  C   UNL     1      -0.859   2.554 -22.583  0.00  0.00    +0.120 A 
ATOM      9  C   UNL     1      -0.809   3.037 -23.788  0.00  0.00    +0.046 A 
ATOM     10  C   UNL     1      -1.893   3.470 -24.360  0.00  0.00    +0.015 A 
ATOM     11  O   UNL     1      -6.428   3.271 -21.823  0.00  0.00    -0.245 OA
ATOM     12  C   UNL     1      -3.027   3.421 -23.726  0.00  0.00    +0.021 A 
ENDROOT
BRANCH   8  13
ATOM     13  O   UNL     1       0.225   2.121 -22.010  0.00  0.00    -0.507 OA
ATOM     14  H   UNL     1       0.909   1.743 -22.526  0.00  0.00    +0.292 HD
ENDBRANCH   8  13
TORSDOF 1
ENDMDL
MODEL 8
REMARK VINA RESULT:    -6.579      2.006      4.708
REMARK INTER + INTRA:          -6.771
REMARK INTER:                  -6.771
REMARK INTRA:                   0.000
REMARK UNBOUND:                 0.000
REMARK  Name = ZINC000000058121
REMARK  2 active torsions:
REMARK  status: ('A' for Active; 'I' for Inactive)
REMARK    1  A    between atoms: C_1  and  C_2
REMARK    2  A    between atoms: C_9  and  O_10
REMARK                            x       y       z     vdW  Elec       q    Type
REMARK                         _______ _______ _______ _____ _____    ______ ____
ROOT
ATOM      1  C   UNL     1      -1.571   3.824 -24.808  0.00  0.00    +0.045 C 
ATOM      2  C   UNL     1      -1.812   3.266 -23.659  0.00  0.00    -0.033 A 
ATOM      3  C   UNL     1      -3.015   3.280 -23.168  0.00  0.00    +0.096 A 
ATOM      4  C   UNL     1      -3.256   2.723 -22.019  0.00  0.00    +0.337 A 
ATOM      5  O   UNL     1      -2.292   2.151 -21.360  0.00  0.00    -0.422 OA
ATOM      6  C   UNL     1      -1.089   2.136 -21.851  0.00  0.00    +0.143 A 
ATOM      7  C   UNL     1      -0.125   1.564 -21.192  0.00  0.00    +0.092 A 
ATOM      8  C   UNL     1       1.079   1.550 -21.682  0.00  0.00    +0.120 A 
ATOM      9  C   UNL     1       1.319   2.107 -22.832  0.00  0.00    +0.046 A 
ATOM     10  C   UNL     1       0.356   2.679 -23.491  0.00  0.00    +0.015 A 
ATOM     11  O   UNL     1      -4.459   2.737 -21.528  0.00  0.00    -0.245 OA
ATOM     12  C   UNL     1      -0.849   2.694 -23.000  0.00  0.00    +0.021 A 
ENDROOT
BRANCH   8  13
ATOM     13  O   UNL     1       2.042   0.977 -21.023  0.00  0.00    -0.507 OA
ATOM     14  H   UNL     1       2.064   1.026 -20.088  0.00  0.00    +0.292 HD
ENDBRANCH   8  13
TORSDOF 1
ENDMDL
MODEL 9
REMARK VINA RESULT:    -6.543      2.761      3.784
REMARK INTER + INTRA:          -6.734
REMARK INTER:                  -6.734
REMARK INTRA:                   0.000
REMARK UNBOUND:                 0.000
REMARK  Name = ZINC000000058121
REMARK  2 active torsions:
REMARK  status: ('A' for Active; 'I' for Inactive)
REMARK    1  A    between atoms: C_1  and  C_2
REMARK    2  A    between atoms: C_9  and  O_10
REMARK                            x       y       z     vdW  Elec       q    Type
REMARK                         _______ _______ _______ _____ _____    ______ ____
ROOT
ATOM      1  C   UNL     1       2.686   4.893 -23.251  0.00  0.00    +0.045 C 
ATOM      2  C   UNL     1       2.037   3.766 -23.257  0.00  0.00    -0.033 A 
ATOM      3  C   UNL     1       2.687   2.641 -23.225  0.00  0.00    +0.096 A 
ATOM      4  C   UNL     1       2.038   1.515 -23.231  0.00  0.00    +0.337 A 
ATOM      5  O   UNL     1       0.739   1.513 -23.269  0.00  0.00    -0.422 OA
ATOM      6  C   UNL     1       0.089   2.638 -23.300  0.00  0.00    +0.143 A 
ATOM      7  C   UNL     1      -1.211   2.637 -23.338  0.00  0.00    +0.092 A 
ATOM      8  C   UNL     1      -1.861   3.762 -23.370  0.00  0.00    +0.120 A 
ATOM      9  C   UNL     1      -1.212   4.889 -23.364  0.00  0.00    +0.046 A 
ATOM     10  C   UNL     1       0.087   4.890 -23.326  0.00  0.00    +0.015 A 
ATOM     11  O   UNL     1       2.689   0.390 -23.199  0.00  0.00    -0.245 OA
ATOM     12  C   UNL     1       0.738   3.765 -23.295  0.00  0.00    +0.021 A 
ENDROOT
BRANCH   8  13
ATOM     13  O   UNL     1      -3.161   3.760 -23.408  0.00  0.00    -0.507 OA
ATOM     14  H   UNL     1      -3.644   3.158 -22.879  0.00  0.00    +0.292 HD
ENDBRANCH   8  13
TORSDOF 1
ENDMDL
