MODEL 1
REMARK VINA RESULT:   -10.549      0.000      0.000
REMARK INTER + INTRA:         -10.857
REMARK INTER:                 -10.857
REMARK INTRA:                   0.000
REMARK UNBOUND:                 0.000
REMARK  Name = C=C1C(=O)O[C@@H]2/C=C(\C)[C@H](O)C/C=C(\C)CC[C@H]12                  ZINC000253393411
REMARK  3 active torsions:
REMARK  status: ('A' for Active; 'I' for Inactive)
REMARK    1  A    between atoms: C_8  and  C_9
REMARK    2  A    between atoms: C_10  and  O_11
REMARK    3  A    between atoms: C_14  and  C_15
REMARK                            x       y       z     vdW  Elec       q    Type
REMARK                         _______ _______ _______ _____ _____    ______ ____
ROOT
ATOM      1  C   UNL     1       0.603   1.536 -21.201  0.00  0.00    +0.020 C 
ATOM      2  C   UNL     1      -0.120   1.985 -22.186  0.00  0.00    +0.036 C 
ATOM      3  C   UNL     1       0.287   2.175 -23.410  0.00  0.00    +0.336 C 
ATOM      4  O   UNL     1      -0.715   2.630 -24.106  0.00  0.00    -0.453 OA
ATOM      5  C   UNL     1      -1.744   2.721 -23.310  0.00  0.00    +0.207 C 
ATOM      6  C   UNL     1      -2.830   3.070 -23.488  0.00  0.00    +0.019 C 
ATOM      7  C   UNL     1      -3.245   3.475 -24.645  0.00  0.00    -0.045 C 
ATOM      8  C   UNL     1      -4.550   3.883 -24.811  0.00  0.00    +0.144 C 
ATOM      9  C   UNL     1      -5.510   3.893 -23.769  0.00  0.00    +0.063 C 
ATOM     10  C   UNL     1      -5.257   3.504 -22.491  0.00  0.00    -0.025 C 
ATOM     11  C   UNL     1      -4.127   3.134 -22.280  0.00  0.00    -0.076 C 
ATOM     12  C   UNL     1      -3.628   2.713 -21.151  0.00  0.00    +0.031 C 
ATOM     13  C   UNL     1      -2.286   2.314 -21.064  0.00  0.00    +0.016 C 
ATOM     14  C   UNL     1      -3.507   3.168 -23.117  0.00  0.00    +0.039 C 
ATOM     15  C   UNL     1      -2.422   3.497 -25.665  0.00  0.00    +0.041 C 
ATOM     16  O   UNL     1       1.489   1.950 -23.863  0.00  0.00    -0.245 OA
ATOM     17  C   UNL     1      -1.378   2.324 -22.127  0.00  0.00    +0.070 C 
ENDROOT
BRANCH   8  18
ATOM     18  O   UNL     1      -4.924   4.284 -26.001  0.00  0.00    -0.387 OA
ATOM     19  H   UNL     1      -4.144   4.371 -26.572  0.00  0.00    +0.210 HD
ENDBRANCH   8  18
TORSDOF 1
ENDMDL
MODEL 2
REMARK VINA RESULT:   -10.376      1.639      2.757
REMARK INTER + INTRA:         -10.680
REMARK INTER:                 -10.680
REMARK INTRA:                   0.000
REMARK UNBOUND:                 0.000
REMARK  Name = C=C1C(=O)O[C@@H]2/C=C(\C)[C@H](O)C/C=C(\C)CC[C@H]12                  ZINC000253393411
REMARK  3 active torsions:
REMARK  status: ('A' for Active; 'I' for Inactive)
REMARK    1  A    between atoms: C_8  and  C_9
REMARK    2  A    between atoms: C_10  and  O_11
REMARK    3  A    between atoms: C_14  and  C_15
REMARK                            x       y       z     vdW  Elec       q    Type
REMARK                         _______ _______ _______ _____ _____    ______ ____
ROOT
ATOM      1  C   UNL     1       1.479   2.124 -22.920  0.00  0.00    +0.020 C 
ATOM      2  C   UNL     1       0.241   2.240 -22.535  0.00  0.00    +0.036 C 
ATOM      3  C   UNL     1      -0.238   1.878 -21.378  0.00  0.00    +0.336 C 
ATOM      4  O   UNL     1      -1.511   2.150 -21.362  0.00  0.00    -0.453 OA
ATOM      5  C   UNL     1      -1.820   2.682 -22.512  0.00  0.00    +0.207 C 
ATOM      6  C   UNL     1      -2.819   3.074 -22.939  0.00  0.00    +0.019 C 
ATOM      7  C   UNL     1      -3.920   3.041 -22.261  0.00  0.00    -0.045 C 
ATOM      8  C   UNL     1      -5.088   3.520 -22.812  0.00  0.00    +0.144 C 
ATOM      9  C   UNL     1      -5.178   4.066 -24.117  0.00  0.00    +0.063 C 
ATOM     10  C   UNL     1      -4.128   4.181 -24.971  0.00  0.00    -0.025 C 
ATOM     11  C   UNL     1      -3.072   3.778 -24.547  0.00  0.00    -0.076 C 
ATOM     12  C   UNL     1      -1.921   3.773 -25.160  0.00  0.00    +0.031 C 
ATOM     13  C   UNL     1      -0.774   3.267 -24.528  0.00  0.00    +0.016 C 
ATOM     14  C   UNL     1      -3.123   3.398 -23.578  0.00  0.00    +0.039 C 
ATOM     15  C   UNL     1      -3.927   2.552 -21.045  0.00  0.00    +0.041 C 
ATOM     16  O   UNL     1       0.437   1.336 -20.402  0.00  0.00    -0.245 OA
ATOM     17  C   UNL     1      -0.741   2.737 -23.235  0.00  0.00    +0.070 C 
ENDROOT
BRANCH   8  18
ATOM     18  O   UNL     1      -6.179   3.466 -22.087  0.00  0.00    -0.387 OA
ATOM     19  H   UNL     1      -6.921   3.836 -22.591  0.00  0.00    +0.210 HD
ENDBRANCH   8  18
TORSDOF 1
ENDMDL
MODEL 3
REMARK VINA RESULT:    -9.241      1.794      4.971
REMARK INTER + INTRA:          -9.511
REMARK INTER:                  -9.511
REMARK INTRA:                   0.000
REMARK UNBOUND:                 0.000
REMARK  Name = C=C1C(=O)O[C@@H]2/C=C(\C)[C@H](O)C/C=C(\C)CC[C@H]12                  ZINC000253393411
REMARK  3 active torsions:
REMARK  status: ('A' for Active; 'I' for Inactive)
REMARK    1  A    between atoms: C_8  and  C_9
REMARK    2  A    between atoms: C_10  and  O_11
REMARK    3  A    between atoms: C_14  and  C_15
REMARK                            x       y       z     vdW  Elec       q    Type
REMARK                         _______ _______ _______ _____ _____    ______ ____
ROOT
ATOM      1  C   UNL     1      -5.393   3.430 -22.614  0.00  0.00    +0.020 C 
ATOM      2  C   UNL     1      -4.168   3.054 -22.388  0.00  0.00    +0.036 C 
ATOM      3  C   UNL     1      -3.739   2.451 -21.315  0.00  0.00    +0.336 C 
ATOM      4  O   UNL     1      -2.462   2.236 -21.453  0.00  0.00    -0.453 OA
ATOM      5  C   UNL     1      -2.102   2.707 -22.615  0.00  0.00    +0.207 C 
ATOM      6  C   UNL     1      -1.081   2.737 -23.154  0.00  0.00    +0.019 C 
ATOM      7  C   UNL     1      -0.006   2.250 -22.624  0.00  0.00    -0.045 C 
ATOM      8  C   UNL     1       1.191   2.308 -23.304  0.00  0.00    +0.144 C 
ATOM      9  C   UNL     1       1.339   2.885 -24.590  0.00  0.00    +0.063 C 
ATOM     10  C   UNL     1       0.323   3.444 -25.299  0.00  0.00    -0.025 C 
ATOM     11  C   UNL     1      -0.756   3.424 -24.756  0.00  0.00    -0.076 C 
ATOM     12  C   UNL     1      -1.884   3.890 -25.216  0.00  0.00    +0.031 C 
ATOM     13  C   UNL     1      -3.062   3.791 -24.459  0.00  0.00    +0.016 C 
ATOM     14  C   UNL     1      -0.747   2.977 -23.815  0.00  0.00    +0.039 C 
ATOM     15  C   UNL     1      -0.052   1.698 -21.436  0.00  0.00    +0.041 C 
ATOM     16  O   UNL     1      -4.459   2.120 -20.279  0.00  0.00    -0.245 OA
ATOM     17  C   UNL     1      -3.153   3.210 -23.191  0.00  0.00    +0.070 C 
ENDROOT
BRANCH   8  18
ATOM     18  O   UNL     1       2.253   1.801 -22.727  0.00  0.00    -0.387 OA
ATOM     19  H   UNL     1       1.989   1.328 -21.923  0.00  0.00    +0.210 HD
ENDBRANCH   8  18
TORSDOF 1
ENDMDL
MODEL 4
REMARK VINA RESULT:    -8.962      2.468      4.258
REMARK INTER + INTRA:          -9.224
REMARK INTER:                  -9.224
REMARK INTRA:                   0.000
REMARK UNBOUND:                 0.000
REMARK  Name = C=C1C(=O)O[C@@H]2/C=C(\C)[C@H](O)C/C=C(\C)CC[C@H]12                  ZINC000253393411
REMARK  3 active torsions:
REMARK  status: ('A' for Active; 'I' for Inactive)
REMARK    1  A    between atoms: C_8  and  C_9
REMARK    2  A    between atoms: C_10  and  O_11
REMARK    3  A    between atoms: C_14  and  C_15
REMARK                            x       y       z     vdW  Elec       q    Type
REMARK                         _______ _______ _______ _____ _____    ______ ____
ROOT
ATOM      1  C   UNL     1       4.784   2.191 -22.266  0.00  0.00    +0.020 C 
ATOM      2  C   UNL     1       3.502   2.010 -22.141  0.00  0.00    +0.036 C 
ATOM      3  C   UNL     1       2.925   0.996 -21.559  0.00  0.00    +0.336 C 
ATOM      4  O   UNL     1       1.636   1.165 -21.631  0.00  0.00    -0.453 OA
ATOM      5  C   UNL     1       1.415   2.287 -22.258  0.00  0.00    +0.207 C 
ATOM      6  C   UNL     1       0.439   2.832 -22.547  0.00  0.00    +0.019 C 
ATOM      7  C   UNL     1      -0.729   2.356 -22.257  0.00  0.00    -0.045 C 
ATOM      8  C   UNL     1      -1.867   3.041 -22.622  0.00  0.00    +0.144 C 
ATOM      9  C   UNL     1      -1.854   4.276 -23.317  0.00  0.00    +0.063 C 
ATOM     10  C   UNL     1      -0.725   4.924 -23.703  0.00  0.00    -0.025 C 
ATOM     11  C   UNL     1       0.310   4.374 -23.413  0.00  0.00    -0.076 C 
ATOM     12  C   UNL     1       1.524   4.782 -23.664  0.00  0.00    +0.031 C 
ATOM     13  C   UNL     1       2.633   4.024 -23.258  0.00  0.00    +0.016 C 
ATOM     14  C   UNL     1       0.182   3.474 -22.903  0.00  0.00    +0.039 C 
ATOM     15  C   UNL     1      -0.832   1.218 -21.615  0.00  0.00    +0.041 C 
ATOM     16  O   UNL     1       3.530  -0.015 -21.001  0.00  0.00    -0.245 OA
ATOM     17  C   UNL     1       2.564   2.808 -22.572  0.00  0.00    +0.070 C 
ENDROOT
BRANCH   8  18
ATOM     18  O   UNL     1      -3.028   2.519 -22.307  0.00  0.00    -0.387 OA
ATOM     19  H   UNL     1      -3.469   3.084 -21.653  0.00  0.00    +0.210 HD
ENDBRANCH   8  18
TORSDOF 1
ENDMDL
MODEL 5
REMARK VINA RESULT:    -8.658      1.290      2.018
REMARK INTER + INTRA:          -8.911
REMARK INTER:                  -8.911
REMARK INTRA:                   0.000
REMARK UNBOUND:                 0.000
REMARK  Name = C=C1C(=O)O[C@@H]2/C=C(\C)[C@H](O)C/C=C(\C)CC[C@H]12                  ZINC000253393411
REMARK  3 active torsions:
REMARK  status: ('A' for Active; 'I' for Inactive)
REMARK    1  A    between atoms: C_8  and  C_9
REMARK    2  A    between atoms: C_10  and  O_11
REMARK    3  A    between atoms: C_14  and  C_15
REMARK                            x       y       z     vdW  Elec       q    Type
REMARK                         _______ _______ _______ _____ _____    ______ ____
ROOT
ATOM      1  C   UNL     1       2.801   1.016 -21.922  0.00  0.00    +0.020 C 
ATOM      2  C   UNL     1       1.948   1.621 -22.696  0.00  0.00    +0.036 C 
ATOM      3  C   UNL     1       2.197   2.098 -23.884  0.00  0.00    +0.336 C 
ATOM      4  O   UNL     1       1.101   2.628 -24.347  0.00  0.00    -0.453 OA
ATOM      5  C   UNL     1       0.172   2.477 -23.443  0.00  0.00    +0.207 C 
ATOM      6  C   UNL     1      -0.940   2.787 -23.419  0.00  0.00    +0.019 C 
ATOM      7  C   UNL     1      -1.506   3.405 -24.404  0.00  0.00    -0.045 C 
ATOM      8  C   UNL     1      -2.836   3.755 -24.331  0.00  0.00    +0.144 C 
ATOM      9  C   UNL     1      -3.664   3.477 -23.214  0.00  0.00    +0.063 C 
ATOM     10  C   UNL     1      -3.243   2.837 -22.092  0.00  0.00    -0.025 C 
ATOM     11  C   UNL     1      -2.083   2.503 -22.093  0.00  0.00    -0.076 C 
ATOM     12  C   UNL     1      -1.436   1.879 -21.147  0.00  0.00    +0.031 C 
ATOM     13  C   UNL     1      -0.078   1.558 -21.299  0.00  0.00    +0.016 C 
ATOM     14  C   UNL     1      -1.571   2.758 -22.964  0.00  0.00    +0.039 C 
ATOM     15  C   UNL     1      -0.814   3.702 -25.477  0.00  0.00    +0.041 C 
ATOM     16  O   UNL     1       3.342   2.055 -24.504  0.00  0.00    -0.245 OA
ATOM     17  C   UNL     1       0.694   1.857 -22.426  0.00  0.00    +0.070 C 
ENDROOT
BRANCH   8  18
ATOM     18  O   UNL     1      -3.367   4.381 -25.354  0.00  0.00    -0.387 OA
ATOM     19  H   UNL     1      -4.193   4.807 -25.078  0.00  0.00    +0.210 HD
ENDBRANCH   8  18
TORSDOF 1
ENDMDL
MODEL 6
REMARK VINA RESULT:    -8.258      1.884      3.093
REMARK INTER + INTRA:          -8.499
REMARK INTER:                  -8.499
REMARK INTRA:                   0.000
REMARK UNBOUND:                 0.000
REMARK  Name = C=C1C(=O)O[C@@H]2/C=C(\C)[C@H](O)C/C=C(\C)CC[C@H]12                  ZINC000253393411
REMARK  3 active torsions:
REMARK  status: ('A' for Active; 'I' for Inactive)
REMARK    1  A    between atoms: C_8  and  C_9
REMARK    2  A    between atoms: C_10  and  O_11
REMARK    3  A    between atoms: C_14  and  C_15
REMARK                            x       y       z     vdW  Elec       q    Type
REMARK                         _______ _______ _______ _____ _____    ______ ____
ROOT
ATOM      1  C   UNL     1       4.019   1.464 -21.619  0.00  0.00    +0.020 C 
ATOM      2  C   UNL     1       3.118   1.979 -22.405  0.00  0.00    +0.036 C 
ATOM      3  C   UNL     1       3.343   2.560 -23.550  0.00  0.00    +0.336 C 
ATOM      4  O   UNL     1       2.200   2.946 -24.041  0.00  0.00    -0.453 OA
ATOM      5  C   UNL     1       1.267   2.603 -23.197  0.00  0.00    +0.207 C 
ATOM      6  C   UNL     1       0.120   2.739 -23.216  0.00  0.00    +0.019 C 
ATOM      7  C   UNL     1      -0.490   3.324 -24.195  0.00  0.00    -0.045 C 
ATOM      8  C   UNL     1      -1.860   3.464 -24.174  0.00  0.00    +0.144 C 
ATOM      9  C   UNL     1      -2.683   2.997 -23.119  0.00  0.00    +0.063 C 
ATOM     10  C   UNL     1      -2.220   2.360 -22.012  0.00  0.00    -0.025 C 
ATOM     11  C   UNL     1      -1.023   2.206 -21.970  0.00  0.00    -0.076 C 
ATOM     12  C   UNL     1      -0.331   1.630 -21.026  0.00  0.00    +0.031 C 
ATOM     13  C   UNL     1       1.066   1.527 -21.123  0.00  0.00    +0.016 C 
ATOM     14  C   UNL     1      -0.518   2.588 -22.797  0.00  0.00    +0.039 C 
ATOM     15  C   UNL     1       0.196   3.787 -25.212  0.00  0.00    +0.041 C 
ATOM     16  O   UNL     1       4.508   2.728 -24.110  0.00  0.00    -0.245 OA
ATOM     17  C   UNL     1       1.832   2.007 -22.189  0.00  0.00    +0.070 C 
ENDROOT
BRANCH   8  18
ATOM     18  O   UNL     1      -2.434   4.064 -25.188  0.00  0.00    -0.387 OA
ATOM     19  H   UNL     1      -3.275   3.625 -25.390  0.00  0.00    +0.210 HD
ENDBRANCH   8  18
TORSDOF 1
ENDMDL
MODEL 7
REMARK VINA RESULT:    -7.905      2.219      6.090
REMARK INTER + INTRA:          -8.137
REMARK INTER:                  -8.137
REMARK INTRA:                   0.000
REMARK UNBOUND:                 0.000
REMARK  Name = C=C1C(=O)O[C@@H]2/C=C(\C)[C@H](O)C/C=C(\C)CC[C@H]12                  ZINC000253393411
REMARK  3 active torsions:
REMARK  status: ('A' for Active; 'I' for Inactive)
REMARK    1  A    between atoms: C_8  and  C_9
REMARK    2  A    between atoms: C_10  and  O_11
REMARK    3  A    between atoms: C_14  and  C_15
REMARK                            x       y       z     vdW  Elec       q    Type
REMARK                         _______ _______ _______ _____ _____    ______ ____
ROOT
ATOM      1  C   UNL     1      -2.906   3.183 -24.018  0.00  0.00    +0.020 C 
ATOM      2  C   UNL     1      -1.928   2.815 -23.242  0.00  0.00    +0.036 C 
ATOM      3  C   UNL     1      -2.045   2.371 -22.022  0.00  0.00    +0.336 C 
ATOM      4  O   UNL     1      -0.853   2.107 -21.569  0.00  0.00    -0.453 OA
ATOM      5  C   UNL     1       0.003   2.389 -22.511  0.00  0.00    +0.207 C 
ATOM      6  C   UNL     1       1.154   2.314 -22.557  0.00  0.00    +0.019 C 
ATOM      7  C   UNL     1       1.859   1.887 -21.560  0.00  0.00    -0.045 C 
ATOM      8  C   UNL     1       3.231   1.814 -21.660  0.00  0.00    +0.144 C 
ATOM      9  C   UNL     1       3.957   2.187 -22.818  0.00  0.00    +0.063 C 
ATOM     10  C   UNL     1       3.387   2.657 -23.959  0.00  0.00    -0.025 C 
ATOM     11  C   UNL     1       2.184   2.745 -23.936  0.00  0.00    -0.076 C 
ATOM     12  C   UNL     1       1.400   3.163 -24.891  0.00  0.00    +0.031 C 
ATOM     13  C   UNL     1       0.009   3.207 -24.710  0.00  0.00    +0.016 C 
ATOM     14  C   UNL     1       1.755   2.444 -23.035  0.00  0.00    +0.039 C 
ATOM     15  C   UNL     1       1.267   1.520 -20.449  0.00  0.00    +0.041 C 
ATOM     16  O   UNL     1      -3.161   2.215 -21.365  0.00  0.00    -0.245 OA
ATOM     17  C   UNL     1      -0.659   2.826 -23.542  0.00  0.00    +0.070 C 
ENDROOT
BRANCH   8  18
ATOM     18  O   UNL     1       3.902   1.374 -20.623  0.00  0.00    -0.387 OA
ATOM     19  H   UNL     1       3.301   1.271 -19.869  0.00  0.00    +0.210 HD
ENDBRANCH   8  18
TORSDOF 1
ENDMDL
