MODEL 1
REMARK VINA RESULT:   -10.051      0.000      0.000
REMARK INTER + INTRA:         -10.051
REMARK INTER:                 -10.051
REMARK INTRA:                   0.000
REMARK UNBOUND:                 0.000
REMARK  Name = ZINC000071404307
REMARK  2 active torsions:
REMARK  status: ('A' for Active; 'I' for Inactive)
REMARK    1  A    between atoms: C_1  and  C_2
REMARK    2  A    between atoms: C_2  and  C_3
REMARK                            x       y       z     vdW  Elec       q    Type
REMARK                         _______ _______ _______ _____ _____    ______ ____
ROOT
ATOM      1  C   UNL     1       1.511   1.681 -21.931  0.00  0.00    +0.055 C 
ATOM      2  C   UNL     1       0.272   2.016 -22.134  0.00  0.00    +0.105 C 
ATOM      3  C   UNL     1       0.746   2.163 -23.336  0.00  0.00    +0.052 C 
ATOM      4  C   UNL     1      -0.035   2.553 -24.299  0.00  0.00    +0.045 C 
ATOM      5  C   UNL     1      -1.289   2.797 -24.061  0.00  0.00    +0.020 A 
ATOM      6  C   UNL     1      -1.763   2.651 -22.859  0.00  0.00    +0.134 A 
ATOM      7  C   UNL     1      -3.018   2.895 -22.621  0.00  0.00    +0.026 A 
ATOM      8  C   UNL     1      -3.492   2.749 -21.419  0.00  0.00    +0.012 A 
ATOM      9  C   UNL     1      -4.746   2.993 -21.181  0.00  0.00    +0.001 A 
ATOM     10  C   UNL     1      -5.526   3.383 -22.145  0.00  0.00    +0.001 A 
ATOM     11  C   UNL     1      -5.052   3.530 -23.346  0.00  0.00    +0.011 A 
ATOM     12  C   UNL     1      -3.798   3.286 -23.584  0.00  0.00    +0.013 A 
ATOM     13  C   UNL     1      -3.324   3.432 -24.786  0.00  0.00    +0.097 A 
ATOM     14  N   UNL     1      -3.880   3.802 -25.902  0.00  0.00    -0.235 NA
ATOM     15  C   UNL     1      -2.969   3.787 -26.829  0.00  0.00    +0.197 A 
ATOM     16  N   UNL     1      -1.851   3.407 -26.287  0.00  0.00    -0.344 N 
ATOM     17  H   UNL     1      -0.989   3.304 -26.751  0.00  0.00    +0.167 HD
ATOM     18  C   UNL     1      -2.070   3.188 -25.025  0.00  0.00    +0.073 A 
ATOM     19  C   UNL     1       0.229   1.753 -20.862  0.00  0.00    +0.055 C 
ATOM     20  O   UNL     1      -0.982   2.260 -21.896  0.00  0.00    -0.485 OA
ENDROOT
TORSDOF 0
ENDMDL
MODEL 2
REMARK VINA RESULT:    -9.816      1.645      3.359
REMARK INTER + INTRA:          -9.816
REMARK INTER:                  -9.816
REMARK INTRA:                   0.000
REMARK UNBOUND:                 0.000
REMARK  Name = ZINC000071404307
REMARK  2 active torsions:
REMARK  status: ('A' for Active; 'I' for Inactive)
REMARK    1  A    between atoms: C_1  and  C_2
REMARK    2  A    between atoms: C_2  and  C_3
REMARK                            x       y       z     vdW  Elec       q    Type
REMARK                         _______ _______ _______ _____ _____    ______ ____
ROOT
ATOM      1  C   UNL     1       1.606   1.806 -22.170  0.00  0.00    +0.055 C 
ATOM      2  C   UNL     1       0.525   2.165 -22.796  0.00  0.00    +0.105 C 
ATOM      3  C   UNL     1       0.048   2.001 -21.598  0.00  0.00    +0.052 C 
ATOM      4  C   UNL     1      -1.214   2.209 -21.368  0.00  0.00    +0.045 C 
ATOM      5  C   UNL     1      -1.999   2.582 -22.335  0.00  0.00    +0.020 A 
ATOM      6  C   UNL     1      -1.521   2.746 -23.533  0.00  0.00    +0.134 A 
ATOM      7  C   UNL     1      -2.307   3.119 -24.500  0.00  0.00    +0.026 A 
ATOM      8  C   UNL     1      -1.829   3.283 -25.698  0.00  0.00    +0.012 A 
ATOM      9  C   UNL     1      -2.614   3.655 -26.665  0.00  0.00    +0.001 A 
ATOM     10  C   UNL     1      -3.876   3.863 -26.434  0.00  0.00    +0.001 A 
ATOM     11  C   UNL     1      -4.353   3.699 -25.236  0.00  0.00    +0.011 A 
ATOM     12  C   UNL     1      -3.569   3.327 -24.269  0.00  0.00    +0.013 A 
ATOM     13  C   UNL     1      -4.046   3.163 -23.071  0.00  0.00    +0.097 A 
ATOM     14  N   UNL     1      -5.244   3.303 -22.585  0.00  0.00    -0.235 NA
ATOM     15  C   UNL     1      -5.200   3.017 -21.318  0.00  0.00    +0.197 A 
ATOM     16  N   UNL     1      -3.974   2.700 -21.020  0.00  0.00    -0.344 N 
ATOM     17  H   UNL     1      -3.644   2.438 -20.131  0.00  0.00    +0.167 HD
ATOM     18  C   UNL     1      -3.262   2.791 -22.103  0.00  0.00    +0.073 A 
ATOM     19  C   UNL     1       1.378   2.204 -23.776  0.00  0.00    +0.055 C 
ATOM     20  O   UNL     1      -0.260   2.537 -23.764  0.00  0.00    -0.485 OA
ENDROOT
TORSDOF 0
ENDMDL
MODEL 3
REMARK VINA RESULT:    -9.380      1.390      4.374
REMARK INTER + INTRA:          -9.380
REMARK INTER:                  -9.380
REMARK INTRA:                   0.000
REMARK UNBOUND:                 0.000
REMARK  Name = ZINC000071404307
REMARK  2 active torsions:
REMARK  status: ('A' for Active; 'I' for Inactive)
REMARK    1  A    between atoms: C_1  and  C_2
REMARK    2  A    between atoms: C_2  and  C_3
REMARK                            x       y       z     vdW  Elec       q    Type
REMARK                         _______ _______ _______ _____ _____    ______ ____
ROOT
ATOM      1  C   UNL     1      -5.246   3.723 -23.264  0.00  0.00    +0.055 C 
ATOM      2  C   UNL     1      -4.011   3.380 -23.046  0.00  0.00    +0.105 C 
ATOM      3  C   UNL     1      -3.892   3.919 -24.224  0.00  0.00    +0.052 C 
ATOM      4  C   UNL     1      -2.729   3.969 -24.801  0.00  0.00    +0.045 C 
ATOM      5  C   UNL     1      -1.685   3.481 -24.201  0.00  0.00    +0.020 A 
ATOM      6  C   UNL     1      -1.803   2.942 -23.024  0.00  0.00    +0.134 A 
ATOM      7  C   UNL     1      -0.758   2.454 -22.424  0.00  0.00    +0.026 A 
ATOM      8  C   UNL     1      -0.877   1.915 -21.247  0.00  0.00    +0.012 A 
ATOM      9  C   UNL     1       0.168   1.427 -20.647  0.00  0.00    +0.001 A 
ATOM     10  C   UNL     1       1.331   1.477 -21.225  0.00  0.00    +0.001 A 
ATOM     11  C   UNL     1       1.450   2.016 -22.402  0.00  0.00    +0.011 A 
ATOM     12  C   UNL     1       0.405   2.504 -23.001  0.00  0.00    +0.013 A 
ATOM     13  C   UNL     1       0.524   3.043 -24.178  0.00  0.00    +0.097 A 
ATOM     14  N   UNL     1       1.552   3.215 -24.957  0.00  0.00    -0.235 NA
ATOM     15  C   UNL     1       1.141   3.810 -26.038  0.00  0.00    +0.197 A 
ATOM     16  N   UNL     1      -0.139   4.006 -25.927  0.00  0.00    -0.344 N 
ATOM     17  H   UNL     1      -0.718   4.437 -26.596  0.00  0.00    +0.167 HD
ATOM     18  C   UNL     1      -0.520   3.531 -24.779  0.00  0.00    +0.073 A 
ATOM     19  C   UNL     1      -4.559   2.961 -21.945  0.00  0.00    +0.055 C 
ATOM     20  O   UNL     1      -2.967   2.892 -22.447  0.00  0.00    -0.485 OA
ENDROOT
TORSDOF 0
ENDMDL
MODEL 4
REMARK VINA RESULT:    -9.130      2.460      5.393
REMARK INTER + INTRA:          -9.130
REMARK INTER:                  -9.130
REMARK INTRA:                   0.000
REMARK UNBOUND:                 0.000
REMARK  Name = ZINC000071404307
REMARK  2 active torsions:
REMARK  status: ('A' for Active; 'I' for Inactive)
REMARK    1  A    between atoms: C_1  and  C_2
REMARK    2  A    between atoms: C_2  and  C_3
REMARK                            x       y       z     vdW  Elec       q    Type
REMARK                         _______ _______ _______ _____ _____    ______ ____
ROOT
ATOM      1  C   UNL     1      -5.017   3.343 -22.380  0.00  0.00    +0.055 C 
ATOM      2  C   UNL     1      -3.789   3.292 -22.803  0.00  0.00    +0.105 C 
ATOM      3  C   UNL     1      -3.648   2.748 -21.630  0.00  0.00    +0.052 C 
ATOM      4  C   UNL     1      -2.476   2.347 -21.237  0.00  0.00    +0.045 C 
ATOM      5  C   UNL     1      -1.445   2.491 -22.015  0.00  0.00    +0.020 A 
ATOM      6  C   UNL     1      -1.586   3.035 -23.187  0.00  0.00    +0.134 A 
ATOM      7  C   UNL     1      -0.554   3.178 -23.966  0.00  0.00    +0.026 A 
ATOM      8  C   UNL     1      -0.695   3.722 -25.138  0.00  0.00    +0.012 A 
ATOM      9  C   UNL     1       0.336   3.865 -25.917  0.00  0.00    +0.001 A 
ATOM     10  C   UNL     1       1.508   3.464 -25.522  0.00  0.00    +0.001 A 
ATOM     11  C   UNL     1       1.649   2.920 -24.350  0.00  0.00    +0.011 A 
ATOM     12  C   UNL     1       0.618   2.777 -23.572  0.00  0.00    +0.013 A 
ATOM     13  C   UNL     1       0.759   2.234 -22.400  0.00  0.00    +0.097 A 
ATOM     14  N   UNL     1       1.800   1.759 -21.780  0.00  0.00    -0.235 NA
ATOM     15  C   UNL     1       1.411   1.322 -20.618  0.00  0.00    +0.197 A 
ATOM     16  N   UNL     1       0.131   1.527 -20.520  0.00  0.00    -0.344 N 
ATOM     17  H   UNL     1      -0.434   1.296 -19.748  0.00  0.00    +0.167 HD
ATOM     18  C   UNL     1      -0.272   2.090 -21.621  0.00  0.00    +0.073 A 
ATOM     19  C   UNL     1      -4.357   3.853 -23.828  0.00  0.00    +0.055 C 
ATOM     20  O   UNL     1      -2.758   3.435 -23.581  0.00  0.00    -0.485 OA
ENDROOT
TORSDOF 0
ENDMDL
MODEL 5
REMARK VINA RESULT:    -8.205      1.996      4.153
REMARK INTER + INTRA:          -8.205
REMARK INTER:                  -8.205
REMARK INTRA:                   0.000
REMARK UNBOUND:                 0.000
REMARK  Name = ZINC000071404307
REMARK  2 active torsions:
REMARK  status: ('A' for Active; 'I' for Inactive)
REMARK    1  A    between atoms: C_1  and  C_2
REMARK    2  A    between atoms: C_2  and  C_3
REMARK                            x       y       z     vdW  Elec       q    Type
REMARK                         _______ _______ _______ _____ _____    ______ ____
ROOT
ATOM      1  C   UNL     1      -3.470   3.845 -27.358  0.00  0.00    +0.055 C 
ATOM      2  C   UNL     1      -3.472   3.602 -26.081  0.00  0.00    +0.105 C 
ATOM      3  C   UNL     1      -2.215   3.405 -26.346  0.00  0.00    +0.052 C 
ATOM      4  C   UNL     1      -1.396   3.063 -25.397  0.00  0.00    +0.045 C 
ATOM      5  C   UNL     1      -1.835   2.917 -24.182  0.00  0.00    +0.020 A 
ATOM      6  C   UNL     1      -3.092   3.114 -23.916  0.00  0.00    +0.134 A 
ATOM      7  C   UNL     1      -3.530   2.968 -22.700  0.00  0.00    +0.026 A 
ATOM      8  C   UNL     1      -4.788   3.164 -22.435  0.00  0.00    +0.012 A 
ATOM      9  C   UNL     1      -5.226   3.018 -21.220  0.00  0.00    +0.001 A 
ATOM     10  C   UNL     1      -4.406   2.676 -20.271  0.00  0.00    +0.001 A 
ATOM     11  C   UNL     1      -3.149   2.479 -20.536  0.00  0.00    +0.011 A 
ATOM     12  C   UNL     1      -2.711   2.625 -21.751  0.00  0.00    +0.013 A 
ATOM     13  C   UNL     1      -1.454   2.429 -22.016  0.00  0.00    +0.097 A 
ATOM     14  N   UNL     1      -0.448   2.088 -21.265  0.00  0.00    -0.235 NA
ATOM     15  C   UNL     1       0.611   2.024 -22.016  0.00  0.00    +0.197 A 
ATOM     16  N   UNL     1       0.261   2.325 -23.231  0.00  0.00    -0.344 N 
ATOM     17  H   UNL     1       0.857   2.357 -24.014  0.00  0.00    +0.167 HD
ATOM     18  C   UNL     1      -1.014   2.575 -23.232  0.00  0.00    +0.073 A 
ATOM     19  C   UNL     1      -4.729   3.882 -26.259  0.00  0.00    +0.055 C 
ATOM     20  O   UNL     1      -3.911   3.456 -24.866  0.00  0.00    -0.485 OA
ENDROOT
TORSDOF 0
ENDMDL
MODEL 6
REMARK VINA RESULT:    -8.167      4.108      5.711
REMARK INTER + INTRA:          -8.167
REMARK INTER:                  -8.167
REMARK INTRA:                   0.000
REMARK UNBOUND:                 0.000
REMARK  Name = ZINC000071404307
REMARK  2 active torsions:
REMARK  status: ('A' for Active; 'I' for Inactive)
REMARK    1  A    between atoms: C_1  and  C_2
REMARK    2  A    between atoms: C_2  and  C_3
REMARK                            x       y       z     vdW  Elec       q    Type
REMARK                         _______ _______ _______ _____ _____    ______ ____
ROOT
ATOM      1  C   UNL     1       5.468   6.812 -22.098  0.00  0.00    +0.055 C 
ATOM      2  C   UNL     1       4.409   6.151 -22.461  0.00  0.00    +0.105 C 
ATOM      3  C   UNL     1       5.328   5.276 -22.743  0.00  0.00    +0.052 C 
ATOM      4  C   UNL     1       4.997   4.125 -23.246  0.00  0.00    +0.045 C 
ATOM      5  C   UNL     1       3.746   3.848 -23.468  0.00  0.00    +0.020 A 
ATOM      6  C   UNL     1       2.827   4.723 -23.186  0.00  0.00    +0.134 A 
ATOM      7  C   UNL     1       1.576   4.446 -23.408  0.00  0.00    +0.026 A 
ATOM      8  C   UNL     1       0.656   5.321 -23.127  0.00  0.00    +0.012 A 
ATOM      9  C   UNL     1      -0.594   5.044 -23.349  0.00  0.00    +0.001 A 
ATOM     10  C   UNL     1      -0.924   3.891 -23.852  0.00  0.00    +0.001 A 
ATOM     11  C   UNL     1      -0.005   3.017 -24.133  0.00  0.00    +0.011 A 
ATOM     12  C   UNL     1       1.245   3.294 -23.912  0.00  0.00    +0.013 A 
ATOM     13  C   UNL     1       2.164   2.419 -24.193  0.00  0.00    +0.097 A 
ATOM     14  N   UNL     1       2.101   1.220 -24.693  0.00  0.00    -0.235 NA
ATOM     15  C   UNL     1       3.313   0.756 -24.780  0.00  0.00    +0.197 A 
ATOM     16  N   UNL     1       4.125   1.668 -24.334  0.00  0.00    -0.344 N 
ATOM     17  H   UNL     1       5.105   1.594 -24.280  0.00  0.00    +0.167 HD
ATOM     18  C   UNL     1       3.415   2.695 -23.972  0.00  0.00    +0.073 A 
ATOM     19  C   UNL     1       3.857   7.256 -22.054  0.00  0.00    +0.055 C 
ATOM     20  O   UNL     1       3.158   5.875 -22.683  0.00  0.00    -0.485 OA
ENDROOT
TORSDOF 0
ENDMDL
MODEL 7
REMARK VINA RESULT:    -7.714      4.252      7.265
REMARK INTER + INTRA:          -7.714
REMARK INTER:                  -7.714
REMARK INTRA:                   0.000
REMARK UNBOUND:                 0.000
REMARK  Name = ZINC000071404307
REMARK  2 active torsions:
REMARK  status: ('A' for Active; 'I' for Inactive)
REMARK    1  A    between atoms: C_1  and  C_2
REMARK    2  A    between atoms: C_2  and  C_3
REMARK                            x       y       z     vdW  Elec       q    Type
REMARK                         _______ _______ _______ _____ _____    ______ ____
ROOT
ATOM      1  C   UNL     1      -0.226   4.818 -23.664  0.00  0.00    +0.055 C 
ATOM      2  C   UNL     1       0.780   4.133 -23.207  0.00  0.00    +0.105 C 
ATOM      3  C   UNL     1       1.408   5.163 -23.691  0.00  0.00    +0.052 C 
ATOM      4  C   UNL     1       2.703   5.233 -23.605  0.00  0.00    +0.045 C 
ATOM      5  C   UNL     1       3.369   4.274 -23.034  0.00  0.00    +0.020 A 
ATOM      6  C   UNL     1       2.741   3.245 -22.550  0.00  0.00    +0.134 A 
ATOM      7  C   UNL     1       3.408   2.285 -21.979  0.00  0.00    +0.026 A 
ATOM      8  C   UNL     1       2.779   1.255 -21.495  0.00  0.00    +0.012 A 
ATOM      9  C   UNL     1       3.445   0.296 -20.924  0.00  0.00    +0.001 A 
ATOM     10  C   UNL     1       4.741   0.367 -20.838  0.00  0.00    +0.001 A 
ATOM     11  C   UNL     1       5.369   1.397 -21.323  0.00  0.00    +0.011 A 
ATOM     12  C   UNL     1       4.703   2.355 -21.893  0.00  0.00    +0.013 A 
ATOM     13  C   UNL     1       5.331   3.385 -22.377  0.00  0.00    +0.097 A 
ATOM     14  N   UNL     1       6.594   3.693 -22.420  0.00  0.00    -0.235 NA
ATOM     15  C   UNL     1       6.708   4.842 -23.017  0.00  0.00    +0.197 A 
ATOM     16  N   UNL     1       5.516   5.245 -23.343  0.00  0.00    -0.344 N 
ATOM     17  H   UNL     1       5.296   6.084 -23.808  0.00  0.00    +0.167 HD
ATOM     18  C   UNL     1       4.666   4.345 -22.948  0.00  0.00    +0.073 A 
ATOM     19  C   UNL     1      -0.199   3.342 -22.882  0.00  0.00    +0.055 C 
ATOM     20  O   UNL     1       1.446   3.174 -22.636  0.00  0.00    -0.485 OA
ENDROOT
TORSDOF 0
ENDMDL
MODEL 8
REMARK VINA RESULT:    -7.683      2.083      5.115
REMARK INTER + INTRA:          -7.683
REMARK INTER:                  -7.683
REMARK INTRA:                   0.000
REMARK UNBOUND:                 0.000
REMARK  Name = ZINC000071404307
REMARK  2 active torsions:
REMARK  status: ('A' for Active; 'I' for Inactive)
REMARK    1  A    between atoms: C_1  and  C_2
REMARK    2  A    between atoms: C_2  and  C_3
REMARK                            x       y       z     vdW  Elec       q    Type
REMARK                         _______ _______ _______ _____ _____    ______ ____
ROOT
ATOM      1  C   UNL     1      -4.095   3.798 -27.137  0.00  0.00    +0.055 C 
ATOM      2  C   UNL     1      -3.285   3.540 -26.154  0.00  0.00    +0.105 C 
ATOM      3  C   UNL     1      -4.375   3.788 -25.490  0.00  0.00    +0.052 C 
ATOM      4  C   UNL     1      -4.374   3.723 -24.192  0.00  0.00    +0.045 C 
ATOM      5  C   UNL     1      -3.283   3.410 -23.558  0.00  0.00    +0.020 A 
ATOM      6  C   UNL     1      -2.194   3.162 -24.221  0.00  0.00    +0.134 A 
ATOM      7  C   UNL     1      -1.103   2.849 -23.586  0.00  0.00    +0.026 A 
ATOM      8  C   UNL     1      -0.013   2.601 -24.250  0.00  0.00    +0.012 A 
ATOM      9  C   UNL     1       1.078   2.288 -23.616  0.00  0.00    +0.001 A 
ATOM     10  C   UNL     1       1.078   2.223 -22.318  0.00  0.00    +0.001 A 
ATOM     11  C   UNL     1      -0.012   2.471 -21.654  0.00  0.00    +0.011 A 
ATOM     12  C   UNL     1      -1.102   2.784 -22.288  0.00  0.00    +0.013 A 
ATOM     13  C   UNL     1      -2.192   3.032 -21.625  0.00  0.00    +0.097 A 
ATOM     14  N   UNL     1      -2.453   3.036 -20.350  0.00  0.00    -0.235 NA
ATOM     15  C   UNL     1      -3.705   3.352 -20.198  0.00  0.00    +0.197 A 
ATOM     16  N   UNL     1      -4.218   3.543 -21.377  0.00  0.00    -0.344 N 
ATOM     17  H   UNL     1      -5.150   3.793 -21.569  0.00  0.00    +0.167 HD
ATOM     18  C   UNL     1      -3.283   3.346 -22.258  0.00  0.00    +0.073 A 
ATOM     19  C   UNL     1      -2.477   3.382 -27.159  0.00  0.00    +0.055 C 
ATOM     20  O   UNL     1      -2.194   3.227 -25.519  0.00  0.00    -0.485 OA
ENDROOT
TORSDOF 0
ENDMDL
MODEL 9
REMARK VINA RESULT:    -7.632      4.242      7.615
REMARK INTER + INTRA:          -7.632
REMARK INTER:                  -7.632
REMARK INTRA:                   0.000
REMARK UNBOUND:                 0.000
REMARK  Name = ZINC000071404307
REMARK  2 active torsions:
REMARK  status: ('A' for Active; 'I' for Inactive)
REMARK    1  A    between atoms: C_1  and  C_2
REMARK    2  A    between atoms: C_2  and  C_3
REMARK                            x       y       z     vdW  Elec       q    Type
REMARK                         _______ _______ _______ _____ _____    ______ ____
ROOT
ATOM      1  C   UNL     1      -0.524   3.787 -23.688  0.00  0.00    +0.055 C 
ATOM      2  C   UNL     1       0.741   3.753 -23.392  0.00  0.00    +0.105 C 
ATOM      3  C   UNL     1       0.354   2.634 -22.856  0.00  0.00    +0.052 C 
ATOM      4  C   UNL     1       1.214   1.874 -22.246  0.00  0.00    +0.045 C 
ATOM      5  C   UNL     1       2.461   2.233 -22.173  0.00  0.00    +0.020 A 
ATOM      6  C   UNL     1       2.848   3.352 -22.709  0.00  0.00    +0.134 A 
ATOM      7  C   UNL     1       4.096   3.710 -22.635  0.00  0.00    +0.026 A 
ATOM      8  C   UNL     1       4.483   4.829 -23.171  0.00  0.00    +0.012 A 
ATOM      9  C   UNL     1       5.730   5.188 -23.098  0.00  0.00    +0.001 A 
ATOM     10  C   UNL     1       6.590   4.427 -22.488  0.00  0.00    +0.001 A 
ATOM     11  C   UNL     1       6.203   3.308 -21.951  0.00  0.00    +0.011 A 
ATOM     12  C   UNL     1       4.956   2.950 -22.025  0.00  0.00    +0.013 A 
ATOM     13  C   UNL     1       4.569   1.831 -21.489  0.00  0.00    +0.097 A 
ATOM     14  N   UNL     1       5.214   0.909 -20.836  0.00  0.00    -0.235 NA
ATOM     15  C   UNL     1       4.365  -0.019 -20.507  0.00  0.00    +0.197 A 
ATOM     16  N   UNL     1       3.195   0.329 -20.955  0.00  0.00    -0.344 N 
ATOM     17  H   UNL     1       2.361  -0.183 -20.854  0.00  0.00    +0.167 HD
ATOM     18  C   UNL     1       3.321   1.471 -21.562  0.00  0.00    +0.073 A 
ATOM     19  C   UNL     1       0.689   4.884 -24.031  0.00  0.00    +0.055 C 
ATOM     20  O   UNL     1       1.988   4.112 -23.319  0.00  0.00    -0.485 OA
ENDROOT
TORSDOF 0
ENDMDL
