MODEL 1
REMARK VINA RESULT:    -9.995      0.000      0.000
REMARK INTER + INTRA:         -13.908
REMARK INTER:                 -13.271
REMARK INTRA:                  -0.637
REMARK UNBOUND:                -0.992
REMARK  Name = ZINC000005808603
REMARK  8 active torsions:
REMARK  status: ('A' for Active; 'I' for Inactive)
REMARK    1  A    between atoms: C_1  and  O_2
REMARK    2  A    between atoms: O_2  and  C_3
REMARK    3  A    between atoms: C_5  and  C_6
REMARK    4  A    between atoms: C_15  and  C_16
REMARK    5  A    between atoms: C_19  and  O_20
REMARK    6  A    between atoms: C_21  and  O_22
REMARK    7  A    between atoms: O_22  and  C_23
REMARK    8  A    between atoms: C_27  and  O_28
REMARK                            x       y       z     vdW  Elec       q    Type
REMARK                         _______ _______ _______ _____ _____    ______ ____
ROOT
ATOM      1  C   UNL     1      -1.235   2.447 -22.460  0.00  0.00    +0.221 C 
ATOM      2  O   UNL     1      -0.736   1.266 -22.251  0.00  0.00    -0.455 OA
ATOM      3  C   UNL     1       0.558   1.357 -22.323  0.00  0.00    +0.316 C 
ATOM      4  C   UNL     1       0.861   2.595 -22.578  0.00  0.00    +0.160 C 
ATOM      5  C   UNL     1       1.848   3.417 -22.781  0.00  0.00    +0.221 C 
ATOM      6  O   UNL     1       1.349   4.599 -22.990  0.00  0.00    -0.455 OA
ATOM      7  C   UNL     1       0.054   4.508 -22.917  0.00  0.00    +0.316 C 
ATOM      8  O   UNL     1      -0.790   5.484 -23.072  0.00  0.00    -0.250 OA
ATOM      9  O   UNL     1       1.403   0.381 -22.169  0.00  0.00    -0.250 OA
ATOM     10  C   UNL     1      -0.248   3.269 -22.663  0.00  0.00    +0.160 C 
ENDROOT
BRANCH   5  11
ATOM     11  C   UNL     1       3.110   3.110 -22.774  0.00  0.00    -0.003 A 
ATOM     12  C   UNL     1       3.880   3.507 -23.744  0.00  0.00    +0.011 A 
ATOM     13  C   UNL     1       5.144   3.200 -23.737  0.00  0.00    +0.049 A 
ATOM     14  C   UNL     1       5.637   2.496 -22.761  0.00  0.00    +0.158 A 
ATOM     15  C   UNL     1       4.867   2.099 -21.792  0.00  0.00    +0.162 A 
ATOM     16  C   UNL     1       3.604   2.407 -21.799  0.00  0.00    +0.056 A 
BRANCH  15  17
ATOM     17  O   UNL     1       5.359   1.395 -20.816  0.00  0.00    -0.491 OA
ATOM     18  C   UNL     1       4.926   0.188 -20.603  0.00  0.00    +0.277 C 
ENDBRANCH  15  17
BRANCH  14  19
ATOM     19  O   UNL     1       6.900   2.189 -22.755  0.00  0.00    -0.503 OA
ATOM     20  H   UNL     1       7.165   1.292 -22.816  0.00  0.00    +0.292 HD
ENDBRANCH  14  19
ENDBRANCH   5  11
BRANCH   1  23
ATOM     21  C   UNL     1      -4.338   3.417 -23.583  0.00  0.00    +0.162 A 
ATOM     22  C   UNL     1      -3.075   3.110 -23.576  0.00  0.00    +0.056 A 
ATOM     23  C   UNL     1      -2.497   2.754 -22.467  0.00  0.00    -0.003 A 
ATOM     24  C   UNL     1      -3.184   2.705 -21.363  0.00  0.00    +0.011 A 
ATOM     25  C   UNL     1      -4.447   3.012 -21.370  0.00  0.00    +0.049 A 
ATOM     26  C   UNL     1      -5.024   3.368 -22.480  0.00  0.00    +0.158 A 
BRANCH  21  28
ATOM     27  C   UNL     1      -4.416   3.396 -25.833  0.00  0.00    +0.277 C 
ATOM     28  O   UNL     1      -4.914   3.773 -24.692  0.00  0.00    -0.491 OA
ENDBRANCH  21  28
BRANCH  26  29
ATOM     29  O   UNL     1      -6.288   3.675 -22.486  0.00  0.00    -0.503 OA
ATOM     30  H   UNL     1      -6.899   3.134 -22.945  0.00  0.00    +0.292 HD
ENDBRANCH  26  29
ENDBRANCH   1  23
TORSDOF 6
ENDMDL
MODEL 2
REMARK VINA RESULT:    -9.994      0.039      8.176
REMARK INTER + INTRA:         -13.907
REMARK INTER:                 -13.216
REMARK INTRA:                  -0.692
REMARK UNBOUND:                -0.992
REMARK  Name = ZINC000005808603
REMARK  8 active torsions:
REMARK  status: ('A' for Active; 'I' for Inactive)
REMARK    1  A    between atoms: C_1  and  O_2
REMARK    2  A    between atoms: O_2  and  C_3
REMARK    3  A    between atoms: C_5  and  C_6
REMARK    4  A    between atoms: C_15  and  C_16
REMARK    5  A    between atoms: C_19  and  O_20
REMARK    6  A    between atoms: C_21  and  O_22
REMARK    7  A    between atoms: O_22  and  C_23
REMARK    8  A    between atoms: C_27  and  O_28
REMARK                            x       y       z     vdW  Elec       q    Type
REMARK                         _______ _______ _______ _____ _____    ______ ____
ROOT
ATOM      1  C   UNL     1       1.851   3.391 -22.757  0.00  0.00    +0.221 C 
ATOM      2  O   UNL     1       1.353   4.575 -22.958  0.00  0.00    -0.455 OA
ATOM      3  C   UNL     1       0.059   4.484 -22.892  0.00  0.00    +0.316 C 
ATOM      4  C   UNL     1      -0.246   3.244 -22.649  0.00  0.00    +0.160 C 
ATOM      5  C   UNL     1      -1.234   2.420 -22.458  0.00  0.00    +0.221 C 
ATOM      6  O   UNL     1      -0.736   1.237 -22.257  0.00  0.00    -0.455 OA
ATOM      7  C   UNL     1       0.558   1.328 -22.323  0.00  0.00    +0.316 C 
ATOM      8  O   UNL     1       1.401   0.350 -22.174  0.00  0.00    -0.250 OA
ATOM      9  O   UNL     1      -0.785   5.462 -23.042  0.00  0.00    -0.250 OA
ATOM     10  C   UNL     1       0.863   2.568 -22.566  0.00  0.00    +0.160 C 
ENDROOT
BRANCH   5  11
ATOM     11  C   UNL     1      -2.496   2.728 -22.467  0.00  0.00    -0.003 A 
ATOM     12  C   UNL     1      -3.180   2.699 -21.362  0.00  0.00    +0.011 A 
ATOM     13  C   UNL     1      -4.444   3.007 -21.371  0.00  0.00    +0.049 A 
ATOM     14  C   UNL     1      -5.022   3.344 -22.486  0.00  0.00    +0.158 A 
ATOM     15  C   UNL     1      -4.339   3.373 -23.591  0.00  0.00    +0.162 A 
ATOM     16  C   UNL     1      -3.076   3.065 -23.581  0.00  0.00    +0.056 A 
BRANCH  15  17
ATOM     17  O   UNL     1      -4.917   3.709 -24.706  0.00  0.00    -0.491 OA
ATOM     18  C   UNL     1      -4.413   3.324 -25.841  0.00  0.00    +0.277 C 
ENDBRANCH  15  17
BRANCH  14  19
ATOM     19  O   UNL     1      -6.286   3.652 -22.495  0.00  0.00    -0.503 OA
ATOM     20  H   UNL     1      -6.751   3.749 -21.687  0.00  0.00    +0.292 HD
ENDBRANCH  14  19
ENDBRANCH   5  11
BRANCH   1  23
ATOM     21  C   UNL     1       4.868   2.079 -21.757  0.00  0.00    +0.162 A 
ATOM     22  C   UNL     1       3.606   2.388 -21.767  0.00  0.00    +0.056 A 
ATOM     23  C   UNL     1       3.113   3.083 -22.748  0.00  0.00    -0.003 A 
ATOM     24  C   UNL     1       3.883   3.472 -23.721  0.00  0.00    +0.011 A 
ATOM     25  C   UNL     1       5.147   3.164 -23.711  0.00  0.00    +0.049 A 
ATOM     26  C   UNL     1       5.639   2.468 -22.730  0.00  0.00    +0.158 A 
BRANCH  21  28
ATOM     27  C   UNL     1       4.927   0.178 -20.553  0.00  0.00    +0.277 C 
ATOM     28  O   UNL     1       5.360   1.383 -20.775  0.00  0.00    -0.491 OA
ENDBRANCH  21  28
BRANCH  26  29
ATOM     29  O   UNL     1       6.902   2.160 -22.720  0.00  0.00    -0.503 OA
ATOM     30  H   UNL     1       7.169   1.271 -22.852  0.00  0.00    +0.292 HD
ENDBRANCH  26  29
ENDBRANCH   1  23
TORSDOF 6
ENDMDL
MODEL 3
REMARK VINA RESULT:    -9.453      0.981      8.039
REMARK INTER + INTRA:         -13.208
REMARK INTER:                 -12.432
REMARK INTRA:                  -0.776
REMARK UNBOUND:                -0.992
REMARK  Name = ZINC000005808603
REMARK  8 active torsions:
REMARK  status: ('A' for Active; 'I' for Inactive)
REMARK    1  A    between atoms: C_1  and  O_2
REMARK    2  A    between atoms: O_2  and  C_3
REMARK    3  A    between atoms: C_5  and  C_6
REMARK    4  A    between atoms: C_15  and  C_16
REMARK    5  A    between atoms: C_19  and  O_20
REMARK    6  A    between atoms: C_21  and  O_22
REMARK    7  A    between atoms: O_22  and  C_23
REMARK    8  A    between atoms: C_27  and  O_28
REMARK                            x       y       z     vdW  Elec       q    Type
REMARK                         _______ _______ _______ _____ _____    ______ ____
ROOT
ATOM      1  C   UNL     1       1.989   2.422 -22.558  0.00  0.00    +0.221 C 
ATOM      2  O   UNL     1       1.337   1.382 -22.132  0.00  0.00    -0.455 OA
ATOM      3  C   UNL     1       0.072   1.675 -22.125  0.00  0.00    +0.316 C 
ATOM      4  C   UNL     1      -0.061   2.897 -22.547  0.00  0.00    +0.160 C 
ATOM      5  C   UNL     1      -0.924   3.835 -22.803  0.00  0.00    +0.221 C 
ATOM      6  O   UNL     1      -0.273   4.875 -23.229  0.00  0.00    -0.455 OA
ATOM      7  C   UNL     1       0.993   4.582 -23.236  0.00  0.00    +0.316 C 
ATOM      8  O   UNL     1       1.959   5.372 -23.601  0.00  0.00    -0.250 OA
ATOM      9  O   UNL     1      -0.894   0.884 -21.761  0.00  0.00    -0.250 OA
ATOM     10  C   UNL     1       1.126   3.359 -22.814  0.00  0.00    +0.160 C 
ENDROOT
BRANCH   5  11
ATOM     11  C   UNL     1      -2.213   3.746 -22.659  0.00  0.00    -0.003 A 
ATOM     12  C   UNL     1      -2.730   3.678 -21.468  0.00  0.00    +0.011 A 
ATOM     13  C   UNL     1      -4.020   3.588 -21.324  0.00  0.00    +0.049 A 
ATOM     14  C   UNL     1      -4.790   3.567 -22.371  0.00  0.00    +0.158 A 
ATOM     15  C   UNL     1      -4.273   3.635 -23.561  0.00  0.00    +0.162 A 
ATOM     16  C   UNL     1      -2.984   3.724 -23.705  0.00  0.00    +0.056 A 
BRANCH  15  17
ATOM     17  O   UNL     1      -5.044   3.614 -24.608  0.00  0.00    -0.491 OA
ATOM     18  C   UNL     1      -4.545   3.339 -25.776  0.00  0.00    +0.277 C 
ENDBRANCH  15  17
BRANCH  14  19
ATOM     19  O   UNL     1      -6.080   3.478 -22.227  0.00  0.00    -0.503 OA
ATOM     20  H   UNL     1      -6.546   2.762 -22.611  0.00  0.00    +0.292 HD
ENDBRANCH  14  19
ENDBRANCH   5  11
BRANCH   1  23
ATOM     21  C   UNL     1       5.323   2.816 -21.811  0.00  0.00    +0.162 A 
ATOM     22  C   UNL     1       4.035   2.727 -21.668  0.00  0.00    +0.056 A 
ATOM     23  C   UNL     1       3.278   2.511 -22.702  0.00  0.00    -0.003 A 
ATOM     24  C   UNL     1       3.810   2.385 -23.882  0.00  0.00    +0.011 A 
ATOM     25  C   UNL     1       5.099   2.474 -24.026  0.00  0.00    +0.049 A 
ATOM     26  C   UNL     1       5.855   2.689 -22.991  0.00  0.00    +0.158 A 
BRANCH  21  28
ATOM     27  C   UNL     1       6.674   4.180 -20.634  0.00  0.00    +0.277 C 
ATOM     28  O   UNL     1       6.079   3.032 -20.776  0.00  0.00    -0.491 OA
ENDBRANCH  21  28
BRANCH  26  29
ATOM     29  O   UNL     1       7.145   2.779 -23.135  0.00  0.00    -0.503 OA
ATOM     30  H   UNL     1       7.641   2.027 -23.393  0.00  0.00    +0.292 HD
ENDBRANCH  26  29
ENDBRANCH   1  23
TORSDOF 6
ENDMDL
MODEL 4
REMARK VINA RESULT:    -9.446      0.997      2.158
REMARK INTER + INTRA:         -13.198
REMARK INTER:                 -12.446
REMARK INTRA:                  -0.753
REMARK UNBOUND:                -0.992
REMARK  Name = ZINC000005808603
REMARK  8 active torsions:
REMARK  status: ('A' for Active; 'I' for Inactive)
REMARK    1  A    between atoms: C_1  and  O_2
REMARK    2  A    between atoms: O_2  and  C_3
REMARK    3  A    between atoms: C_5  and  C_6
REMARK    4  A    between atoms: C_15  and  C_16
REMARK    5  A    between atoms: C_19  and  O_20
REMARK    6  A    between atoms: C_21  and  O_22
REMARK    7  A    between atoms: O_22  and  C_23
REMARK    8  A    between atoms: C_27  and  O_28
REMARK                            x       y       z     vdW  Elec       q    Type
REMARK                         _______ _______ _______ _____ _____    ______ ____
ROOT
ATOM      1  C   UNL     1      -0.897   3.875 -22.821  0.00  0.00    +0.221 C 
ATOM      2  O   UNL     1      -0.244   4.917 -23.241  0.00  0.00    -0.455 OA
ATOM      3  C   UNL     1       1.022   4.624 -23.247  0.00  0.00    +0.316 C 
ATOM      4  C   UNL     1       1.153   3.399 -22.830  0.00  0.00    +0.160 C 
ATOM      5  C   UNL     1       2.016   2.461 -22.575  0.00  0.00    +0.221 C 
ATOM      6  O   UNL     1       1.364   1.419 -22.155  0.00  0.00    -0.455 OA
ATOM      7  C   UNL     1       0.098   1.712 -22.149  0.00  0.00    +0.316 C 
ATOM      8  O   UNL     1      -0.869   0.921 -21.790  0.00  0.00    -0.250 OA
ATOM      9  O   UNL     1       1.988   5.415 -23.607  0.00  0.00    -0.250 OA
ATOM     10  C   UNL     1      -0.034   2.937 -22.566  0.00  0.00    +0.160 C 
ENDROOT
BRANCH   5  11
ATOM     11  C   UNL     1       3.305   2.551 -22.717  0.00  0.00    -0.003 A 
ATOM     12  C   UNL     1       3.839   2.437 -23.897  0.00  0.00    +0.011 A 
ATOM     13  C   UNL     1       5.128   2.527 -24.038  0.00  0.00    +0.049 A 
ATOM     14  C   UNL     1       5.883   2.730 -23.000  0.00  0.00    +0.158 A 
ATOM     15  C   UNL     1       5.350   2.843 -21.819  0.00  0.00    +0.162 A 
ATOM     16  C   UNL     1       4.061   2.754 -21.679  0.00  0.00    +0.056 A 
BRANCH  15  17
ATOM     17  O   UNL     1       6.105   3.046 -20.781  0.00  0.00    -0.491 OA
ATOM     18  C   UNL     1       6.726   4.180 -20.641  0.00  0.00    +0.277 C 
ENDBRANCH  15  17
BRANCH  14  19
ATOM     19  O   UNL     1       7.173   2.819 -23.141  0.00  0.00    -0.503 OA
ATOM     20  H   UNL     1       7.720   2.935 -22.389  0.00  0.00    +0.292 HD
ENDBRANCH  14  19
ENDBRANCH   5  11
BRANCH   1  23
ATOM     21  C   UNL     1      -4.243   3.662 -23.587  0.00  0.00    +0.162 A 
ATOM     22  C   UNL     1      -2.954   3.752 -23.727  0.00  0.00    +0.056 A 
ATOM     23  C   UNL     1      -2.185   3.785 -22.679  0.00  0.00    -0.003 A 
ATOM     24  C   UNL     1      -2.706   3.729 -21.489  0.00  0.00    +0.011 A 
ATOM     25  C   UNL     1      -3.996   3.640 -21.348  0.00  0.00    +0.049 A 
ATOM     26  C   UNL     1      -4.764   3.606 -22.397  0.00  0.00    +0.158 A 
BRANCH  21  28
ATOM     27  C   UNL     1      -4.519   3.286 -25.789  0.00  0.00    +0.277 C 
ATOM     28  O   UNL     1      -5.011   3.629 -24.635  0.00  0.00    -0.491 OA
ENDBRANCH  21  28
BRANCH  26  29
ATOM     29  O   UNL     1      -6.053   3.517 -22.256  0.00  0.00    -0.503 OA
ATOM     30  H   UNL     1      -6.591   4.277 -22.363  0.00  0.00    +0.292 HD
ENDBRANCH  26  29
ENDBRANCH   1  23
TORSDOF 6
ENDMDL
MODEL 5
REMARK VINA RESULT:    -9.192      1.587      7.967
REMARK INTER + INTRA:         -12.871
REMARK INTER:                 -11.720
REMARK INTRA:                  -1.151
REMARK UNBOUND:                -0.992
REMARK  Name = ZINC000005808603
REMARK  8 active torsions:
REMARK  status: ('A' for Active; 'I' for Inactive)
REMARK    1  A    between atoms: C_1  and  O_2
REMARK    2  A    between atoms: O_2  and  C_3
REMARK    3  A    between atoms: C_5  and  C_6
REMARK    4  A    between atoms: C_15  and  C_16
REMARK    5  A    between atoms: C_19  and  O_20
REMARK    6  A    between atoms: C_21  and  O_22
REMARK    7  A    between atoms: O_22  and  C_23
REMARK    8  A    between atoms: C_27  and  O_28
REMARK                            x       y       z     vdW  Elec       q    Type
REMARK                         _______ _______ _______ _____ _____    ______ ____
ROOT
ATOM      1  C   UNL     1       2.929   2.893 -22.765  0.00  0.00    +0.221 C 
ATOM      2  O   UNL     1       2.307   1.772 -22.556  0.00  0.00    -0.455 OA
ATOM      3  C   UNL     1       1.031   1.994 -22.656  0.00  0.00    +0.316 C 
ATOM      4  C   UNL     1       0.862   3.254 -22.928  0.00  0.00    +0.160 C 
ATOM      5  C   UNL     1      -0.031   4.171 -23.158  0.00  0.00    +0.221 C 
ATOM      6  O   UNL     1       0.591   5.292 -23.368  0.00  0.00    -0.455 OA
ATOM      7  C   UNL     1       1.867   5.070 -23.267  0.00  0.00    +0.316 C 
ATOM      8  O   UNL     1       2.811   5.953 -23.413  0.00  0.00    -0.250 OA
ATOM      9  O   UNL     1       0.087   1.112 -22.510  0.00  0.00    -0.250 OA
ATOM     10  C   UNL     1       2.036   3.810 -22.995  0.00  0.00    +0.160 C 
ENDROOT
BRANCH   5  11
ATOM     11  C   UNL     1      -1.318   3.995 -23.175  0.00  0.00    -0.003 A 
ATOM     12  C   UNL     1      -1.936   3.831 -24.307  0.00  0.00    +0.011 A 
ATOM     13  C   UNL     1      -3.225   3.655 -24.324  0.00  0.00    +0.049 A 
ATOM     14  C   UNL     1      -3.894   3.644 -23.210  0.00  0.00    +0.158 A 
ATOM     15  C   UNL     1      -3.276   3.808 -22.078  0.00  0.00    +0.162 A 
ATOM     16  C   UNL     1      -1.988   3.983 -22.061  0.00  0.00    +0.056 A 
BRANCH  15  17
ATOM     17  O   UNL     1      -3.945   3.796 -20.963  0.00  0.00    -0.491 OA
ATOM     18  C   UNL     1      -3.336   3.538 -19.844  0.00  0.00    +0.277 C 
ENDBRANCH  15  17
BRANCH  14  19
ATOM     19  O   UNL     1      -5.183   3.468 -23.227  0.00  0.00    -0.503 OA
ATOM     20  H   UNL     1      -5.538   2.629 -23.447  0.00  0.00    +0.292 HD
ENDBRANCH  14  19
ENDBRANCH   5  11
BRANCH   1  23
ATOM     21  C   UNL     1       6.103   3.551 -21.618  0.00  0.00    +0.162 A 
ATOM     22  C   UNL     1       4.816   3.375 -21.636  0.00  0.00    +0.056 A 
ATOM     23  C   UNL     1       4.216   3.069 -22.748  0.00  0.00    -0.003 A 
ATOM     24  C   UNL     1       4.905   2.938 -23.843  0.00  0.00    +0.011 A 
ATOM     25  C   UNL     1       6.193   3.114 -23.825  0.00  0.00    +0.049 A 
ATOM     26  C   UNL     1       6.792   3.420 -22.713  0.00  0.00    +0.158 A 
BRANCH  21  28
ATOM     27  C   UNL     1       6.936   5.103 -20.216  0.00  0.00    +0.277 C 
ATOM     28  O   UNL     1       6.702   3.858 -20.505  0.00  0.00    -0.491 OA
ENDBRANCH  21  28
BRANCH  26  29
ATOM     29  O   UNL     1       8.081   3.596 -22.695  0.00  0.00    -0.503 OA
ATOM     30  H   UNL     1       8.600   3.334 -23.430  0.00  0.00    +0.292 HD
ENDBRANCH  26  29
ENDBRANCH   1  23
TORSDOF 6
ENDMDL
MODEL 6
REMARK VINA RESULT:    -8.917      1.273      2.431
REMARK INTER + INTRA:         -12.515
REMARK INTER:                 -12.495
REMARK INTRA:                  -0.020
REMARK UNBOUND:                -0.992
REMARK  Name = ZINC000005808603
REMARK  8 active torsions:
REMARK  status: ('A' for Active; 'I' for Inactive)
REMARK    1  A    between atoms: C_1  and  O_2
REMARK    2  A    between atoms: O_2  and  C_3
REMARK    3  A    between atoms: C_5  and  C_6
REMARK    4  A    between atoms: C_15  and  C_16
REMARK    5  A    between atoms: C_19  and  O_20
REMARK    6  A    between atoms: C_21  and  O_22
REMARK    7  A    between atoms: O_22  and  C_23
REMARK    8  A    between atoms: C_27  and  O_28
REMARK                            x       y       z     vdW  Elec       q    Type
REMARK                         _______ _______ _______ _____ _____    ______ ____
ROOT
ATOM      1  C   UNL     1      -0.671   2.828 -23.373  0.00  0.00    +0.221 C 
ATOM      2  O   UNL     1      -0.179   1.627 -23.305  0.00  0.00    -0.455 OA
ATOM      3  C   UNL     1       1.109   1.727 -23.164  0.00  0.00    +0.316 C 
ATOM      4  C   UNL     1       1.414   2.990 -23.145  0.00  0.00    +0.160 C 
ATOM      5  C   UNL     1       2.399   3.833 -23.045  0.00  0.00    +0.221 C 
ATOM      6  O   UNL     1       1.907   5.034 -23.113  0.00  0.00    -0.455 OA
ATOM      7  C   UNL     1       0.619   4.934 -23.254  0.00  0.00    +0.316 C 
ATOM      8  O   UNL     1      -0.218   5.924 -23.358  0.00  0.00    -0.250 OA
ATOM      9  O   UNL     1       1.946   0.737 -23.061  0.00  0.00    -0.250 OA
ATOM     10  C   UNL     1       0.313   3.671 -23.274  0.00  0.00    +0.160 C 
ENDROOT
BRANCH   5  11
ATOM     11  C   UNL     1       3.654   3.528 -22.904  0.00  0.00    -0.003 A 
ATOM     12  C   UNL     1       3.990   2.388 -22.376  0.00  0.00    +0.011 A 
ATOM     13  C   UNL     1       5.246   2.083 -22.234  0.00  0.00    +0.049 A 
ATOM     14  C   UNL     1       6.165   2.917 -22.620  0.00  0.00    +0.158 A 
ATOM     15  C   UNL     1       5.829   4.057 -23.147  0.00  0.00    +0.162 A 
ATOM     16  C   UNL     1       4.574   4.362 -23.289  0.00  0.00    +0.056 A 
BRANCH  15  17
ATOM     17  O   UNL     1       6.749   4.892 -23.533  0.00  0.00    -0.491 OA
ATOM     18  C   UNL     1       7.067   5.901 -22.778  0.00  0.00    +0.277 C 
ENDBRANCH  15  17
BRANCH  14  19
ATOM     19  O   UNL     1       7.422   2.612 -22.478  0.00  0.00    -0.503 OA
ATOM     20  H   UNL     1       7.820   1.988 -23.052  0.00  0.00    +0.292 HD
ENDBRANCH  14  19
ENDBRANCH   5  11
BRANCH   1  23
ATOM     21  C   UNL     1      -4.011   3.255 -22.672  0.00  0.00    +0.162 A 
ATOM     22  C   UNL     1      -2.755   2.949 -22.531  0.00  0.00    +0.056 A 
ATOM     23  C   UNL     1      -1.926   3.133 -23.515  0.00  0.00    -0.003 A 
ATOM     24  C   UNL     1      -2.353   3.622 -24.642  0.00  0.00    +0.011 A 
ATOM     25  C   UNL     1      -3.609   3.927 -24.783  0.00  0.00    +0.049 A 
ATOM     26  C   UNL     1      -4.437   3.744 -23.798  0.00  0.00    +0.158 A 
BRANCH  21  28
ATOM     27  C   UNL     1      -4.519   2.277 -20.708  0.00  0.00    +0.277 C 
ATOM     28  O   UNL     1      -4.839   3.071 -21.687  0.00  0.00    -0.491 OA
ENDBRANCH  21  28
BRANCH  26  29
ATOM     29  O   UNL     1      -5.694   4.049 -23.940  0.00  0.00    -0.503 OA
ATOM     30  H   UNL     1      -6.308   3.829 -23.268  0.00  0.00    +0.292 HD
ENDBRANCH  26  29
ENDBRANCH   1  23
TORSDOF 6
ENDMDL
MODEL 7
REMARK VINA RESULT:    -8.833      1.248      8.115
REMARK INTER + INTRA:         -12.407
REMARK INTER:                 -12.285
REMARK INTRA:                  -0.122
REMARK UNBOUND:                -0.992
REMARK  Name = ZINC000005808603
REMARK  8 active torsions:
REMARK  status: ('A' for Active; 'I' for Inactive)
REMARK    1  A    between atoms: C_1  and  O_2
REMARK    2  A    between atoms: O_2  and  C_3
REMARK    3  A    between atoms: C_5  and  C_6
REMARK    4  A    between atoms: C_15  and  C_16
REMARK    5  A    between atoms: C_19  and  O_20
REMARK    6  A    between atoms: C_21  and  O_22
REMARK    7  A    between atoms: O_22  and  C_23
REMARK    8  A    between atoms: C_27  and  O_28
REMARK                            x       y       z     vdW  Elec       q    Type
REMARK                         _______ _______ _______ _____ _____    ______ ____
ROOT
ATOM      1  C   UNL     1       2.362   3.858 -23.074  0.00  0.00    +0.221 C 
ATOM      2  O   UNL     1       1.866   5.057 -23.138  0.00  0.00    -0.455 OA
ATOM      3  C   UNL     1       0.580   4.953 -23.296  0.00  0.00    +0.316 C 
ATOM      4  C   UNL     1       0.280   3.689 -23.328  0.00  0.00    +0.160 C 
ATOM      5  C   UNL     1      -0.700   2.843 -23.445  0.00  0.00    +0.221 C 
ATOM      6  O   UNL     1      -0.204   1.643 -23.380  0.00  0.00    -0.455 OA
ATOM      7  C   UNL     1       1.081   1.747 -23.223  0.00  0.00    +0.316 C 
ATOM      8  O   UNL     1       1.921   0.760 -23.117  0.00  0.00    -0.250 OA
ATOM      9  O   UNL     1      -0.259   5.940 -23.402  0.00  0.00    -0.250 OA
ATOM     10  C   UNL     1       1.382   3.012 -23.191  0.00  0.00    +0.160 C 
ENDROOT
BRANCH   5  11
ATOM     11  C   UNL     1      -1.955   3.144 -23.600  0.00  0.00    -0.003 A 
ATOM     12  C   UNL     1      -2.410   3.444 -24.780  0.00  0.00    +0.011 A 
ATOM     13  C   UNL     1      -3.666   3.746 -24.934  0.00  0.00    +0.049 A 
ATOM     14  C   UNL     1      -4.465   3.748 -23.909  0.00  0.00    +0.158 A 
ATOM     15  C   UNL     1      -4.009   3.448 -22.728  0.00  0.00    +0.162 A 
ATOM     16  C   UNL     1      -2.754   3.146 -22.575  0.00  0.00    +0.056 A 
BRANCH  15  17
ATOM     17  O   UNL     1      -4.808   3.450 -21.703  0.00  0.00    -0.491 OA
ATOM     18  C   UNL     1      -4.899   2.394 -20.949  0.00  0.00    +0.277 C 
ENDBRANCH  15  17
BRANCH  14  19
ATOM     19  O   UNL     1      -5.720   4.050 -24.063  0.00  0.00    -0.503 OA
ATOM     20  H   UNL     1      -6.087   4.103 -24.924  0.00  0.00    +0.292 HD
ENDBRANCH  14  19
ENDBRANCH   5  11
BRANCH   1  23
ATOM     21  C   UNL     1       5.792   4.033 -23.252  0.00  0.00    +0.162 A 
ATOM     22  C   UNL     1       4.537   4.334 -23.406  0.00  0.00    +0.056 A 
ATOM     23  C   UNL     1       3.616   3.556 -22.919  0.00  0.00    -0.003 A 
ATOM     24  C   UNL     1       3.951   2.476 -22.277  0.00  0.00    +0.011 A 
ATOM     25  C   UNL     1       5.206   2.174 -22.123  0.00  0.00    +0.049 A 
ATOM     26  C   UNL     1       6.126   2.953 -22.610  0.00  0.00    +0.158 A 
BRANCH  21  28
ATOM     27  C   UNL     1       7.287   5.693 -22.976  0.00  0.00    +0.277 C 
ATOM     28  O   UNL     1       6.712   4.811 -23.739  0.00  0.00    -0.491 OA
ENDBRANCH  21  28
BRANCH  26  29
ATOM     29  O   UNL     1       7.382   2.651 -22.455  0.00  0.00    -0.503 OA
ATOM     30  H   UNL     1       8.027   3.330 -22.419  0.00  0.00    +0.292 HD
ENDBRANCH  26  29
ENDBRANCH   1  23
TORSDOF 6
ENDMDL
