MODEL 1
REMARK VINA RESULT:    -9.318      0.000      0.000
REMARK INTER + INTRA:          -9.863
REMARK INTER:                  -9.863
REMARK INTRA:                   0.000
REMARK UNBOUND:                 0.000
REMARK  Name = ZINC000004104701
REMARK  4 active torsions:
REMARK  status: ('A' for Active; 'I' for Inactive)
REMARK    1  A    between atoms: C_1  and  C_2
REMARK    2  A    between atoms: C_5  and  O_6
REMARK    3  A    between atoms: C_14  and  C_15
REMARK    4  A    between atoms: C_14  and  C_16
REMARK                            x       y       z     vdW  Elec       q    Type
REMARK                         _______ _______ _______ _____ _____    ______ ____
ROOT
ATOM      1  C   UNL     1      -1.799   3.753 -25.441  0.00  0.00    +0.008 C 
ATOM      2  C   UNL     1      -2.927   3.767 -24.797  0.00  0.00    -0.007 C 
ATOM      3  C   UNL     1      -4.056   4.231 -25.243  0.00  0.00    +0.007 C 
ATOM      4  C   UNL     1      -4.953   4.071 -24.315  0.00  0.00    +0.043 C 
ATOM      5  C   UNL     1      -4.377   3.507 -23.296  0.00  0.00    +0.127 C 
ATOM      6  C   UNL     1      -5.003   3.208 -22.196  0.00  0.00    +0.165 C 
ATOM      7  C   UNL     1      -4.531   2.647 -21.122  0.00  0.00    +0.078 C 
ATOM      8  C   UNL     1      -3.318   2.247 -20.882  0.00  0.00    +0.012 C 
ATOM      9  C   UNL     1      -2.276   2.309 -21.658  0.00  0.00    -0.001 C 
ATOM     10  C   UNL     1      -2.190   2.785 -22.864  0.00  0.00    +0.005 C 
ATOM     11  C   UNL     1      -1.139   2.286 -22.287  0.00  0.00    -0.028 C 
ATOM     12  C   UNL     1      -0.391   1.726 -21.381  0.00  0.00    +0.011 C 
ATOM     13  C   UNL     1      -0.260   2.457 -23.229  0.00  0.00    +0.011 C 
ATOM     14  O   UNL     1      -6.267   3.509 -22.166  0.00  0.00    -0.294 OA
ATOM     15  C   UNL     1      -3.126   3.319 -23.593  0.00  0.00    +0.035 C 
ENDROOT
BRANCH   5  16
ATOM     16  O   UNL     1      -5.644   3.786 -23.211  0.00  0.00    -0.381 OA
ATOM     17  H   UNL     1      -5.772   4.742 -23.316  0.00  0.00    +0.211 HD
ENDBRANCH   5  16
TORSDOF 1
ENDMDL
MODEL 2
REMARK VINA RESULT:    -9.101      1.074      2.984
REMARK INTER + INTRA:          -9.633
REMARK INTER:                  -9.633
REMARK INTRA:                   0.000
REMARK UNBOUND:                 0.000
REMARK  Name = ZINC000004104701
REMARK  4 active torsions:
REMARK  status: ('A' for Active; 'I' for Inactive)
REMARK    1  A    between atoms: C_1  and  C_2
REMARK    2  A    between atoms: C_5  and  O_6
REMARK    3  A    between atoms: C_14  and  C_15
REMARK    4  A    between atoms: C_14  and  C_16
REMARK                            x       y       z     vdW  Elec       q    Type
REMARK                         _______ _______ _______ _____ _____    ______ ____
ROOT
ATOM      1  C   UNL     1      -3.930   2.537 -20.624  0.00  0.00    +0.008 C 
ATOM      2  C   UNL     1      -4.254   2.993 -21.797  0.00  0.00    -0.007 C 
ATOM      3  C   UNL     1      -5.437   3.388 -22.163  0.00  0.00    +0.007 C 
ATOM      4  C   UNL     1      -5.367   3.773 -23.403  0.00  0.00    +0.043 C 
ATOM      5  C   UNL     1      -4.140   3.617 -23.802  0.00  0.00    +0.127 C 
ATOM      6  C   UNL     1      -3.735   3.912 -25.002  0.00  0.00    +0.165 C 
ATOM      7  C   UNL     1      -2.541   3.797 -25.506  0.00  0.00    +0.078 C 
ATOM      8  C   UNL     1      -1.459   3.359 -24.934  0.00  0.00    +0.012 C 
ATOM      9  C   UNL     1      -1.303   2.928 -23.717  0.00  0.00    -0.001 C 
ATOM     10  C   UNL     1      -2.189   2.828 -22.773  0.00  0.00    +0.005 C 
ATOM     11  C   UNL     1      -0.960   2.470 -22.550  0.00  0.00    -0.028 C 
ATOM     12  C   UNL     1       0.304   2.243 -22.759  0.00  0.00    +0.011 C 
ATOM     13  C   UNL     1      -1.055   2.090 -21.311  0.00  0.00    +0.011 C 
ATOM     14  O   UNL     1      -4.642   4.384 -25.804  0.00  0.00    -0.294 OA
ATOM     15  C   UNL     1      -3.452   3.135 -22.810  0.00  0.00    +0.035 C 
ENDROOT
BRANCH   5  16
ATOM     16  O   UNL     1      -5.007   4.093 -24.647  0.00  0.00    -0.381 OA
ATOM     17  H   UNL     1      -4.628   4.081 -25.540  0.00  0.00    +0.211 HD
ENDBRANCH   5  16
TORSDOF 1
ENDMDL
MODEL 3
REMARK VINA RESULT:    -9.097      2.227      3.651
REMARK INTER + INTRA:          -9.629
REMARK INTER:                  -9.629
REMARK INTRA:                   0.000
REMARK UNBOUND:                 0.000
REMARK  Name = ZINC000004104701
REMARK  4 active torsions:
REMARK  status: ('A' for Active; 'I' for Inactive)
REMARK    1  A    between atoms: C_1  and  C_2
REMARK    2  A    between atoms: C_5  and  O_6
REMARK    3  A    between atoms: C_14  and  C_15
REMARK    4  A    between atoms: C_14  and  C_16
REMARK                            x       y       z     vdW  Elec       q    Type
REMARK                         _______ _______ _______ _____ _____    ______ ____
ROOT
ATOM      1  C   UNL     1      -4.821   3.969 -24.995  0.00  0.00    +0.008 C 
ATOM      2  C   UNL     1      -3.567   3.630 -24.970  0.00  0.00    -0.007 C 
ATOM      3  C   UNL     1      -2.734   3.708 -25.966  0.00  0.00    +0.007 C 
ATOM      4  C   UNL     1      -1.577   3.280 -25.557  0.00  0.00    +0.043 C 
ATOM      5  C   UNL     1      -1.694   2.936 -24.309  0.00  0.00    +0.127 C 
ATOM      6  C   UNL     1      -0.711   2.464 -23.601  0.00  0.00    +0.165 C 
ATOM      7  C   UNL     1      -0.716   2.092 -22.355  0.00  0.00    +0.078 C 
ATOM      8  C   UNL     1      -1.704   2.099 -21.510  0.00  0.00    +0.012 C 
ATOM      9  C   UNL     1      -2.932   2.482 -21.702  0.00  0.00    -0.001 C 
ATOM     10  C   UNL     1      -3.474   2.951 -22.786  0.00  0.00    +0.005 C 
ATOM     11  C   UNL     1      -4.188   2.816 -21.708  0.00  0.00    -0.028 C 
ATOM     12  C   UNL     1      -4.503   2.531 -20.479  0.00  0.00    +0.011 C 
ATOM     13  C   UNL     1      -5.334   3.249 -22.140  0.00  0.00    +0.011 C 
ATOM     14  O   UNL     1       0.425   2.349 -24.220  0.00  0.00    -0.294 OA
ATOM     15  C   UNL     1      -2.924   3.153 -23.946  0.00  0.00    +0.035 C 
ENDROOT
BRANCH   5  16
ATOM     16  O   UNL     1      -0.533   2.800 -24.879  0.00  0.00    -0.381 OA
ATOM     17  H   UNL     1      -0.556   2.040 -25.481  0.00  0.00    +0.211 HD
ENDBRANCH   5  16
TORSDOF 1
ENDMDL
MODEL 4
REMARK VINA RESULT:    -8.722      2.069      4.333
REMARK INTER + INTRA:          -9.232
REMARK INTER:                  -9.232
REMARK INTRA:                   0.000
REMARK UNBOUND:                 0.000
REMARK  Name = ZINC000004104701
REMARK  4 active torsions:
REMARK  status: ('A' for Active; 'I' for Inactive)
REMARK    1  A    between atoms: C_1  and  C_2
REMARK    2  A    between atoms: C_5  and  O_6
REMARK    3  A    between atoms: C_14  and  C_15
REMARK    4  A    between atoms: C_14  and  C_16
REMARK                            x       y       z     vdW  Elec       q    Type
REMARK                         _______ _______ _______ _____ _____    ______ ____
ROOT
ATOM      1  C   UNL     1      -5.570   3.448 -22.482  0.00  0.00    +0.008 C 
ATOM      2  C   UNL     1      -4.361   3.170 -22.096  0.00  0.00    -0.007 C 
ATOM      3  C   UNL     1      -3.985   2.928 -20.876  0.00  0.00    +0.007 C 
ATOM      4  C   UNL     1      -2.706   2.694 -20.887  0.00  0.00    +0.043 C 
ATOM      5  C   UNL     1      -2.292   2.791 -22.116  0.00  0.00    +0.127 C 
ATOM      6  C   UNL     1      -1.054   2.612 -22.470  0.00  0.00    +0.165 C 
ATOM      7  C   UNL     1      -0.533   2.684 -23.659  0.00  0.00    +0.078 C 
ATOM      8  C   UNL     1      -1.121   2.951 -24.787  0.00  0.00    +0.012 C 
ATOM      9  C   UNL     1      -2.376   3.214 -25.005  0.00  0.00    -0.001 C 
ATOM     10  C   UNL     1      -3.352   3.274 -24.149  0.00  0.00    +0.005 C 
ATOM     11  C   UNL     1      -3.579   3.494 -25.409  0.00  0.00    -0.028 C 
ATOM     12  C   UNL     1      -3.362   3.633 -26.684  0.00  0.00    +0.011 C 
ATOM     13  C   UNL     1      -4.857   3.724 -25.372  0.00  0.00    +0.011 C 
ATOM     14  O   UNL     1      -0.228   2.324 -21.509  0.00  0.00    -0.294 OA
ATOM     15  C   UNL     1      -3.314   3.085 -22.863  0.00  0.00    +0.035 C 
ENDROOT
BRANCH   5  16
ATOM     16  O   UNL     1      -1.422   2.500 -21.194  0.00  0.00    -0.381 OA
ATOM     17  H   UNL     1      -0.605   2.183 -21.609  0.00  0.00    +0.211 HD
ENDBRANCH   5  16
TORSDOF 1
ENDMDL
MODEL 5
REMARK VINA RESULT:    -8.630      2.077      4.109
REMARK INTER + INTRA:          -9.134
REMARK INTER:                  -9.134
REMARK INTRA:                   0.000
REMARK UNBOUND:                 0.000
REMARK  Name = ZINC000004104701
REMARK  4 active torsions:
REMARK  status: ('A' for Active; 'I' for Inactive)
REMARK    1  A    between atoms: C_1  and  C_2
REMARK    2  A    between atoms: C_5  and  O_6
REMARK    3  A    between atoms: C_14  and  C_15
REMARK    4  A    between atoms: C_14  and  C_16
REMARK                            x       y       z     vdW  Elec       q    Type
REMARK                         _______ _______ _______ _____ _____    ______ ____
ROOT
ATOM      1  C   UNL     1      -1.143   2.260 -21.478  0.00  0.00    +0.008 C 
ATOM      2  C   UNL     1      -1.208   2.569 -22.738  0.00  0.00    -0.007 C 
ATOM      3  C   UNL     1      -0.213   2.580 -23.575  0.00  0.00    +0.007 C 
ATOM      4  C   UNL     1      -0.669   2.939 -24.738  0.00  0.00    +0.043 C 
ATOM      5  C   UNL     1      -1.946   3.149 -24.620  0.00  0.00    +0.127 C 
ATOM      6  C   UNL     1      -2.704   3.522 -25.609  0.00  0.00    +0.165 C 
ATOM      7  C   UNL     1      -3.983   3.760 -25.605  0.00  0.00    +0.078 C 
ATOM      8  C   UNL     1      -4.819   3.682 -24.612  0.00  0.00    +0.012 C 
ATOM      9  C   UNL     1      -4.583   3.347 -23.378  0.00  0.00    -0.001 C 
ATOM     10  C   UNL     1      -3.453   3.009 -22.832  0.00  0.00    +0.005 C 
ATOM     11  C   UNL     1      -4.537   3.042 -22.115  0.00  0.00    -0.028 C 
ATOM     12  C   UNL     1      -5.789   3.201 -21.799  0.00  0.00    +0.011 C 
ATOM     13  C   UNL     1      -4.057   2.681 -20.962  0.00  0.00    +0.011 C 
ATOM     14  O   UNL     1      -2.105   3.680 -26.751  0.00  0.00    -0.294 OA
ATOM     15  C   UNL     1      -2.280   2.920 -23.385  0.00  0.00    +0.035 C 
ENDROOT
BRANCH   5  16
ATOM     16  O   UNL     1      -1.399   3.321 -25.787  0.00  0.00    -0.381 OA
ATOM     17  H   UNL     1      -1.292   4.270 -25.957  0.00  0.00    +0.211 HD
ENDBRANCH   5  16
TORSDOF 1
ENDMDL
MODEL 6
REMARK VINA RESULT:    -8.622      0.852      3.095
REMARK INTER + INTRA:          -9.126
REMARK INTER:                  -9.126
REMARK INTRA:                   0.000
REMARK UNBOUND:                 0.000
REMARK  Name = ZINC000004104701
REMARK  4 active torsions:
REMARK  status: ('A' for Active; 'I' for Inactive)
REMARK    1  A    between atoms: C_1  and  C_2
REMARK    2  A    between atoms: C_5  and  O_6
REMARK    3  A    between atoms: C_14  and  C_15
REMARK    4  A    between atoms: C_14  and  C_16
REMARK                            x       y       z     vdW  Elec       q    Type
REMARK                         _______ _______ _______ _____ _____    ______ ____
ROOT
ATOM      1  C   UNL     1      -1.223   2.376 -21.079  0.00  0.00    +0.008 C 
ATOM      2  C   UNL     1      -2.415   2.682 -21.497  0.00  0.00    -0.007 C 
ATOM      3  C   UNL     1      -3.511   2.603 -20.803  0.00  0.00    +0.007 C 
ATOM      4  C   UNL     1      -4.495   2.993 -21.559  0.00  0.00    +0.043 C 
ATOM      5  C   UNL     1      -4.006   3.312 -22.720  0.00  0.00    +0.127 C 
ATOM      6  C   UNL     1      -4.733   3.743 -23.708  0.00  0.00    +0.165 C 
ATOM      7  C   UNL     1      -4.353   4.088 -24.903  0.00  0.00    +0.078 C 
ATOM      8  C   UNL     1      -3.153   4.088 -25.404  0.00  0.00    +0.012 C 
ATOM      9  C   UNL     1      -2.037   3.742 -24.834  0.00  0.00    -0.001 C 
ATOM     10  C   UNL     1      -1.844   3.311 -23.623  0.00  0.00    +0.005 C 
ATOM     11  C   UNL     1      -0.837   3.441 -24.434  0.00  0.00    -0.028 C 
ATOM     12  C   UNL     1      -0.165   3.708 -25.515  0.00  0.00    +0.011 C 
ATOM     13  C   UNL     1       0.129   3.048 -23.659  0.00  0.00    +0.011 C 
ATOM     14  O   UNL     1      -6.006   3.841 -23.471  0.00  0.00    -0.294 OA
ATOM     15  C   UNL     1      -2.721   3.120 -22.682  0.00  0.00    +0.035 C 
ENDROOT
BRANCH   5  16
ATOM     16  O   UNL     1      -5.288   3.430 -22.537  0.00  0.00    -0.381 OA
ATOM     17  H   UNL     1      -5.622   2.645 -22.074  0.00  0.00    +0.211 HD
ENDBRANCH   5  16
TORSDOF 1
ENDMDL
MODEL 7
REMARK VINA RESULT:    -8.432      2.303      4.845
REMARK INTER + INTRA:          -8.925
REMARK INTER:                  -8.925
REMARK INTRA:                   0.000
REMARK UNBOUND:                 0.000
REMARK  Name = ZINC000004104701
REMARK  4 active torsions:
REMARK  status: ('A' for Active; 'I' for Inactive)
REMARK    1  A    between atoms: C_1  and  C_2
REMARK    2  A    between atoms: C_5  and  O_6
REMARK    3  A    between atoms: C_14  and  C_15
REMARK    4  A    between atoms: C_14  and  C_16
REMARK                            x       y       z     vdW  Elec       q    Type
REMARK                         _______ _______ _______ _____ _____    ______ ____
ROOT
ATOM      1  C   UNL     1      -3.657   2.661 -20.835  0.00  0.00    +0.008 C 
ATOM      2  C   UNL     1      -2.554   2.601 -21.519  0.00  0.00    -0.007 C 
ATOM      3  C   UNL     1      -1.396   2.220 -21.068  0.00  0.00    +0.007 C 
ATOM      4  C   UNL     1      -0.540   2.294 -22.044  0.00  0.00    +0.043 C 
ATOM      5  C   UNL     1      -1.170   2.721 -23.098  0.00  0.00    +0.127 C 
ATOM      6  C   UNL     1      -0.595   2.906 -24.250  0.00  0.00    +0.165 C 
ATOM      7  C   UNL     1      -1.124   3.326 -25.361  0.00  0.00    +0.078 C 
ATOM      8  C   UNL     1      -2.357   3.665 -25.595  0.00  0.00    +0.012 C 
ATOM      9  C   UNL     1      -3.366   3.667 -24.775  0.00  0.00    -0.001 C 
ATOM     10  C   UNL     1      -3.392   3.332 -23.520  0.00  0.00    +0.005 C 
ATOM     11  C   UNL     1      -4.479   3.734 -24.107  0.00  0.00    -0.028 C 
ATOM     12  C   UNL     1      -5.277   4.165 -25.040  0.00  0.00    +0.011 C 
ATOM     13  C   UNL     1      -5.316   3.651 -23.116  0.00  0.00    +0.011 C 
ATOM     14  O   UNL     1       0.675   2.635 -24.296  0.00  0.00    -0.294 OA
ATOM     15  C   UNL     1      -2.415   2.911 -22.774  0.00  0.00    +0.035 C 
ENDROOT
BRANCH   5  16
ATOM     16  O   UNL     1       0.101   2.466 -23.201  0.00  0.00    -0.381 OA
ATOM     17  H   UNL     1       0.427   2.106 -22.361  0.00  0.00    +0.211 HD
ENDBRANCH   5  16
TORSDOF 1
ENDMDL
MODEL 8
REMARK VINA RESULT:    -8.228      1.491      2.512
REMARK INTER + INTRA:          -8.709
REMARK INTER:                  -8.709
REMARK INTRA:                   0.000
REMARK UNBOUND:                 0.000
REMARK  Name = ZINC000004104701
REMARK  4 active torsions:
REMARK  status: ('A' for Active; 'I' for Inactive)
REMARK    1  A    between atoms: C_1  and  C_2
REMARK    2  A    between atoms: C_5  and  O_6
REMARK    3  A    between atoms: C_14  and  C_15
REMARK    4  A    between atoms: C_14  and  C_16
REMARK                            x       y       z     vdW  Elec       q    Type
REMARK                         _______ _______ _______ _____ _____    ______ ____
ROOT
ATOM      1  C   UNL     1      -0.371   2.983 -23.569  0.00  0.00    +0.008 C 
ATOM      2  C   UNL     1      -1.480   3.168 -24.221  0.00  0.00    -0.007 C 
ATOM      3  C   UNL     1      -1.603   3.247 -25.512  0.00  0.00    +0.007 C 
ATOM      4  C   UNL     1      -2.860   3.436 -25.786  0.00  0.00    +0.043 C 
ATOM      5  C   UNL     1      -3.513   3.473 -24.664  0.00  0.00    +0.127 C 
ATOM      6  C   UNL     1      -4.800   3.648 -24.590  0.00  0.00    +0.165 C 
ATOM      7  C   UNL     1      -5.551   3.702 -23.529  0.00  0.00    +0.078 C 
ATOM      8  C   UNL     1      -5.201   3.594 -22.282  0.00  0.00    +0.012 C 
ATOM      9  C   UNL     1      -4.014   3.405 -21.787  0.00  0.00    -0.001 C 
ATOM     10  C   UNL     1      -2.884   3.278 -22.415  0.00  0.00    +0.005 C 
ATOM     11  C   UNL     1      -2.915   3.220 -21.118  0.00  0.00    -0.028 C 
ATOM     12  C   UNL     1      -3.385   3.227 -19.905  0.00  0.00    +0.011 C 
ATOM     13  C   UNL     1      -1.653   3.032 -20.869  0.00  0.00    +0.011 C 
ATOM     14  O   UNL     1      -5.416   3.788 -25.725  0.00  0.00    -0.294 OA
ATOM     15  C   UNL     1      -2.661   3.308 -23.696  0.00  0.00    +0.035 C 
ENDROOT
BRANCH   5  16
ATOM     16  O   UNL     1      -4.180   3.619 -25.770  0.00  0.00    -0.381 OA
ATOM     17  H   UNL     1      -5.119   3.755 -25.566  0.00  0.00    +0.211 HD
ENDBRANCH   5  16
TORSDOF 1
ENDMDL
MODEL 9
REMARK VINA RESULT:    -7.893      2.308      3.896
REMARK INTER + INTRA:          -8.354
REMARK INTER:                  -8.354
REMARK INTRA:                   0.000
REMARK UNBOUND:                 0.000
REMARK  Name = ZINC000004104701
REMARK  4 active torsions:
REMARK  status: ('A' for Active; 'I' for Inactive)
REMARK    1  A    between atoms: C_1  and  C_2
REMARK    2  A    between atoms: C_5  and  O_6
REMARK    3  A    between atoms: C_14  and  C_15
REMARK    4  A    between atoms: C_14  and  C_16
REMARK                            x       y       z     vdW  Elec       q    Type
REMARK                         _______ _______ _______ _____ _____    ______ ____
ROOT
ATOM      1  C   UNL     1      -1.416   3.677 -25.958  0.00  0.00    +0.008 C 
ATOM      2  C   UNL     1      -1.006   3.230 -24.808  0.00  0.00    -0.007 C 
ATOM      3  C   UNL     1       0.210   2.876 -24.516  0.00  0.00    +0.007 C 
ATOM      4  C   UNL     1       0.229   2.485 -23.276  0.00  0.00    +0.043 C 
ATOM      5  C   UNL     1      -0.976   2.597 -22.803  0.00  0.00    +0.127 C 
ATOM      6  C   UNL     1      -1.297   2.285 -21.582  0.00  0.00    +0.165 C 
ATOM      7  C   UNL     1      -2.461   2.357 -21.006  0.00  0.00    +0.078 C 
ATOM      8  C   UNL     1      -3.590   2.757 -21.509  0.00  0.00    +0.012 C 
ATOM      9  C   UNL     1      -3.836   3.185 -22.712  0.00  0.00    -0.001 C 
ATOM     10  C   UNL     1      -3.012   3.319 -23.709  0.00  0.00    +0.005 C 
ATOM     11  C   UNL     1      -4.265   3.634 -23.854  0.00  0.00    -0.028 C 
ATOM     12  C   UNL     1      -5.520   3.816 -23.568  0.00  0.00    +0.011 C 
ATOM     13  C   UNL     1      -4.258   4.020 -25.095  0.00  0.00    +0.011 C 
ATOM     14  O   UNL     1      -0.326   1.844 -20.839  0.00  0.00    -0.294 OA
ATOM     15  C   UNL     1      -1.740   3.057 -23.749  0.00  0.00    +0.035 C 
ENDROOT
BRANCH   5  16
ATOM     16  O   UNL     1      -0.043   2.150 -22.015  0.00  0.00    -0.381 OA
ATOM     17  H   UNL     1       0.517   1.524 -22.500  0.00  0.00    +0.211 HD
ENDBRANCH   5  16
TORSDOF 1
ENDMDL
