MODEL 1
REMARK VINA RESULT:    -9.838      0.000      0.000
REMARK INTER + INTRA:         -12.204
REMARK INTER:                 -11.553
REMARK INTRA:                  -0.651
REMARK UNBOUND:                -0.066
REMARK  Name = ZINC000004029241
REMARK  4 active torsions:
REMARK  status: ('A' for Active; 'I' for Inactive)
REMARK    1  A    between atoms: C_2  and  O_3
REMARK    2  A    between atoms: C_2  and  C_15
REMARK    3  A    between atoms: O_3  and  C_4
REMARK    4  A    between atoms: C_4  and  C_5
REMARK                            x       y       z     vdW  Elec       q    Type
REMARK                         _______ _______ _______ _____ _____    ______ ____
ROOT
ATOM      1  C   UNL     1      -1.374   4.331 -24.292  0.00  0.00    +0.241 C 
ENDROOT
BRANCH   1   2
ATOM      2  C   UNL     1      -2.651   4.146 -24.137  0.00  0.00    +0.075 C 
ATOM      3  C   UNL     1      -3.470   4.412 -25.112  0.00  0.00    +0.017 C 
ATOM      4  C   UNL     1      -4.747   4.227 -24.957  0.00  0.00    +0.051 C 
ATOM      5  C   UNL     1      -5.206   3.778 -23.827  0.00  0.00    +0.131 C 
ATOM      6  N   UNL     1      -4.388   3.513 -22.852  0.00  0.00    +0.238 N 
ATOM      7  H   UNL     1      -5.175   3.225 -22.269  0.00  0.00    +0.204 HD
ATOM      8  C   UNL     1      -4.848   3.063 -21.722  0.00  0.00    +0.131 C 
ATOM      9  C   UNL     1      -4.030   2.798 -20.747  0.00  0.00    +0.051 C 
ATOM     10  C   UNL     1      -2.753   2.982 -20.902  0.00  0.00    +0.011 C 
ATOM     11  C   UNL     1      -2.294   3.432 -22.032  0.00  0.00    +0.055 C 
ATOM     12  C   UNL     1      -3.111   3.697 -23.007  0.00  0.00    +0.071 C 
ENDBRANCH   1   2
BRANCH   1  13
ATOM     13  O   UNL     1      -0.645   3.403 -24.836  0.00  0.00    -0.461 OA
BRANCH  13  15
ATOM     14  O   UNL     1       1.188   4.119 -25.930  0.00  0.00    -0.245 OA
ATOM     15  C   UNL     1       0.646   3.544 -24.899  0.00  0.00    +0.339 C 
BRANCH  15  16
ATOM     16  C   UNL     1       1.394   3.108 -23.930  0.00  0.00    +0.059 A 
ATOM     17  C   UNL     1       0.966   2.154 -23.156  0.00  0.00    +0.016 A 
ATOM     18  C   UNL     1       1.713   1.719 -22.187  0.00  0.00    +0.021 A 
ATOM     19  C   UNL     1       2.890   2.236 -21.990  0.00  0.00    +0.041 A 
ATOM     20  C   UNL     1       3.319   3.190 -22.763  0.00  0.00    +0.021 A 
ATOM     21 CL   UNL     1       3.638   1.800 -21.020  0.00  0.00    -0.084 Cl
ATOM     22  C   UNL     1       2.570   3.626 -23.733  0.00  0.00    +0.016 A 
ENDBRANCH  15  16
ENDBRANCH  13  15
ENDBRANCH   1  13
TORSDOF 4
ENDMDL
MODEL 2
REMARK VINA RESULT:    -9.820      1.665      2.316
REMARK INTER + INTRA:         -12.182
REMARK INTER:                 -11.557
REMARK INTRA:                  -0.625
REMARK UNBOUND:                -0.066
REMARK  Name = ZINC000004029241
REMARK  4 active torsions:
REMARK  status: ('A' for Active; 'I' for Inactive)
REMARK    1  A    between atoms: C_2  and  O_3
REMARK    2  A    between atoms: C_2  and  C_15
REMARK    3  A    between atoms: O_3  and  C_4
REMARK    4  A    between atoms: C_4  and  C_5
REMARK                            x       y       z     vdW  Elec       q    Type
REMARK                         _______ _______ _______ _____ _____    ______ ____
ROOT
ATOM      1  C   UNL     1      -1.110   2.279 -23.200  0.00  0.00    +0.241 C 
ENDROOT
BRANCH   1   2
ATOM      2  C   UNL     1      -2.099   2.848 -23.824  0.00  0.00    +0.075 C 
ATOM      3  C   UNL     1      -1.944   3.262 -25.047  0.00  0.00    +0.017 C 
ATOM      4  C   UNL     1      -2.933   3.831 -25.670  0.00  0.00    +0.051 C 
ATOM      5  C   UNL     1      -4.077   3.986 -25.070  0.00  0.00    +0.131 C 
ATOM      6  N   UNL     1      -4.230   3.573 -23.847  0.00  0.00    +0.238 N 
ATOM      7  H   UNL     1      -5.197   3.901 -23.857  0.00  0.00    +0.204 HD
ATOM      8  C   UNL     1      -5.373   3.728 -23.248  0.00  0.00    +0.131 C 
ATOM      9  C   UNL     1      -5.528   3.315 -22.025  0.00  0.00    +0.051 C 
ATOM     10  C   UNL     1      -4.539   2.746 -21.402  0.00  0.00    +0.011 C 
ATOM     11  C   UNL     1      -3.396   2.591 -22.002  0.00  0.00    +0.055 C 
ATOM     12  C   UNL     1      -3.241   3.004 -23.224  0.00  0.00    +0.071 C 
ENDBRANCH   1   2
BRANCH   1  13
ATOM     13  O   UNL     1       0.076   2.271 -23.733  0.00  0.00    -0.461 OA
BRANCH  13  15
ATOM     14  O   UNL     1       1.097   0.876 -22.290  0.00  0.00    -0.245 OA
ATOM     15  C   UNL     1       1.111   1.958 -23.011  0.00  0.00    +0.339 C 
BRANCH  15  16
ATOM     16  C   UNL     1       2.159   2.726 -23.011  0.00  0.00    +0.059 A 
ATOM     17  C   UNL     1       2.041   3.986 -23.312  0.00  0.00    +0.016 A 
ATOM     18  C   UNL     1       3.089   4.754 -23.311  0.00  0.00    +0.021 A 
ATOM     19  C   UNL     1       4.255   4.264 -23.011  0.00  0.00    +0.041 A 
ATOM     20  C   UNL     1       4.373   3.005 -22.710  0.00  0.00    +0.021 A 
ATOM     21 CL   UNL     1       5.303   5.033 -23.011  0.00  0.00    -0.084 Cl
ATOM     22  C   UNL     1       3.324   2.236 -22.710  0.00  0.00    +0.016 A 
ENDBRANCH  15  16
ENDBRANCH  13  15
ENDBRANCH   1  13
TORSDOF 4
ENDMDL
MODEL 3
REMARK VINA RESULT:    -9.654      1.675      3.069
REMARK INTER + INTRA:         -11.977
REMARK INTER:                 -11.386
REMARK INTRA:                  -0.591
REMARK UNBOUND:                -0.066
REMARK  Name = ZINC000004029241
REMARK  4 active torsions:
REMARK  status: ('A' for Active; 'I' for Inactive)
REMARK    1  A    between atoms: C_2  and  O_3
REMARK    2  A    between atoms: C_2  and  C_15
REMARK    3  A    between atoms: O_3  and  C_4
REMARK    4  A    between atoms: C_4  and  C_5
REMARK                            x       y       z     vdW  Elec       q    Type
REMARK                         _______ _______ _______ _____ _____    ______ ____
ROOT
ATOM      1  C   UNL     1      -1.002   2.301 -23.074  0.00  0.00    +0.241 C 
ENDROOT
BRANCH   1   2
ATOM      2  C   UNL     1      -2.169   2.659 -22.627  0.00  0.00    +0.075 C 
ATOM      3  C   UNL     1      -2.416   2.618 -21.351  0.00  0.00    +0.017 C 
ATOM      4  C   UNL     1      -3.583   2.976 -20.903  0.00  0.00    +0.051 C 
ATOM      5  C   UNL     1      -4.503   3.374 -21.732  0.00  0.00    +0.131 C 
ATOM      6  N   UNL     1      -4.255   3.415 -23.007  0.00  0.00    +0.238 N 
ATOM      7  H   UNL     1      -5.201   3.758 -23.180  0.00  0.00    +0.204 HD
ATOM      8  C   UNL     1      -5.174   3.814 -23.835  0.00  0.00    +0.131 C 
ATOM      9  C   UNL     1      -4.928   3.855 -25.111  0.00  0.00    +0.051 C 
ATOM     10  C   UNL     1      -3.761   3.497 -25.558  0.00  0.00    +0.011 C 
ATOM     11  C   UNL     1      -2.842   3.098 -24.729  0.00  0.00    +0.055 C 
ATOM     12  C   UNL     1      -3.088   3.057 -23.455  0.00  0.00    +0.071 C 
ENDBRANCH   1   2
BRANCH   1  13
ATOM     13  O   UNL     1       0.076   2.814 -22.561  0.00  0.00    -0.461 OA
BRANCH  13  15
ATOM     14  O   UNL     1       1.210   0.868 -22.560  0.00  0.00    -0.245 OA
ATOM     15  C   UNL     1       1.202   2.166 -22.631  0.00  0.00    +0.339 C 
BRANCH  15  16
ATOM     16  C   UNL     1       2.317   2.817 -22.773  0.00  0.00    +0.059 A 
ATOM     17  C   UNL     1       2.299   4.068 -23.129  0.00  0.00    +0.016 A 
ATOM     18  C   UNL     1       3.415   4.719 -23.270  0.00  0.00    +0.021 A 
ATOM     19  C   UNL     1       4.549   4.120 -23.057  0.00  0.00    +0.041 A 
ATOM     20  C   UNL     1       4.567   2.869 -22.702  0.00  0.00    +0.021 A 
ATOM     21 CL   UNL     1       5.665   4.772 -23.199  0.00  0.00    -0.084 Cl
ATOM     22  C   UNL     1       3.451   2.218 -22.560  0.00  0.00    +0.016 A 
ENDBRANCH  15  16
ENDBRANCH  13  15
ENDBRANCH   1  13
TORSDOF 4
ENDMDL
MODEL 4
REMARK VINA RESULT:    -9.423      1.347      2.664
REMARK INTER + INTRA:         -11.692
REMARK INTER:                 -11.017
REMARK INTRA:                  -0.675
REMARK UNBOUND:                -0.066
REMARK  Name = ZINC000004029241
REMARK  4 active torsions:
REMARK  status: ('A' for Active; 'I' for Inactive)
REMARK    1  A    between atoms: C_2  and  O_3
REMARK    2  A    between atoms: C_2  and  C_15
REMARK    3  A    between atoms: O_3  and  C_4
REMARK    4  A    between atoms: C_4  and  C_5
REMARK                            x       y       z     vdW  Elec       q    Type
REMARK                         _______ _______ _______ _____ _____    ______ ____
ROOT
ATOM      1  C   UNL     1      -0.893   2.663 -23.903  0.00  0.00    +0.241 C 
ENDROOT
BRANCH   1   2
ATOM      2  C   UNL     1      -1.909   2.758 -23.097  0.00  0.00    +0.075 C 
ATOM      3  C   UNL     1      -1.784   2.413 -21.850  0.00  0.00    +0.017 C 
ATOM      4  C   UNL     1      -2.801   2.508 -21.044  0.00  0.00    +0.051 C 
ATOM      5  C   UNL     1      -3.942   2.948 -21.487  0.00  0.00    +0.131 C 
ATOM      6  N   UNL     1      -4.066   3.292 -22.734  0.00  0.00    +0.238 N 
ATOM      7  H   UNL     1      -5.044   3.535 -22.571  0.00  0.00    +0.204 HD
ATOM      8  C   UNL     1      -5.206   3.731 -23.176  0.00  0.00    +0.131 C 
ATOM      9  C   UNL     1      -5.332   4.076 -24.424  0.00  0.00    +0.051 C 
ATOM     10  C   UNL     1      -4.316   3.982 -25.229  0.00  0.00    +0.011 C 
ATOM     11  C   UNL     1      -3.175   3.542 -24.786  0.00  0.00    +0.055 C 
ATOM     12  C   UNL     1      -3.050   3.197 -23.539  0.00  0.00    +0.071 C 
ENDBRANCH   1   2
BRANCH   1  13
ATOM     13  O   UNL     1       0.107   1.890 -23.600  0.00  0.00    -0.461 OA
BRANCH  13  15
ATOM     14  O   UNL     1       1.615   3.422 -24.267  0.00  0.00    -0.245 OA
ATOM     15  C   UNL     1       1.314   2.371 -23.565  0.00  0.00    +0.339 C 
BRANCH  15  16
ATOM     16  C   UNL     1       2.219   1.799 -22.829  0.00  0.00    +0.059 A 
ATOM     17  C   UNL     1       2.030   1.672 -21.548  0.00  0.00    +0.016 A 
ATOM     18  C   UNL     1       2.936   1.101 -20.812  0.00  0.00    +0.021 A 
ATOM     19  C   UNL     1       4.031   0.656 -21.354  0.00  0.00    +0.041 A 
ATOM     20  C   UNL     1       4.220   0.783 -22.634  0.00  0.00    +0.021 A 
ATOM     21 CL   UNL     1       4.936   0.085 -20.617  0.00  0.00    -0.084 Cl
ATOM     22  C   UNL     1       3.313   1.355 -23.371  0.00  0.00    +0.016 A 
ENDBRANCH  15  16
ENDBRANCH  13  15
ENDBRANCH   1  13
TORSDOF 4
ENDMDL
MODEL 5
REMARK VINA RESULT:    -9.125      3.265      6.876
REMARK INTER + INTRA:         -11.325
REMARK INTER:                 -10.721
REMARK INTRA:                  -0.604
REMARK UNBOUND:                -0.066
REMARK  Name = ZINC000004029241
REMARK  4 active torsions:
REMARK  status: ('A' for Active; 'I' for Inactive)
REMARK    1  A    between atoms: C_2  and  O_3
REMARK    2  A    between atoms: C_2  and  C_15
REMARK    3  A    between atoms: O_3  and  C_4
REMARK    4  A    between atoms: C_4  and  C_5
REMARK                            x       y       z     vdW  Elec       q    Type
REMARK                         _______ _______ _______ _____ _____    ______ ____
ROOT
ATOM      1  C   UNL     1       1.089   2.572 -23.235  0.00  0.00    +0.241 C 
ENDROOT
BRANCH   1   2
ATOM      2  C   UNL     1       2.267   3.073 -23.007  0.00  0.00    +0.075 C 
ATOM      3  C   UNL     1       2.564   4.261 -23.444  0.00  0.00    +0.017 C 
ATOM      4  C   UNL     1       3.742   4.762 -23.217  0.00  0.00    +0.051 C 
ATOM      5  C   UNL     1       4.623   4.074 -22.553  0.00  0.00    +0.131 C 
ATOM      6  N   UNL     1       4.326   2.886 -22.116  0.00  0.00    +0.238 N 
ATOM      7  H   UNL     1       5.259   2.801 -21.712  0.00  0.00    +0.204 HD
ATOM      8  C   UNL     1       5.207   2.199 -21.452  0.00  0.00    +0.131 C 
ATOM      9  C   UNL     1       4.911   1.011 -21.015  0.00  0.00    +0.051 C 
ATOM     10  C   UNL     1       3.733   0.511 -21.242  0.00  0.00    +0.011 C 
ATOM     11  C   UNL     1       2.852   1.198 -21.907  0.00  0.00    +0.055 C 
ATOM     12  C   UNL     1       3.148   2.386 -22.343  0.00  0.00    +0.071 C 
ENDBRANCH   1   2
BRANCH   1  13
ATOM     13  O   UNL     1       0.026   3.201 -22.828  0.00  0.00    -0.461 OA
BRANCH  13  15
ATOM     14  O   UNL     1      -0.317   1.861 -21.052  0.00  0.00    -0.245 OA
ATOM     15  C   UNL     1      -0.786   2.629 -21.989  0.00  0.00    +0.339 C 
BRANCH  15  16
ATOM     16  C   UNL     1      -2.066   2.827 -22.088  0.00  0.00    +0.059 A 
ATOM     17  C   UNL     1      -2.578   3.223 -23.216  0.00  0.00    +0.016 A 
ATOM     18  C   UNL     1      -3.858   3.421 -23.315  0.00  0.00    +0.021 A 
ATOM     19  C   UNL     1      -4.629   3.223 -22.286  0.00  0.00    +0.041 A 
ATOM     20  C   UNL     1      -4.117   2.828 -21.158  0.00  0.00    +0.021 A 
ATOM     21 CL   UNL     1      -5.909   3.422 -22.385  0.00  0.00    -0.084 Cl
ATOM     22  C   UNL     1      -2.836   2.630 -21.059  0.00  0.00    +0.016 A 
ENDBRANCH  15  16
ENDBRANCH  13  15
ENDBRANCH   1  13
TORSDOF 4
ENDMDL
MODEL 6
REMARK VINA RESULT:    -9.089      2.983      6.632
REMARK INTER + INTRA:         -11.280
REMARK INTER:                 -10.625
REMARK INTRA:                  -0.655
REMARK UNBOUND:                -0.066
REMARK  Name = ZINC000004029241
REMARK  4 active torsions:
REMARK  status: ('A' for Active; 'I' for Inactive)
REMARK    1  A    between atoms: C_2  and  O_3
REMARK    2  A    between atoms: C_2  and  C_15
REMARK    3  A    between atoms: O_3  and  C_4
REMARK    4  A    between atoms: C_4  and  C_5
REMARK                            x       y       z     vdW  Elec       q    Type
REMARK                         _______ _______ _______ _____ _____    ______ ____
ROOT
ATOM      1  C   UNL     1       1.181   3.910 -23.745  0.00  0.00    +0.241 C 
ENDROOT
BRANCH   1   2
ATOM      2  C   UNL     1       1.816   3.105 -22.945  0.00  0.00    +0.075 C 
ATOM      3  C   UNL     1       1.179   2.133 -22.362  0.00  0.00    +0.017 C 
ATOM      4  C   UNL     1       1.814   1.328 -21.562  0.00  0.00    +0.051 C 
ATOM      5  C   UNL     1       3.086   1.496 -21.346  0.00  0.00    +0.131 C 
ATOM      6  N   UNL     1       3.721   2.468 -21.930  0.00  0.00    +0.238 N 
ATOM      7  H   UNL     1       4.586   2.180 -21.470  0.00  0.00    +0.204 HD
ATOM      8  C   UNL     1       4.992   2.635 -21.714  0.00  0.00    +0.131 C 
ATOM      9  C   UNL     1       5.629   3.607 -22.297  0.00  0.00    +0.051 C 
ATOM     10  C   UNL     1       4.994   4.412 -23.096  0.00  0.00    +0.011 C 
ATOM     11  C   UNL     1       3.723   4.244 -23.312  0.00  0.00    +0.055 C 
ATOM     12  C   UNL     1       3.087   3.273 -22.729  0.00  0.00    +0.071 C 
ENDBRANCH   1   2
BRANCH   1  13
ATOM     13  O   UNL     1      -0.028   4.292 -23.458  0.00  0.00    -0.461 OA
BRANCH  13  15
ATOM     14  O   UNL     1      -0.845   3.671 -25.462  0.00  0.00    -0.245 OA
ATOM     15  C   UNL     1      -1.025   3.902 -24.195  0.00  0.00    +0.339 C 
BRANCH  15  16
ATOM     16  C   UNL     1      -2.201   3.744 -23.666  0.00  0.00    +0.059 A 
ATOM     17  C   UNL     1      -2.311   3.433 -22.408  0.00  0.00    +0.016 A 
ATOM     18  C   UNL     1      -3.487   3.275 -21.878  0.00  0.00    +0.021 A 
ATOM     19  C   UNL     1      -4.554   3.428 -22.606  0.00  0.00    +0.041 A 
ATOM     20  C   UNL     1      -4.444   3.739 -23.863  0.00  0.00    +0.021 A 
ATOM     21 CL   UNL     1      -5.730   3.270 -22.075  0.00  0.00    -0.084 Cl
ATOM     22  C   UNL     1      -3.267   3.898 -24.393  0.00  0.00    +0.016 A 
ENDBRANCH  15  16
ENDBRANCH  13  15
ENDBRANCH   1  13
TORSDOF 4
ENDMDL
MODEL 7
REMARK VINA RESULT:    -8.558      2.480      3.752
REMARK INTER + INTRA:         -10.625
REMARK INTER:                  -9.847
REMARK INTRA:                  -0.778
REMARK UNBOUND:                -0.066
REMARK  Name = ZINC000004029241
REMARK  4 active torsions:
REMARK  status: ('A' for Active; 'I' for Inactive)
REMARK    1  A    between atoms: C_2  and  O_3
REMARK    2  A    between atoms: C_2  and  C_15
REMARK    3  A    between atoms: O_3  and  C_4
REMARK    4  A    between atoms: C_4  and  C_5
REMARK                            x       y       z     vdW  Elec       q    Type
REMARK                         _______ _______ _______ _____ _____    ______ ____
ROOT
ATOM      1  C   UNL     1       1.037   1.547 -22.344  0.00  0.00    +0.241 C 
ENDROOT
BRANCH   1   2
ATOM      2  C   UNL     1       0.298   2.279 -23.123  0.00  0.00    +0.075 C 
ATOM      3  C   UNL     1       0.786   2.739 -24.238  0.00  0.00    +0.017 C 
ATOM      4  C   UNL     1       0.046   3.472 -25.017  0.00  0.00    +0.051 C 
ATOM      5  C   UNL     1      -1.180   3.744 -24.682  0.00  0.00    +0.131 C 
ATOM      6  N   UNL     1      -1.667   3.284 -23.568  0.00  0.00    +0.238 N 
ATOM      7  H   UNL     1      -2.559   3.739 -23.768  0.00  0.00    +0.204 HD
ATOM      8  C   UNL     1      -2.893   3.556 -23.233  0.00  0.00    +0.131 C 
ATOM      9  C   UNL     1      -3.381   3.097 -22.119  0.00  0.00    +0.051 C 
ATOM     10  C   UNL     1      -2.642   2.365 -21.340  0.00  0.00    +0.011 C 
ATOM     11  C   UNL     1      -1.415   2.092 -21.675  0.00  0.00    +0.055 C 
ATOM     12  C   UNL     1      -0.928   2.552 -22.788  0.00  0.00    +0.071 C 
ENDBRANCH   1   2
BRANCH   1  13
ATOM     13  O   UNL     1       2.107   0.975 -22.811  0.00  0.00    -0.461 OA
BRANCH  13  15
ATOM     14  O   UNL     1       3.294   0.010 -21.160  0.00  0.00    -0.245 OA
ATOM     15  C   UNL     1       3.183   0.917 -22.084  0.00  0.00    +0.339 C 
BRANCH  15  16
ATOM     16  C   UNL     1       4.147   1.765 -22.282  0.00  0.00    +0.059 A 
ATOM     17  C   UNL     1       4.948   2.078 -21.306  0.00  0.00    +0.016 A 
ATOM     18  C   UNL     1       5.912   2.926 -21.504  0.00  0.00    +0.021 A 
ATOM     19  C   UNL     1       6.077   3.462 -22.677  0.00  0.00    +0.041 A 
ATOM     20  C   UNL     1       5.277   3.149 -23.653  0.00  0.00    +0.021 A 
ATOM     21 CL   UNL     1       7.042   4.311 -22.875  0.00  0.00    -0.084 Cl
ATOM     22  C   UNL     1       4.312   2.300 -23.455  0.00  0.00    +0.016 A 
ENDBRANCH  15  16
ENDBRANCH  13  15
ENDBRANCH   1  13
TORSDOF 4
ENDMDL
MODEL 8
REMARK VINA RESULT:    -8.410      3.228      6.662
REMARK INTER + INTRA:         -10.443
REMARK INTER:                 -10.377
REMARK INTRA:                  -0.066
REMARK UNBOUND:                -0.066
REMARK  Name = ZINC000004029241
REMARK  4 active torsions:
REMARK  status: ('A' for Active; 'I' for Inactive)
REMARK    1  A    between atoms: C_2  and  O_3
REMARK    2  A    between atoms: C_2  and  C_15
REMARK    3  A    between atoms: O_3  and  C_4
REMARK    4  A    between atoms: C_4  and  C_5
REMARK                            x       y       z     vdW  Elec       q    Type
REMARK                         _______ _______ _______ _____ _____    ______ ____
ROOT
ATOM      1  C   UNL     1      -0.969   2.080 -21.643  0.00  0.00    +0.241 C 
ENDROOT
BRANCH   1   2
ATOM      2  C   UNL     1       0.308   1.940 -21.844  0.00  0.00    +0.075 C 
ATOM      3  C   UNL     1       1.068   1.479 -20.895  0.00  0.00    +0.017 C 
ATOM      4  C   UNL     1       2.345   1.338 -21.096  0.00  0.00    +0.051 C 
ATOM      5  C   UNL     1       2.861   1.659 -22.246  0.00  0.00    +0.131 C 
ATOM      6  N   UNL     1       2.101   2.119 -23.194  0.00  0.00    +0.238 N 
ATOM      7  H   UNL     1       2.913   2.201 -23.807  0.00  0.00    +0.204 HD
ATOM      8  C   UNL     1       2.617   2.439 -24.343  0.00  0.00    +0.131 C 
ATOM      9  C   UNL     1       1.857   2.899 -25.292  0.00  0.00    +0.051 C 
ATOM     10  C   UNL     1       0.581   3.040 -25.092  0.00  0.00    +0.011 C 
ATOM     11  C   UNL     1       0.064   2.720 -23.942  0.00  0.00    +0.055 C 
ATOM     12  C   UNL     1       0.824   2.259 -22.993  0.00  0.00    +0.071 C 
ENDBRANCH   1   2
BRANCH   1  13
ATOM     13  O   UNL     1      -1.419   3.140 -21.041  0.00  0.00    -0.461 OA
BRANCH  13  15
ATOM     14  O   UNL     1      -3.260   3.356 -19.762  0.00  0.00    -0.245 OA
ATOM     15  C   UNL     1      -2.701   3.333 -20.935  0.00  0.00    +0.339 C 
BRANCH  15  16
ATOM     16  C   UNL     1      -3.422   3.502 -22.003  0.00  0.00    +0.059 A 
ATOM     17  C   UNL     1      -2.850   3.808 -23.131  0.00  0.00    +0.016 A 
ATOM     18  C   UNL     1      -3.571   3.977 -24.198  0.00  0.00    +0.021 A 
ATOM     19  C   UNL     1      -4.864   3.842 -24.140  0.00  0.00    +0.041 A 
ATOM     20  C   UNL     1      -5.434   3.536 -23.013  0.00  0.00    +0.021 A 
ATOM     21 CL   UNL     1      -5.584   4.011 -25.208  0.00  0.00    -0.084 Cl
ATOM     22  C   UNL     1      -4.713   3.366 -21.944  0.00  0.00    +0.016 A 
ENDBRANCH  15  16
ENDBRANCH  13  15
ENDBRANCH   1  13
TORSDOF 4
ENDMDL
MODEL 9
REMARK VINA RESULT:    -8.398      3.384      7.198
REMARK INTER + INTRA:         -10.427
REMARK INTER:                  -9.599
REMARK INTRA:                  -0.828
REMARK UNBOUND:                -0.066
REMARK  Name = ZINC000004029241
REMARK  4 active torsions:
REMARK  status: ('A' for Active; 'I' for Inactive)
REMARK    1  A    between atoms: C_2  and  O_3
REMARK    2  A    between atoms: C_2  and  C_15
REMARK    3  A    between atoms: O_3  and  C_4
REMARK    4  A    between atoms: C_4  and  C_5
REMARK                            x       y       z     vdW  Elec       q    Type
REMARK                         _______ _______ _______ _____ _____    ______ ____
ROOT
ATOM      1  C   UNL     1       3.087   3.494 -23.772  0.00  0.00    +0.241 C 
ENDROOT
BRANCH   1   2
ATOM      2  C   UNL     1       3.804   3.002 -22.806  0.00  0.00    +0.075 C 
ATOM      3  C   UNL     1       3.440   1.896 -22.225  0.00  0.00    +0.017 C 
ATOM      4  C   UNL     1       4.157   1.403 -21.259  0.00  0.00    +0.051 C 
ATOM      5  C   UNL     1       5.237   2.016 -20.874  0.00  0.00    +0.131 C 
ATOM      6  N   UNL     1       5.600   3.121 -21.454  0.00  0.00    +0.238 N 
ATOM      7  H   UNL     1       6.415   3.176 -20.842  0.00  0.00    +0.204 HD
ATOM      8  C   UNL     1       6.680   3.733 -21.068  0.00  0.00    +0.131 C 
ATOM      9  C   UNL     1       7.044   4.838 -21.648  0.00  0.00    +0.051 C 
ATOM     10  C   UNL     1       6.327   5.331 -22.614  0.00  0.00    +0.011 C 
ATOM     11  C   UNL     1       5.247   4.718 -23.000  0.00  0.00    +0.055 C 
ATOM     12  C   UNL     1       4.884   3.614 -22.420  0.00  0.00    +0.071 C 
ENDBRANCH   1   2
BRANCH   1  13
ATOM     13  O   UNL     1       1.827   3.190 -23.867  0.00  0.00    -0.461 OA
BRANCH  13  15
ATOM     14  O   UNL     1       1.071   5.306 -24.013  0.00  0.00    -0.245 OA
ATOM     15  C   UNL     1       0.921   4.083 -23.599  0.00  0.00    +0.339 C 
BRANCH  15  16
ATOM     16  C   UNL     1      -0.134   3.752 -22.917  0.00  0.00    +0.059 A 
ATOM     17  C   UNL     1      -1.109   4.603 -22.773  0.00  0.00    +0.016 A 
ATOM     18  C   UNL     1      -2.164   4.272 -22.091  0.00  0.00    +0.021 A 
ATOM     19  C   UNL     1      -2.247   3.092 -21.552  0.00  0.00    +0.041 A 
ATOM     20  C   UNL     1      -1.274   2.242 -21.695  0.00  0.00    +0.021 A 
ATOM     21 CL   UNL     1      -3.303   2.762 -20.870  0.00  0.00    -0.084 Cl
ATOM     22  C   UNL     1      -0.217   2.573 -22.378  0.00  0.00    +0.016 A 
ENDBRANCH  15  16
ENDBRANCH  13  15
ENDBRANCH   1  13
TORSDOF 4
ENDMDL
