MODEL 1
REMARK VINA RESULT:    -9.498      0.000      0.000
REMARK INTER + INTRA:         -14.315
REMARK INTER:                 -13.634
REMARK INTRA:                  -0.680
REMARK UNBOUND:                -0.652
REMARK  Name = ZINC000002138728
REMARK  10 active torsions:
REMARK  status: ('A' for Active; 'I' for Inactive)
REMARK    1  A    between atoms: C_2  and  C_3
REMARK    2  A    between atoms: C_2  and  O_13
REMARK    3  A    between atoms: C_4  and  C_5
REMARK    4  A    between atoms: C_8  and  O_9
REMARK    5  A    between atoms: C_10  and  O_11
REMARK    6  A    between atoms: O_13  and  C_14
REMARK    7  A    between atoms: C_16  and  O_17
REMARK    8  A    between atoms: C_16  and  C_18
REMARK    9  A    between atoms: C_22  and  O_23
REMARK   10  A    between atoms: C_24  and  O_25
REMARK                            x       y       z     vdW  Elec       q    Type
REMARK                         _______ _______ _______ _____ _____    ______ ____
ROOT
ATOM      1  O   UNL     1       1.559   3.992 -25.078  0.00  0.00    -0.455 OA
ENDROOT
BRANCH   1   2
ATOM      2  C   UNL     1       2.233   2.954 -24.683  0.00  0.00    +0.211 C 
ATOM      3  C   UNL     1       2.854   2.979 -23.541  0.00  0.00    +0.088 C 
ATOM      4  C   UNL     1       3.529   1.940 -23.145  0.00  0.00    +0.111 C 
ATOM      5  C   UNL     1       3.582   0.877 -23.890  0.00  0.00    +0.075 C 
ATOM      6  C   UNL     1       2.961   0.851 -25.032  0.00  0.00    +0.150 C 
ATOM      7  C   UNL     1       2.287   1.891 -25.428  0.00  0.00    +0.184 C 
BRANCH   4   8
ATOM      8  C   UNL     1       3.735   2.739 -22.140  0.00  0.00    +0.073 C 
ATOM      9  O   UNL     1       3.526   2.324 -20.927  0.00  0.00    -0.547 OA
ATOM     10  O   UNL     1       4.149   3.953 -22.350  0.00  0.00    -0.547 OA
ENDBRANCH   4   8
BRANCH   6  11
ATOM     11  O   UNL     1       3.014  -0.212 -25.778  0.00  0.00    -0.389 OA
ATOM     12  H   UNL     1       3.809  -0.178 -26.334  0.00  0.00    +0.210 HD
ENDBRANCH   6  11
BRANCH   4  13
ATOM     13  O   UNL     1       4.274   1.180 -22.400  0.00  0.00    -0.383 OA
ATOM     14  H   UNL     1       4.828   0.616 -22.964  0.00  0.00    +0.211 HD
ENDBRANCH   4  13
BRANCH   7  15
ATOM     15  O   UNL     1       1.666   1.865 -26.570  0.00  0.00    -0.386 OA
ATOM     16  H   UNL     1       0.821   2.336 -26.490  0.00  0.00    +0.210 HD
ENDBRANCH   7  15
ENDBRANCH   1   2
BRANCH   1  18
ATOM     17  O   UNL     1       1.315   5.687 -23.617  0.00  0.00    -0.246 OA
ATOM     18  C   UNL     1       0.825   4.653 -24.232  0.00  0.00    +0.332 C 
BRANCH  18  19
ATOM     19  C   UNL     1      -0.398   4.278 -24.003  0.00  0.00    +0.092 C 
ATOM     20  C   UNL     1      -0.925   4.461 -22.828  0.00  0.00    +0.015 C 
BRANCH  20  21
ATOM     21  C   UNL     1      -2.148   4.086 -22.598  0.00  0.00    -0.021 A 
ATOM     22  C   UNL     1      -2.518   3.781 -21.389  0.00  0.00    +0.012 A 
ATOM     23  C   UNL     1      -3.741   3.407 -21.160  0.00  0.00    +0.050 A 
ATOM     24  C   UNL     1      -4.594   3.337 -22.139  0.00  0.00    +0.158 A 
ATOM     25  C   UNL     1      -4.224   3.643 -23.347  0.00  0.00    +0.159 A 
ATOM     26  C   UNL     1      -3.000   4.018 -23.577  0.00  0.00    +0.057 A 
BRANCH  24  27
ATOM     27  O   UNL     1      -5.818   2.963 -21.909  0.00  0.00    -0.503 OA
ATOM     28  H   UNL     1      -6.081   2.728 -21.041  0.00  0.00    +0.292 HD
ENDBRANCH  24  27
BRANCH  25  29
ATOM     29  O   UNL     1      -5.077   3.574 -24.325  0.00  0.00    -0.503 OA
ATOM     30  H   UNL     1      -5.102   2.814 -24.873  0.00  0.00    +0.292 HD
ENDBRANCH  25  29
ENDBRANCH  20  21
ENDBRANCH  18  19
ENDBRANCH   1  18
TORSDOF 10
ENDMDL
MODEL 2
REMARK VINA RESULT:    -9.496      1.776      2.762
REMARK INTER + INTRA:         -14.311
REMARK INTER:                 -13.660
REMARK INTRA:                  -0.651
REMARK UNBOUND:                -0.652
REMARK  Name = ZINC000002138728
REMARK  10 active torsions:
REMARK  status: ('A' for Active; 'I' for Inactive)
REMARK    1  A    between atoms: C_2  and  C_3
REMARK    2  A    between atoms: C_2  and  O_13
REMARK    3  A    between atoms: C_4  and  C_5
REMARK    4  A    between atoms: C_8  and  O_9
REMARK    5  A    between atoms: C_10  and  O_11
REMARK    6  A    between atoms: O_13  and  C_14
REMARK    7  A    between atoms: C_16  and  O_17
REMARK    8  A    between atoms: C_16  and  C_18
REMARK    9  A    between atoms: C_22  and  O_23
REMARK   10  A    between atoms: C_24  and  O_25
REMARK                            x       y       z     vdW  Elec       q    Type
REMARK                         _______ _______ _______ _____ _____    ______ ____
ROOT
ATOM      1  O   UNL     1       0.903   1.531 -22.850  0.00  0.00    -0.455 OA
ENDROOT
BRANCH   1   2
ATOM      2  C   UNL     1       2.105   2.017 -22.933  0.00  0.00    +0.211 C 
ATOM      3  C   UNL     1       2.279   3.298 -23.073  0.00  0.00    +0.088 C 
ATOM      4  C   UNL     1       3.483   3.784 -23.156  0.00  0.00    +0.111 C 
ATOM      5  C   UNL     1       4.510   2.991 -23.099  0.00  0.00    +0.075 C 
ATOM      6  C   UNL     1       4.336   1.710 -22.959  0.00  0.00    +0.150 C 
ATOM      7  C   UNL     1       3.132   1.223 -22.876  0.00  0.00    +0.184 C 
BRANCH   4   8
ATOM      8  C   UNL     1       2.789   4.880 -23.253  0.00  0.00    +0.073 C 
ATOM      9  O   UNL     1       1.802   4.951 -24.095  0.00  0.00    -0.547 OA
ATOM     10  O   UNL     1       3.082   5.904 -22.509  0.00  0.00    -0.547 OA
ENDBRANCH   4   8
BRANCH   6  11
ATOM     11  O   UNL     1       5.363   0.916 -22.902  0.00  0.00    -0.389 OA
ATOM     12  H   UNL     1       5.846   1.071 -22.075  0.00  0.00    +0.210 HD
ENDBRANCH   6  11
BRANCH   4  13
ATOM     13  O   UNL     1       4.444   4.651 -23.272  0.00  0.00    -0.383 OA
ATOM     14  H   UNL     1       4.260   5.240 -24.021  0.00  0.00    +0.211 HD
ENDBRANCH   4  13
BRANCH   7  15
ATOM     15  O   UNL     1       2.958  -0.057 -22.736  0.00  0.00    -0.386 OA
ATOM     16  H   UNL     1       2.236  -0.219 -22.109  0.00  0.00    +0.210 HD
ENDBRANCH   7  15
ENDBRANCH   1   2
BRANCH   1  18
ATOM     17  O   UNL     1       0.963   1.289 -20.613  0.00  0.00    -0.246 OA
ATOM     18  C   UNL     1       0.290   1.502 -21.704  0.00  0.00    +0.332 C 
BRANCH  18  19
ATOM     19  C   UNL     1      -0.996   1.686 -21.649  0.00  0.00    +0.092 C 
ATOM     20  C   UNL     1      -1.539   2.676 -22.294  0.00  0.00    +0.015 C 
BRANCH  20  21
ATOM     21  C   UNL     1      -2.825   2.860 -22.239  0.00  0.00    -0.021 A 
ATOM     22  C   UNL     1      -3.494   2.465 -21.197  0.00  0.00    +0.012 A 
ATOM     23  C   UNL     1      -4.780   2.649 -21.143  0.00  0.00    +0.050 A 
ATOM     24  C   UNL     1      -5.396   3.229 -22.130  0.00  0.00    +0.158 A 
ATOM     25  C   UNL     1      -4.726   3.624 -23.172  0.00  0.00    +0.159 A 
ATOM     26  C   UNL     1      -3.440   3.440 -23.227  0.00  0.00    +0.057 A 
BRANCH  24  27
ATOM     27  O   UNL     1      -6.682   3.413 -22.076  0.00  0.00    -0.503 OA
ATOM     28  H   UNL     1      -7.096   4.007 -22.671  0.00  0.00    +0.292 HD
ENDBRANCH  24  27
BRANCH  25  29
ATOM     29  O   UNL     1      -5.342   4.204 -24.159  0.00  0.00    -0.503 OA
ATOM     30  H   UNL     1      -6.121   4.699 -23.999  0.00  0.00    +0.292 HD
ENDBRANCH  25  29
ENDBRANCH  20  21
ENDBRANCH  18  19
ENDBRANCH   1  18
TORSDOF 10
ENDMDL
MODEL 3
REMARK VINA RESULT:    -9.327      2.121      7.350
REMARK INTER + INTRA:         -14.068
REMARK INTER:                 -13.314
REMARK INTRA:                  -0.754
REMARK UNBOUND:                -0.652
REMARK  Name = ZINC000002138728
REMARK  10 active torsions:
REMARK  status: ('A' for Active; 'I' for Inactive)
REMARK    1  A    between atoms: C_2  and  C_3
REMARK    2  A    between atoms: C_2  and  O_13
REMARK    3  A    between atoms: C_4  and  C_5
REMARK    4  A    between atoms: C_8  and  O_9
REMARK    5  A    between atoms: C_10  and  O_11
REMARK    6  A    between atoms: O_13  and  C_14
REMARK    7  A    between atoms: C_16  and  O_17
REMARK    8  A    between atoms: C_16  and  C_18
REMARK    9  A    between atoms: C_22  and  O_23
REMARK   10  A    between atoms: C_24  and  O_25
REMARK                            x       y       z     vdW  Elec       q    Type
REMARK                         _______ _______ _______ _____ _____    ______ ____
ROOT
ATOM      1  O   UNL     1      -1.146   2.362 -23.933  0.00  0.00    -0.455 OA
ENDROOT
BRANCH   1   2
ATOM      2  C   UNL     1      -2.353   2.831 -23.833  0.00  0.00    +0.211 C 
ATOM      3  C   UNL     1      -2.925   2.908 -22.667  0.00  0.00    +0.088 C 
ATOM      4  C   UNL     1      -4.133   3.378 -22.566  0.00  0.00    +0.111 C 
ATOM      5  C   UNL     1      -4.769   3.770 -23.629  0.00  0.00    +0.075 C 
ATOM      6  C   UNL     1      -4.198   3.694 -24.795  0.00  0.00    +0.150 C 
ATOM      7  C   UNL     1      -2.989   3.224 -24.896  0.00  0.00    +0.184 C 
BRANCH   4   8
ATOM      8  C   UNL     1      -3.887   3.117 -21.316  0.00  0.00    +0.073 C 
ATOM      9  O   UNL     1      -3.151   3.927 -20.616  0.00  0.00    -0.547 OA
ATOM     10  O   UNL     1      -4.377   2.046 -20.767  0.00  0.00    -0.547 OA
ENDBRANCH   4   8
BRANCH   6  11
ATOM     11  O   UNL     1      -4.834   4.086 -25.858  0.00  0.00    -0.389 OA
ATOM     12  H   UNL     1      -5.713   3.678 -25.879  0.00  0.00    +0.210 HD
ENDBRANCH   6  11
BRANCH   4  13
ATOM     13  O   UNL     1      -5.255   3.757 -22.031  0.00  0.00    -0.383 OA
ATOM     14  H   UNL     1      -5.620   4.501 -22.535  0.00  0.00    +0.211 HD
ENDBRANCH   4  13
BRANCH   7  15
ATOM     15  O   UNL     1      -2.418   3.147 -26.061  0.00  0.00    -0.386 OA
ATOM     16  H   UNL     1      -1.566   2.691 -25.974  0.00  0.00    +0.210 HD
ENDBRANCH   7  15
ENDBRANCH   1   2
BRANCH   1  18
ATOM     17  O   UNL     1      -0.038   4.312 -23.739  0.00  0.00    -0.246 OA
ATOM     18  C   UNL     1      -0.141   3.045 -23.470  0.00  0.00    +0.332 C 
BRANCH  18  19
ATOM     19  C   UNL     1       0.760   2.460 -22.737  0.00  0.00    +0.092 C 
ATOM     20  C   UNL     1       1.963   2.289 -23.200  0.00  0.00    +0.015 C 
BRANCH  20  21
ATOM     21  C   UNL     1       2.864   1.704 -22.468  0.00  0.00    -0.021 A 
ATOM     22  C   UNL     1       2.532   1.174 -21.328  0.00  0.00    +0.012 A 
ATOM     23  C   UNL     1       3.433   0.589 -20.597  0.00  0.00    +0.050 A 
ATOM     24  C   UNL     1       4.666   0.535 -21.004  0.00  0.00    +0.158 A 
ATOM     25  C   UNL     1       4.998   1.065 -22.144  0.00  0.00    +0.159 A 
ATOM     26  C   UNL     1       4.097   1.650 -22.876  0.00  0.00    +0.057 A 
BRANCH  24  27
ATOM     27  O   UNL     1       5.567  -0.050 -20.272  0.00  0.00    -0.503 OA
ATOM     28  H   UNL     1       5.431  -0.928 -19.973  0.00  0.00    +0.292 HD
ENDBRANCH  24  27
BRANCH  25  29
ATOM     29  O   UNL     1       6.232   1.010 -22.551  0.00  0.00    -0.503 OA
ATOM     30  H   UNL     1       6.668   0.183 -22.615  0.00  0.00    +0.292 HD
ENDBRANCH  25  29
ENDBRANCH  20  21
ENDBRANCH  18  19
ENDBRANCH   1  18
TORSDOF 10
ENDMDL
MODEL 4
REMARK VINA RESULT:    -9.079      2.366      7.733
REMARK INTER + INTRA:         -13.712
REMARK INTER:                 -13.305
REMARK INTRA:                  -0.407
REMARK UNBOUND:                -0.652
REMARK  Name = ZINC000002138728
REMARK  10 active torsions:
REMARK  status: ('A' for Active; 'I' for Inactive)
REMARK    1  A    between atoms: C_2  and  C_3
REMARK    2  A    between atoms: C_2  and  O_13
REMARK    3  A    between atoms: C_4  and  C_5
REMARK    4  A    between atoms: C_8  and  O_9
REMARK    5  A    between atoms: C_10  and  O_11
REMARK    6  A    between atoms: O_13  and  C_14
REMARK    7  A    between atoms: C_16  and  O_17
REMARK    8  A    between atoms: C_16  and  C_18
REMARK    9  A    between atoms: C_22  and  O_23
REMARK   10  A    between atoms: C_24  and  O_25
REMARK                            x       y       z     vdW  Elec       q    Type
REMARK                         _______ _______ _______ _____ _____    ______ ____
ROOT
ATOM      1  O   UNL     1      -1.468   3.410 -22.268  0.00  0.00    -0.455 OA
ENDROOT
BRANCH   1   2
ATOM      2  C   UNL     1      -2.554   3.496 -22.977  0.00  0.00    +0.211 C 
ATOM      3  C   UNL     1      -2.483   3.500 -24.275  0.00  0.00    +0.088 C 
ATOM      4  C   UNL     1      -3.569   3.585 -24.985  0.00  0.00    +0.111 C 
ATOM      5  C   UNL     1      -4.725   3.667 -24.397  0.00  0.00    +0.075 C 
ATOM      6  C   UNL     1      -4.796   3.663 -23.099  0.00  0.00    +0.150 C 
ATOM      7  C   UNL     1      -3.710   3.577 -22.389  0.00  0.00    +0.184 C 
BRANCH   4   8
ATOM      8  C   UNL     1      -2.683   3.526 -25.935  0.00  0.00    +0.073 C 
ATOM      9  O   UNL     1      -1.417   3.507 -25.641  0.00  0.00    -0.547 OA
ATOM     10  O   UNL     1      -3.063   3.487 -27.176  0.00  0.00    -0.547 OA
ENDBRANCH   4   8
BRANCH   6  11
ATOM     11  O   UNL     1      -5.952   3.744 -22.511  0.00  0.00    -0.389 OA
ATOM     12  H   UNL     1      -5.870   4.279 -21.706  0.00  0.00    +0.210 HD
ENDBRANCH   6  11
BRANCH   4  13
ATOM     13  O   UNL     1      -4.347   3.650 -26.024  0.00  0.00    -0.383 OA
ATOM     14  H   UNL     1      -3.959   4.249 -26.682  0.00  0.00    +0.211 HD
ENDBRANCH   4  13
BRANCH   7  15
ATOM     15  O   UNL     1      -3.781   3.573 -21.091  0.00  0.00    -0.386 OA
ATOM     16  H   UNL     1      -3.831   4.486 -20.766  0.00  0.00    +0.210 HD
ENDBRANCH   7  15
ENDBRANCH   1   2
BRANCH   1  18
ATOM     17  O   UNL     1      -1.653   1.293 -21.526  0.00  0.00    -0.246 OA
ATOM     18  C   UNL     1      -0.933   2.249 -22.034  0.00  0.00    +0.332 C 
BRANCH  18  19
ATOM     19  C   UNL     1       0.321   2.043 -22.307  0.00  0.00    +0.092 C 
ATOM     20  C   UNL     1       1.098   1.492 -21.422  0.00  0.00    +0.015 C 
BRANCH  20  21
ATOM     21  C   UNL     1       2.352   1.287 -21.695  0.00  0.00    -0.021 A 
ATOM     22  C   UNL     1       2.757   1.289 -22.930  0.00  0.00    +0.012 A 
ATOM     23  C   UNL     1       4.010   1.084 -23.203  0.00  0.00    +0.050 A 
ATOM     24  C   UNL     1       4.860   0.877 -22.241  0.00  0.00    +0.158 A 
ATOM     25  C   UNL     1       4.455   0.875 -21.005  0.00  0.00    +0.159 A 
ATOM     26  C   UNL     1       3.201   1.081 -20.732  0.00  0.00    +0.057 A 
BRANCH  24  27
ATOM     27  O   UNL     1       6.115   0.671 -22.514  0.00  0.00    -0.503 OA
ATOM     28  H   UNL     1       6.736   1.365 -22.411  0.00  0.00    +0.292 HD
ENDBRANCH  24  27
BRANCH  25  29
ATOM     29  O   UNL     1       5.305   0.668 -20.043  0.00  0.00    -0.503 OA
ATOM     30  H   UNL     1       5.542   1.370 -19.469  0.00  0.00    +0.292 HD
ENDBRANCH  25  29
ENDBRANCH  20  21
ENDBRANCH  18  19
ENDBRANCH   1  18
TORSDOF 10
ENDMDL
MODEL 5
REMARK VINA RESULT:    -9.033      2.537      7.191
REMARK INTER + INTRA:         -13.645
REMARK INTER:                 -13.287
REMARK INTRA:                  -0.358
REMARK UNBOUND:                -0.652
REMARK  Name = ZINC000002138728
REMARK  10 active torsions:
REMARK  status: ('A' for Active; 'I' for Inactive)
REMARK    1  A    between atoms: C_2  and  C_3
REMARK    2  A    between atoms: C_2  and  O_13
REMARK    3  A    between atoms: C_4  and  C_5
REMARK    4  A    between atoms: C_8  and  O_9
REMARK    5  A    between atoms: C_10  and  O_11
REMARK    6  A    between atoms: O_13  and  C_14
REMARK    7  A    between atoms: C_16  and  O_17
REMARK    8  A    between atoms: C_16  and  C_18
REMARK    9  A    between atoms: C_22  and  O_23
REMARK   10  A    between atoms: C_24  and  O_25
REMARK                            x       y       z     vdW  Elec       q    Type
REMARK                         _______ _______ _______ _____ _____    ______ ____
ROOT
ATOM      1  O   UNL     1      -1.415   2.102 -23.724  0.00  0.00    -0.455 OA
ENDROOT
BRANCH   1   2
ATOM      2  C   UNL     1      -2.532   2.743 -23.893  0.00  0.00    +0.211 C 
ATOM      3  C   UNL     1      -3.358   2.881 -22.899  0.00  0.00    +0.088 C 
ATOM      4  C   UNL     1      -4.478   3.522 -23.068  0.00  0.00    +0.111 C 
ATOM      5  C   UNL     1      -4.770   4.024 -24.230  0.00  0.00    +0.075 C 
ATOM      6  C   UNL     1      -3.944   3.886 -25.225  0.00  0.00    +0.150 C 
ATOM      7  C   UNL     1      -2.824   3.245 -25.055  0.00  0.00    +0.184 C 
BRANCH   4   8
ATOM      8  C   UNL     1      -4.587   3.203 -21.812  0.00  0.00    +0.073 C 
ATOM      9  O   UNL     1      -3.896   3.844 -20.917  0.00  0.00    -0.547 OA
ATOM     10  O   UNL     1      -5.387   2.245 -21.452  0.00  0.00    -0.547 OA
ENDBRANCH   4   8
BRANCH   6  11
ATOM     11  O   UNL     1      -4.236   4.388 -26.387  0.00  0.00    -0.389 OA
ATOM     12  H   UNL     1      -4.418   3.671 -27.013  0.00  0.00    +0.210 HD
ENDBRANCH   6  11
BRANCH   4  13
ATOM     13  O   UNL     1      -5.634   4.052 -22.800  0.00  0.00    -0.383 OA
ATOM     14  H   UNL     1      -5.929   3.758 -21.924  0.00  0.00    +0.211 HD
ENDBRANCH   4  13
BRANCH   7  15
ATOM     15  O   UNL     1      -1.998   3.107 -26.050  0.00  0.00    -0.386 OA
ATOM     16  H   UNL     1      -1.155   2.755 -25.724  0.00  0.00    +0.210 HD
ENDBRANCH   7  15
ENDBRANCH   1   2
BRANCH   1  18
ATOM     17  O   UNL     1      -1.402   1.555 -21.540  0.00  0.00    -0.246 OA
ATOM     18  C   UNL     1      -0.827   2.113 -22.564  0.00  0.00    +0.332 C 
BRANCH  18  19
ATOM     19  C   UNL     1       0.334   2.682 -22.428  0.00  0.00    +0.092 C 
ATOM     20  C   UNL     1       0.872   3.310 -23.432  0.00  0.00    +0.015 C 
BRANCH  20  21
ATOM     21  C   UNL     1       2.033   3.878 -23.296  0.00  0.00    -0.021 A 
ATOM     22  C   UNL     1       3.116   3.162 -23.342  0.00  0.00    +0.012 A 
ATOM     23  C   UNL     1       4.277   3.731 -23.206  0.00  0.00    +0.050 A 
ATOM     24  C   UNL     1       4.354   5.017 -23.025  0.00  0.00    +0.158 A 
ATOM     25  C   UNL     1       3.270   5.732 -22.980  0.00  0.00    +0.159 A 
ATOM     26  C   UNL     1       2.109   5.163 -23.115  0.00  0.00    +0.057 A 
BRANCH  24  27
ATOM     27  O   UNL     1       5.515   5.586 -22.890  0.00  0.00    -0.503 OA
ATOM     28  H   UNL     1       6.298   5.073 -22.946  0.00  0.00    +0.292 HD
ENDBRANCH  24  27
BRANCH  25  29
ATOM     29  O   UNL     1       3.347   7.018 -22.799  0.00  0.00    -0.503 OA
ATOM     30  H   UNL     1       2.637   7.571 -23.058  0.00  0.00    +0.292 HD
ENDBRANCH  25  29
ENDBRANCH  20  21
ENDBRANCH  18  19
ENDBRANCH   1  18
TORSDOF 10
ENDMDL
MODEL 6
REMARK VINA RESULT:    -9.018      1.170      2.545
REMARK INTER + INTRA:         -13.624
REMARK INTER:                 -12.903
REMARK INTRA:                  -0.720
REMARK UNBOUND:                -0.652
REMARK  Name = ZINC000002138728
REMARK  10 active torsions:
REMARK  status: ('A' for Active; 'I' for Inactive)
REMARK    1  A    between atoms: C_2  and  C_3
REMARK    2  A    between atoms: C_2  and  O_13
REMARK    3  A    between atoms: C_4  and  C_5
REMARK    4  A    between atoms: C_8  and  O_9
REMARK    5  A    between atoms: C_10  and  O_11
REMARK    6  A    between atoms: O_13  and  C_14
REMARK    7  A    between atoms: C_16  and  O_17
REMARK    8  A    between atoms: C_16  and  C_18
REMARK    9  A    between atoms: C_22  and  O_23
REMARK   10  A    between atoms: C_24  and  O_25
REMARK                            x       y       z     vdW  Elec       q    Type
REMARK                         _______ _______ _______ _____ _____    ______ ____
ROOT
ATOM      1  O   UNL     1       1.532   4.637 -23.315  0.00  0.00    -0.455 OA
ENDROOT
BRANCH   1   2
ATOM      2  C   UNL     1       2.655   3.985 -23.278  0.00  0.00    +0.211 C 
ATOM      3  C   UNL     1       2.669   2.704 -23.496  0.00  0.00    +0.088 C 
ATOM      4  C   UNL     1       3.794   2.051 -23.459  0.00  0.00    +0.111 C 
ATOM      5  C   UNL     1       4.902   2.680 -23.205  0.00  0.00    +0.075 C 
ATOM      6  C   UNL     1       4.888   3.961 -22.988  0.00  0.00    +0.150 C 
ATOM      7  C   UNL     1       3.764   4.614 -23.025  0.00  0.00    +0.184 C 
BRANCH   4   8
ATOM      8  C   UNL     1       2.976   1.077 -23.734  0.00  0.00    +0.073 C 
ATOM      9  O   UNL     1       2.751   0.150 -22.852  0.00  0.00    -0.547 OA
ATOM     10  O   UNL     1       2.385   1.032 -24.889  0.00  0.00    -0.547 OA
ENDBRANCH   4   8
BRANCH   6  11
ATOM     11  O   UNL     1       5.997   4.590 -22.734  0.00  0.00    -0.389 OA
ATOM     12  H   UNL     1       5.925   5.509 -23.036  0.00  0.00    +0.210 HD
ENDBRANCH   6  11
BRANCH   4  13
ATOM     13  O   UNL     1       4.633   1.060 -23.518  0.00  0.00    -0.383 OA
ATOM     14  H   UNL     1       4.306   0.326 -22.975  0.00  0.00    +0.211 HD
ENDBRANCH   4  13
BRANCH   7  15
ATOM     15  O   UNL     1       3.750   5.896 -22.807  0.00  0.00    -0.386 OA
ATOM     16  H   UNL     1       3.873   6.368 -23.646  0.00  0.00    +0.210 HD
ENDBRANCH   7  15
ENDBRANCH   1   2
BRANCH   1  18
ATOM     17  O   UNL     1       1.135   4.417 -25.520  0.00  0.00    -0.246 OA
ATOM     18  C   UNL     1       0.700   4.446 -24.296  0.00  0.00    +0.332 C 
BRANCH  18  19
ATOM     19  C   UNL     1      -0.567   4.283 -24.052  0.00  0.00    +0.092 C 
ATOM     20  C   UNL     1      -0.959   3.913 -22.868  0.00  0.00    +0.015 C 
BRANCH  20  21
ATOM     21  C   UNL     1      -2.225   3.750 -22.624  0.00  0.00    -0.021 A 
ATOM     22  C   UNL     1      -2.630   3.540 -21.407  0.00  0.00    +0.012 A 
ATOM     23  C   UNL     1      -3.897   3.377 -21.164  0.00  0.00    +0.050 A 
ATOM     24  C   UNL     1      -4.758   3.425 -22.137  0.00  0.00    +0.158 A 
ATOM     25  C   UNL     1      -4.352   3.635 -23.354  0.00  0.00    +0.159 A 
ATOM     26  C   UNL     1      -3.085   3.798 -23.598  0.00  0.00    +0.057 A 
BRANCH  24  27
ATOM     27  O   UNL     1      -6.024   3.262 -21.893  0.00  0.00    -0.503 OA
ATOM     28  H   UNL     1      -6.433   3.742 -21.199  0.00  0.00    +0.292 HD
ENDBRANCH  24  27
BRANCH  25  29
ATOM     29  O   UNL     1      -5.213   3.683 -24.327  0.00  0.00    -0.503 OA
ATOM     30  H   UNL     1      -5.983   3.150 -24.297  0.00  0.00    +0.292 HD
ENDBRANCH  25  29
ENDBRANCH  20  21
ENDBRANCH  18  19
ENDBRANCH   1  18
TORSDOF 10
ENDMDL
MODEL 7
REMARK VINA RESULT:    -8.933      1.525      2.681
REMARK INTER + INTRA:         -13.502
REMARK INTER:                 -12.611
REMARK INTRA:                  -0.891
REMARK UNBOUND:                -0.652
REMARK  Name = ZINC000002138728
REMARK  10 active torsions:
REMARK  status: ('A' for Active; 'I' for Inactive)
REMARK    1  A    between atoms: C_2  and  C_3
REMARK    2  A    between atoms: C_2  and  O_13
REMARK    3  A    between atoms: C_4  and  C_5
REMARK    4  A    between atoms: C_8  and  O_9
REMARK    5  A    between atoms: C_10  and  O_11
REMARK    6  A    between atoms: O_13  and  C_14
REMARK    7  A    between atoms: C_16  and  O_17
REMARK    8  A    between atoms: C_16  and  C_18
REMARK    9  A    between atoms: C_22  and  O_23
REMARK   10  A    between atoms: C_24  and  O_25
REMARK                            x       y       z     vdW  Elec       q    Type
REMARK                         _______ _______ _______ _____ _____    ______ ____
ROOT
ATOM      1  O   UNL     1       2.195   1.616 -24.605  0.00  0.00    -0.455 OA
ENDROOT
BRANCH   1   2
ATOM      2  C   UNL     1       2.957   1.690 -23.556  0.00  0.00    +0.211 C 
ATOM      3  C   UNL     1       3.683   2.750 -23.354  0.00  0.00    +0.088 C 
ATOM      4  C   UNL     1       4.447   2.824 -22.303  0.00  0.00    +0.111 C 
ATOM      5  C   UNL     1       4.483   1.840 -21.456  0.00  0.00    +0.075 C 
ATOM      6  C   UNL     1       3.758   0.780 -21.657  0.00  0.00    +0.150 C 
ATOM      7  C   UNL     1       2.994   0.706 -22.708  0.00  0.00    +0.184 C 
BRANCH   4   8
ATOM      8  C   UNL     1       4.706   3.974 -22.853  0.00  0.00    +0.073 C 
ATOM      9  O   UNL     1       5.822   4.150 -23.494  0.00  0.00    -0.547 OA
ATOM     10  O   UNL     1       3.849   4.946 -22.761  0.00  0.00    -0.547 OA
ENDBRANCH   4   8
BRANCH   6  11
ATOM     11  O   UNL     1       3.794  -0.204 -20.810  0.00  0.00    -0.389 OA
ATOM     12  H   UNL     1       2.890  -0.468 -20.580  0.00  0.00    +0.210 HD
ENDBRANCH   6  11
BRANCH   4  13
ATOM     13  O   UNL     1       5.299   3.298 -21.445  0.00  0.00    -0.383 OA
ATOM     14  H   UNL     1       5.122   2.918 -20.569  0.00  0.00    +0.211 HD
ENDBRANCH   4  13
BRANCH   7  15
ATOM     15  O   UNL     1       2.269  -0.354 -22.910  0.00  0.00    -0.386 OA
ATOM     16  H   UNL     1       1.568  -0.149 -23.549  0.00  0.00    +0.210 HD
ENDBRANCH   7  15
ENDBRANCH   1   2
BRANCH   1  18
ATOM     17  O   UNL     1       1.561   3.434 -25.774  0.00  0.00    -0.246 OA
ATOM     18  C   UNL     1       1.326   2.553 -24.846  0.00  0.00    +0.332 C 
BRANCH  18  19
ATOM     19  C   UNL     1       0.223   2.609 -24.161  0.00  0.00    +0.092 C 
ATOM     20  C   UNL     1      -0.705   3.459 -24.490  0.00  0.00    +0.015 C 
BRANCH  20  21
ATOM     21  C   UNL     1      -1.807   3.515 -23.804  0.00  0.00    -0.021 A 
ATOM     22  C   UNL     1      -2.954   3.500 -24.416  0.00  0.00    +0.012 A 
ATOM     23  C   UNL     1      -4.057   3.556 -23.729  0.00  0.00    +0.050 A 
ATOM     24  C   UNL     1      -4.012   3.627 -22.432  0.00  0.00    +0.158 A 
ATOM     25  C   UNL     1      -2.865   3.642 -21.821  0.00  0.00    +0.159 A 
ATOM     26  C   UNL     1      -1.762   3.586 -22.507  0.00  0.00    +0.057 A 
BRANCH  24  27
ATOM     27  O   UNL     1      -5.115   3.683 -21.746  0.00  0.00    -0.503 OA
ATOM     28  H   UNL     1      -5.259   3.085 -21.039  0.00  0.00    +0.292 HD
ENDBRANCH  24  27
BRANCH  25  29
ATOM     29  O   UNL     1      -2.821   3.713 -20.523  0.00  0.00    -0.503 OA
ATOM     30  H   UNL     1      -3.599   3.574 -20.020  0.00  0.00    +0.292 HD
ENDBRANCH  25  29
ENDBRANCH  20  21
ENDBRANCH  18  19
ENDBRANCH   1  18
TORSDOF 10
ENDMDL
MODEL 8
REMARK VINA RESULT:    -8.720      1.987      3.579
REMARK INTER + INTRA:         -13.195
REMARK INTER:                 -12.422
REMARK INTRA:                  -0.772
REMARK UNBOUND:                -0.652
REMARK  Name = ZINC000002138728
REMARK  10 active torsions:
REMARK  status: ('A' for Active; 'I' for Inactive)
REMARK    1  A    between atoms: C_2  and  C_3
REMARK    2  A    between atoms: C_2  and  O_13
REMARK    3  A    between atoms: C_4  and  C_5
REMARK    4  A    between atoms: C_8  and  O_9
REMARK    5  A    between atoms: C_10  and  O_11
REMARK    6  A    between atoms: O_13  and  C_14
REMARK    7  A    between atoms: C_16  and  O_17
REMARK    8  A    between atoms: C_16  and  C_18
REMARK    9  A    between atoms: C_22  and  O_23
REMARK   10  A    between atoms: C_24  and  O_25
REMARK                            x       y       z     vdW  Elec       q    Type
REMARK                         _______ _______ _______ _____ _____    ______ ____
ROOT
ATOM      1  O   UNL     1       0.680   2.169 -21.278  0.00  0.00    -0.455 OA
ENDROOT
BRANCH   1   2
ATOM      2  C   UNL     1       1.843   1.720 -21.645  0.00  0.00    +0.211 C 
ATOM      3  C   UNL     1       2.197   1.781 -22.894  0.00  0.00    +0.088 C 
ATOM      4  C   UNL     1       3.361   1.332 -23.262  0.00  0.00    +0.111 C 
ATOM      5  C   UNL     1       4.169   0.823 -22.381  0.00  0.00    +0.075 C 
ATOM      6  C   UNL     1       3.815   0.762 -21.132  0.00  0.00    +0.150 C 
ATOM      7  C   UNL     1       2.651   1.211 -20.764  0.00  0.00    +0.184 C 
BRANCH   4   8
ATOM      8  C   UNL     1       2.901   1.735 -24.410  0.00  0.00    +0.073 C 
ATOM      9  O   UNL     1       2.550   0.866 -25.310  0.00  0.00    -0.547 OA
ATOM     10  O   UNL     1       2.791   3.006 -24.657  0.00  0.00    -0.547 OA
ENDBRANCH   4   8
BRANCH   6  11
ATOM     11  O   UNL     1       4.623   0.253 -20.251  0.00  0.00    -0.389 OA
ATOM     12  H   UNL     1       5.179  -0.421 -20.673  0.00  0.00    +0.210 HD
ENDBRANCH   6  11
BRANCH   4  13
ATOM     13  O   UNL     1       4.364   1.024 -24.029  0.00  0.00    -0.383 OA
ATOM     14  H   UNL     1       5.190   1.324 -23.618  0.00  0.00    +0.211 HD
ENDBRANCH   4  13
BRANCH   7  15
ATOM     15  O   UNL     1       2.297   1.150 -19.515  0.00  0.00    -0.386 OA
ATOM     16  H   UNL     1       1.343   0.984 -19.457  0.00  0.00    +0.210 HD
ENDBRANCH   7  15
ENDBRANCH   1   2
BRANCH   1  18
ATOM     17  O   UNL     1      -0.500   0.354 -21.895  0.00  0.00    -0.246 OA
ATOM     18  C   UNL     1      -0.405   1.644 -21.766  0.00  0.00    +0.332 C 
BRANCH  18  19
ATOM     19  C   UNL     1      -1.393   2.408 -22.125  0.00  0.00    +0.092 C 
ATOM     20  C   UNL     1      -1.814   2.393 -23.355  0.00  0.00    +0.015 C 
BRANCH  20  21
ATOM     21  C   UNL     1      -2.802   3.157 -23.713  0.00  0.00    -0.021 A 
ATOM     22  C   UNL     1      -2.672   3.951 -24.735  0.00  0.00    +0.012 A 
ATOM     23  C   UNL     1      -3.661   4.715 -25.093  0.00  0.00    +0.050 A 
ATOM     24  C   UNL     1      -4.779   4.685 -24.430  0.00  0.00    +0.158 A 
ATOM     25  C   UNL     1      -4.908   3.892 -23.409  0.00  0.00    +0.159 A 
ATOM     26  C   UNL     1      -3.920   3.127 -23.050  0.00  0.00    +0.057 A 
BRANCH  24  27
ATOM     27  O   UNL     1      -5.768   5.450 -24.789  0.00  0.00    -0.503 OA
ATOM     28  H   UNL     1      -5.766   5.853 -25.635  0.00  0.00    +0.292 HD
ENDBRANCH  24  27
BRANCH  25  29
ATOM     29  O   UNL     1      -6.026   3.863 -22.746  0.00  0.00    -0.503 OA
ATOM     30  H   UNL     1      -6.151   4.431 -22.012  0.00  0.00    +0.292 HD
ENDBRANCH  25  29
ENDBRANCH  20  21
ENDBRANCH  18  19
ENDBRANCH   1  18
TORSDOF 10
ENDMDL
MODEL 9
REMARK VINA RESULT:    -8.203      1.680      2.955
REMARK INTER + INTRA:         -12.452
REMARK INTER:                 -11.800
REMARK INTRA:                  -0.652
REMARK UNBOUND:                -0.652
REMARK  Name = ZINC000002138728
REMARK  10 active torsions:
REMARK  status: ('A' for Active; 'I' for Inactive)
REMARK    1  A    between atoms: C_2  and  C_3
REMARK    2  A    between atoms: C_2  and  O_13
REMARK    3  A    between atoms: C_4  and  C_5
REMARK    4  A    between atoms: C_8  and  O_9
REMARK    5  A    between atoms: C_10  and  O_11
REMARK    6  A    between atoms: O_13  and  C_14
REMARK    7  A    between atoms: C_16  and  O_17
REMARK    8  A    between atoms: C_16  and  C_18
REMARK    9  A    between atoms: C_22  and  O_23
REMARK   10  A    between atoms: C_24  and  O_25
REMARK                            x       y       z     vdW  Elec       q    Type
REMARK                         _______ _______ _______ _____ _____    ______ ____
ROOT
ATOM      1  O   UNL     1       2.421   3.960 -23.027  0.00  0.00    -0.455 OA
ENDROOT
BRANCH   1   2
ATOM      2  C   UNL     1       3.493   3.301 -22.702  0.00  0.00    +0.211 C 
ATOM      3  C   UNL     1       3.393   2.104 -22.206  0.00  0.00    +0.088 C 
ATOM      4  C   UNL     1       4.466   1.444 -21.880  0.00  0.00    +0.111 C 
ATOM      5  C   UNL     1       5.636   1.982 -22.050  0.00  0.00    +0.075 C 
ATOM      6  C   UNL     1       5.736   3.179 -22.546  0.00  0.00    +0.150 C 
ATOM      7  C   UNL     1       4.663   3.839 -22.872  0.00  0.00    +0.184 C 
BRANCH   4   8
ATOM      8  C   UNL     1       3.557   0.571 -21.557  0.00  0.00    +0.073 C 
ATOM      9  O   UNL     1       3.461   0.157 -20.330  0.00  0.00    -0.547 OA
ATOM     10  O   UNL     1       2.745   0.114 -22.463  0.00  0.00    -0.547 OA
ENDBRANCH   4   8
BRANCH   6  11
ATOM     11  O   UNL     1       6.907   3.717 -22.716  0.00  0.00    -0.389 OA
ATOM     12  H   UNL     1       7.588   3.133 -22.349  0.00  0.00    +0.210 HD
ENDBRANCH   6  11
BRANCH   4  13
ATOM     13  O   UNL     1       5.222   0.482 -21.442  0.00  0.00    -0.383 OA
ATOM     14  H   UNL     1       5.333   0.568 -20.482  0.00  0.00    +0.211 HD
ENDBRANCH   4  13
BRANCH   7  15
ATOM     15  O   UNL     1       4.763   5.036 -23.368  0.00  0.00    -0.386 OA
ATOM     16  H   UNL     1       5.684   5.207 -23.620  0.00  0.00    +0.210 HD
ENDBRANCH   7  15
ENDBRANCH   1   2
BRANCH   1  18
ATOM     17  O   UNL     1       1.652   2.836 -24.820  0.00  0.00    -0.246 OA
ATOM     18  C   UNL     1       1.449   3.357 -23.647  0.00  0.00    +0.332 C 
BRANCH  18  19
ATOM     19  C   UNL     1       0.276   3.276 -23.093  0.00  0.00    +0.092 C 
ATOM     20  C   UNL     1      -0.759   3.799 -23.682  0.00  0.00    +0.015 C 
BRANCH  20  21
ATOM     21  C   UNL     1      -1.932   3.718 -23.128  0.00  0.00    -0.021 A 
ATOM     22  C   UNL     1      -2.985   3.521 -23.864  0.00  0.00    +0.012 A 
ATOM     23  C   UNL     1      -4.158   3.440 -23.309  0.00  0.00    +0.050 A 
ATOM     24  C   UNL     1      -4.278   3.556 -22.020  0.00  0.00    +0.158 A 
ATOM     25  C   UNL     1      -3.224   3.753 -21.285  0.00  0.00    +0.159 A 
ATOM     26  C   UNL     1      -2.050   3.834 -21.839  0.00  0.00    +0.057 A 
BRANCH  24  27
ATOM     27  O   UNL     1      -5.451   3.475 -21.466  0.00  0.00    -0.503 OA
ATOM     28  H   UNL     1      -6.103   2.908 -21.830  0.00  0.00    +0.292 HD
ENDBRANCH  24  27
BRANCH  25  29
ATOM     29  O   UNL     1      -3.343   3.869 -19.995  0.00  0.00    -0.503 OA
ATOM     30  H   UNL     1      -4.170   3.709 -19.586  0.00  0.00    +0.292 HD
ENDBRANCH  25  29
ENDBRANCH  20  21
ENDBRANCH  18  19
ENDBRANCH   1  18
TORSDOF 10
ENDMDL
