MODEL 1
REMARK VINA RESULT:    -8.681      0.000      0.000
REMARK INTER + INTRA:         -13.960
REMARK INTER:                 -12.519
REMARK INTRA:                  -1.441
REMARK UNBOUND:                -0.711
REMARK  Name = ZINC000001575538
REMARK  9 active torsions:
REMARK  status: ('A' for Active; 'I' for Inactive)
REMARK    1  A    between atoms: C_2  and  C_3
REMARK    2  A    between atoms: C_3  and  N_4
REMARK    3  A    between atoms: C_5  and  O_7
REMARK    4  A    between atoms: O_7  and  C_8
REMARK    5  A    between atoms: C_8  and  C_9
REMARK    6  A    between atoms: N_15  and  CA_16
REMARK    7  A    between atoms: CA_16  and  CB_17
REMARK    8  A    between atoms: CA_16  and  C_24
REMARK    9  A    between atoms: CB_17  and  CG_18
REMARK                            x       y       z     vdW  Elec       q    Type
REMARK                         _______ _______ _______ _____ _____    ______ ____
ROOT
ATOM      1  O   UNK A   0       5.295   0.706 -22.279  0.00  0.00    -0.274 OA
ATOM      2  C   UNK A   0       4.516   1.305 -21.426  0.00  0.00    +0.231 C 
ATOM      3  N   PHE A   1       4.557   2.598 -21.306  0.00  0.00    -0.306 N 
ATOM      4  H   PHE A   1       3.967   3.052 -20.661  0.00  0.00    +0.149 HD
ENDROOT
BRANCH   3   5
ATOM      5  CA  PHE A   1       5.376   3.294 -22.038  0.00  0.00    +0.123 C 
BRANCH   5   6
ATOM      6  C   PHE A   1       6.538   3.636 -21.565  0.00  0.00    +0.062 C 
ATOM      7  OXT PHE A   1       7.552   3.771 -22.367  0.00  0.00    -0.548 OA
ATOM      8  O   PHE A   1       6.685   3.842 -20.290  0.00  0.00    -0.548 OA
ENDBRANCH   5   6
BRANCH   5   9
ATOM      9  CB  PHE A   1       5.034   3.648 -23.241  0.00  0.00    +0.063 C 
BRANCH   9  10
ATOM     10  CG  PHE A   1       3.810   4.007 -23.489  0.00  0.00    -0.045 A 
ATOM     11  CD2 PHE A   1       3.028   3.229 -24.174  0.00  0.00    +0.004 A 
ATOM     12  CE2 PHE A   1       1.804   3.586 -24.423  0.00  0.00    +0.000 A 
ATOM     13  CZ  PHE A   1       1.359   4.729 -23.984  0.00  0.00    +0.000 A 
ATOM     14  CE1 PHE A   1       2.141   5.507 -23.298  0.00  0.00    +0.000 A 
ATOM     15  CD1 PHE A   1       3.365   5.150 -23.049  0.00  0.00    +0.004 A 
ENDBRANCH   9  10
ENDBRANCH   5   9
ENDBRANCH   3   5
BRANCH   2  16
ATOM     16  C   UNK A   0       3.697   0.609 -20.695  0.00  0.00    +0.203 C 
BRANCH  16  17
ATOM     17  N   UNK A   0       2.526   1.086 -20.397  0.00  0.00    -0.273 N 
ATOM     18  H   UNK A   0       2.361   1.467 -19.504  0.00  0.00    +0.153 HD
ATOM     19  C   UNK A   0       1.571   1.061 -21.279  0.00  0.00    +0.401 C 
ATOM     20  O   UNK A   0       1.787   0.559 -22.458  0.00  0.00    -0.226 OA
BRANCH  19  21
ATOM     21  O   UNK A   0       0.399   1.538 -20.980  0.00  0.00    -0.446 OA
BRANCH  21  22
ATOM     22  C   UNK A   0      -0.615   1.305 -21.760  0.00  0.00    +0.269 C 
BRANCH  22  23
ATOM     23  C   UNK A   0      -1.173   2.282 -22.410  0.00  0.00    -0.010 A 
ATOM     24  C   UNK A   0      -1.414   3.411 -21.806  0.00  0.00    +0.007 A 
ATOM     25  C   UNK A   0      -1.972   4.387 -22.457  0.00  0.00    +0.000 A 
ATOM     26  C   UNK A   0      -2.290   4.241 -23.709  0.00  0.00    +0.000 A 
ATOM     27  C   UNK A   0      -2.048   3.112 -24.313  0.00  0.00    +0.000 A 
ATOM     28  C   UNK A   0      -1.490   2.136 -23.661  0.00  0.00    +0.007 A 
ENDBRANCH  22  23
ENDBRANCH  21  22
ENDBRANCH  19  21
ENDBRANCH  16  17
ENDBRANCH   2  16
TORSDOF 9
ENDMDL
MODEL 2
REMARK VINA RESULT:    -8.607      2.462      4.173
REMARK INTER + INTRA:         -13.847
REMARK INTER:                 -13.199
REMARK INTRA:                  -0.648
REMARK UNBOUND:                -0.711
REMARK  Name = ZINC000001575538
REMARK  9 active torsions:
REMARK  status: ('A' for Active; 'I' for Inactive)
REMARK    1  A    between atoms: C_2  and  C_3
REMARK    2  A    between atoms: C_3  and  N_4
REMARK    3  A    between atoms: C_5  and  O_7
REMARK    4  A    between atoms: O_7  and  C_8
REMARK    5  A    between atoms: C_8  and  C_9
REMARK    6  A    between atoms: N_15  and  CA_16
REMARK    7  A    between atoms: CA_16  and  CB_17
REMARK    8  A    between atoms: CA_16  and  C_24
REMARK    9  A    between atoms: CB_17  and  CG_18
REMARK                            x       y       z     vdW  Elec       q    Type
REMARK                         _______ _______ _______ _____ _____    ______ ____
ROOT
ATOM      1  O   UNK A   0       2.650   0.771 -24.997  0.00  0.00    -0.274 OA
ATOM      2  C   UNK A   0       2.244   1.936 -24.584  0.00  0.00    +0.231 C 
ATOM      3  N   PHE A   1       2.574   2.356 -23.400  0.00  0.00    -0.306 N 
ATOM      4  H   PHE A   1       2.267   3.238 -23.088  0.00  0.00    +0.149 HD
ENDROOT
BRANCH   3   5
ATOM      5  CA  PHE A   1       3.309   1.613 -22.627  0.00  0.00    +0.123 C 
BRANCH   5   6
ATOM      6  C   PHE A   1       2.765   0.969 -21.637  0.00  0.00    +0.062 C 
ATOM      7  OXT PHE A   1       1.590   1.317 -21.202  0.00  0.00    -0.548 OA
ATOM      8  O   PHE A   1       3.396  -0.023 -21.083  0.00  0.00    -0.548 OA
ENDBRANCH   5   6
BRANCH   5   9
ATOM      9  CB  PHE A   1       4.587   1.514 -22.843  0.00  0.00    +0.063 C 
BRANCH   9  10
ATOM     10  CG  PHE A   1       5.368   2.521 -22.592  0.00  0.00    -0.045 A 
ATOM     11  CD2 PHE A   1       5.733   3.319 -23.549  0.00  0.00    +0.004 A 
ATOM     12  CE2 PHE A   1       6.515   4.326 -23.300  0.00  0.00    +0.000 A 
ATOM     13  CZ  PHE A   1       6.934   4.537 -22.084  0.00  0.00    +0.000 A 
ATOM     14  CE1 PHE A   1       6.569   3.739 -21.126  0.00  0.00    +0.000 A 
ATOM     15  CD1 PHE A   1       5.787   2.732 -21.376  0.00  0.00    +0.004 A 
ENDBRANCH   9  10
ENDBRANCH   5   9
ENDBRANCH   3   5
BRANCH   2  16
ATOM     16  C   UNK A   0       1.509   2.679 -25.358  0.00  0.00    +0.203 C 
BRANCH  16  17
ATOM     17  N   UNK A   0       0.272   2.921 -25.043  0.00  0.00    -0.273 N 
ATOM     18  H   UNK A   0      -0.420   2.242 -25.211  0.00  0.00    +0.153 HD
ATOM     19  C   UNK A   0      -0.050   4.060 -24.506  0.00  0.00    +0.401 C 
ATOM     20  O   UNK A   0       0.863   4.957 -24.283  0.00  0.00    -0.226 OA
BRANCH  19  21
ATOM     21  O   UNK A   0      -1.288   4.301 -24.191  0.00  0.00    -0.446 OA
BRANCH  21  22
ATOM     22  C   UNK A   0      -2.200   3.399 -24.403  0.00  0.00    +0.269 C 
BRANCH  22  23
ATOM     23  C   UNK A   0      -3.270   3.371 -23.667  0.00  0.00    -0.010 A 
ATOM     24  C   UNK A   0      -3.208   2.920 -22.446  0.00  0.00    +0.007 A 
ATOM     25  C   UNK A   0      -4.279   2.893 -21.711  0.00  0.00    +0.000 A 
ATOM     26  C   UNK A   0      -5.412   3.314 -22.189  0.00  0.00    +0.000 A 
ATOM     27  C   UNK A   0      -5.474   3.765 -23.410  0.00  0.00    +0.000 A 
ATOM     28  C   UNK A   0      -4.402   3.792 -24.144  0.00  0.00    +0.007 A 
ENDBRANCH  22  23
ENDBRANCH  21  22
ENDBRANCH  19  21
ENDBRANCH  16  17
ENDBRANCH   2  16
TORSDOF 9
ENDMDL
MODEL 3
REMARK VINA RESULT:    -8.544      1.245      1.488
REMARK INTER + INTRA:         -13.751
REMARK INTER:                 -13.231
REMARK INTRA:                  -0.520
REMARK UNBOUND:                -0.711
REMARK  Name = ZINC000001575538
REMARK  9 active torsions:
REMARK  status: ('A' for Active; 'I' for Inactive)
REMARK    1  A    between atoms: C_2  and  C_3
REMARK    2  A    between atoms: C_3  and  N_4
REMARK    3  A    between atoms: C_5  and  O_7
REMARK    4  A    between atoms: O_7  and  C_8
REMARK    5  A    between atoms: C_8  and  C_9
REMARK    6  A    between atoms: N_15  and  CA_16
REMARK    7  A    between atoms: CA_16  and  CB_17
REMARK    8  A    between atoms: CA_16  and  C_24
REMARK    9  A    between atoms: CB_17  and  CG_18
REMARK                            x       y       z     vdW  Elec       q    Type
REMARK                         _______ _______ _______ _____ _____    ______ ____
ROOT
ATOM      1  O   UNK A   0       4.280   0.528 -22.225  0.00  0.00    -0.274 OA
ATOM      2  C   UNK A   0       3.635   1.315 -21.416  0.00  0.00    +0.231 C 
ATOM      3  N   PHE A   1       3.930   2.580 -21.368  0.00  0.00    -0.306 N 
ATOM      4  H   PHE A   1       3.441   3.176 -20.755  0.00  0.00    +0.149 HD
ENDROOT
BRANCH   3   5
ATOM      5  CA  PHE A   1       4.870   3.058 -22.127  0.00  0.00    +0.123 C 
BRANCH   5   6
ATOM      6  C   PHE A   1       6.072   3.210 -21.656  0.00  0.00    +0.062 C 
ATOM      7  OXT PHE A   1       6.262   3.282 -20.372  0.00  0.00    -0.548 OA
ATOM      8  O   PHE A   1       7.083   3.288 -22.469  0.00  0.00    -0.548 OA
ENDBRANCH   5   6
BRANCH   5   9
ATOM      9  CB  PHE A   1       4.608   3.386 -23.358  0.00  0.00    +0.063 C 
BRANCH   9  10
ATOM     10  CG  PHE A   1       3.416   3.786 -23.684  0.00  0.00    -0.045 A 
ATOM     11  CD2 PHE A   1       2.687   3.077 -24.493  0.00  0.00    +0.004 A 
ATOM     12  CE2 PHE A   1       1.496   3.476 -24.820  0.00  0.00    +0.000 A 
ATOM     13  CZ  PHE A   1       1.028   4.592 -24.335  0.00  0.00    +0.000 A 
ATOM     14  CE1 PHE A   1       1.756   5.301 -23.527  0.00  0.00    +0.000 A 
ATOM     15  CD1 PHE A   1       2.949   4.902 -23.199  0.00  0.00    +0.004 A 
ENDBRANCH   9  10
ENDBRANCH   5   9
ENDBRANCH   3   5
BRANCH   2  16
ATOM     16  C   UNK A   0       2.695   0.837 -20.656  0.00  0.00    +0.203 C 
BRANCH  16  17
ATOM     17  N   UNK A   0       1.594   1.505 -20.484  0.00  0.00    -0.273 N 
ATOM     18  H   UNK A   0       1.465   2.040 -19.669  0.00  0.00    +0.153 HD
ATOM     19  C   UNK A   0       0.663   1.466 -21.391  0.00  0.00    +0.401 C 
ATOM     20  O   UNK A   0       0.833   0.760 -22.468  0.00  0.00    -0.226 OA
BRANCH  19  21
ATOM     21  O   UNK A   0      -0.438   2.135 -21.219  0.00  0.00    -0.446 OA
BRANCH  21  22
ATOM     22  C   UNK A   0      -1.046   2.659 -22.242  0.00  0.00    +0.269 C 
BRANCH  22  23
ATOM     23  C   UNK A   0      -2.323   2.895 -22.188  0.00  0.00    -0.010 A 
ATOM     24  C   UNK A   0      -2.967   2.739 -21.066  0.00  0.00    +0.007 A 
ATOM     25  C   UNK A   0      -4.243   2.976 -21.014  0.00  0.00    +0.000 A 
ATOM     26  C   UNK A   0      -4.879   3.367 -22.078  0.00  0.00    +0.000 A 
ATOM     27  C   UNK A   0      -4.235   3.522 -23.200  0.00  0.00    +0.000 A 
ATOM     28  C   UNK A   0      -2.959   3.285 -23.251  0.00  0.00    +0.007 A 
ENDBRANCH  22  23
ENDBRANCH  21  22
ENDBRANCH  19  21
ENDBRANCH  16  17
ENDBRANCH   2  16
TORSDOF 9
ENDMDL
MODEL 4
REMARK VINA RESULT:    -8.274      2.400      4.143
REMARK INTER + INTRA:         -13.338
REMARK INTER:                 -13.222
REMARK INTRA:                  -0.116
REMARK UNBOUND:                -0.711
REMARK  Name = ZINC000001575538
REMARK  9 active torsions:
REMARK  status: ('A' for Active; 'I' for Inactive)
REMARK    1  A    between atoms: C_2  and  C_3
REMARK    2  A    between atoms: C_3  and  N_4
REMARK    3  A    between atoms: C_5  and  O_7
REMARK    4  A    between atoms: O_7  and  C_8
REMARK    5  A    between atoms: C_8  and  C_9
REMARK    6  A    between atoms: N_15  and  CA_16
REMARK    7  A    between atoms: CA_16  and  CB_17
REMARK    8  A    between atoms: CA_16  and  C_24
REMARK    9  A    between atoms: CB_17  and  CG_18
REMARK                            x       y       z     vdW  Elec       q    Type
REMARK                         _______ _______ _______ _____ _____    ______ ____
ROOT
ATOM      1  O   UNK A   0      -0.094   1.140 -22.860  0.00  0.00    -0.274 OA
ATOM      2  C   UNK A   0      -0.021   1.624 -21.654  0.00  0.00    +0.231 C 
ATOM      3  N   PHE A   1       1.139   1.869 -21.123  0.00  0.00    -0.306 N 
ATOM      4  H   PHE A   1       1.195   2.235 -20.210  0.00  0.00    +0.149 HD
ENDROOT
BRANCH   3   5
ATOM      5  CA  PHE A   1       2.226   1.630 -21.794  0.00  0.00    +0.123 C 
BRANCH   5   6
ATOM      6  C   PHE A   1       2.726   0.430 -21.815  0.00  0.00    +0.062 C 
ATOM      7  OXT PHE A   1       3.482   0.023 -20.840  0.00  0.00    -0.548 OA
ATOM      8  O   PHE A   1       2.468  -0.362 -22.813  0.00  0.00    -0.548 OA
ENDBRANCH   5   6
BRANCH   5   9
ATOM      9  CB  PHE A   1       2.813   2.591 -22.444  0.00  0.00    +0.063 C 
BRANCH   9  10
ATOM     10  CG  PHE A   1       2.242   3.115 -23.486  0.00  0.00    -0.045 A 
ATOM     11  CD2 PHE A   1       1.730   4.306 -23.420  0.00  0.00    +0.004 A 
ATOM     12  CE2 PHE A   1       1.158   4.832 -24.461  0.00  0.00    +0.000 A 
ATOM     13  CZ  PHE A   1       1.098   4.161 -25.577  0.00  0.00    +0.000 A 
ATOM     14  CE1 PHE A   1       1.610   2.969 -25.643  0.00  0.00    +0.000 A 
ATOM     15  CD1 PHE A   1       2.182   2.444 -24.601  0.00  0.00    +0.004 A 
ENDBRANCH   9  10
ENDBRANCH   5   9
ENDBRANCH   3   5
BRANCH   2  16
ATOM     16  C   UNK A   0      -1.108   1.863 -20.983  0.00  0.00    +0.203 C 
BRANCH  16  17
ATOM     17  N   UNK A   0      -2.253   1.913 -21.596  0.00  0.00    -0.273 N 
ATOM     18  H   UNK A   0      -2.468   1.253 -22.293  0.00  0.00    +0.153 HD
ATOM     19  C   UNK A   0      -3.114   2.837 -21.288  0.00  0.00    +0.401 C 
ATOM     20  O   UNK A   0      -2.831   3.710 -20.368  0.00  0.00    -0.226 OA
BRANCH  19  21
ATOM     21  O   UNK A   0      -4.259   2.887 -21.901  0.00  0.00    -0.446 OA
BRANCH  21  22
ATOM     22  C   UNK A   0      -4.490   3.827 -22.770  0.00  0.00    +0.269 C 
BRANCH  22  23
ATOM     23  C   UNK A   0      -4.079   3.695 -23.995  0.00  0.00    -0.010 A 
ATOM     24  C   UNK A   0      -4.933   3.436 -24.944  0.00  0.00    +0.007 A 
ATOM     25  C   UNK A   0      -4.520   3.304 -26.168  0.00  0.00    +0.000 A 
ATOM     26  C   UNK A   0      -3.257   3.429 -26.449  0.00  0.00    +0.000 A 
ATOM     27  C   UNK A   0      -2.403   3.688 -25.500  0.00  0.00    +0.000 A 
ATOM     28  C   UNK A   0      -2.817   3.820 -24.276  0.00  0.00    +0.007 A 
ENDBRANCH  22  23
ENDBRANCH  21  22
ENDBRANCH  19  21
ENDBRANCH  16  17
ENDBRANCH   2  16
TORSDOF 9
ENDMDL
MODEL 5
REMARK VINA RESULT:    -8.189      2.373      6.479
REMARK INTER + INTRA:         -13.209
REMARK INTER:                 -12.240
REMARK INTRA:                  -0.969
REMARK UNBOUND:                -0.711
REMARK  Name = ZINC000001575538
REMARK  9 active torsions:
REMARK  status: ('A' for Active; 'I' for Inactive)
REMARK    1  A    between atoms: C_2  and  C_3
REMARK    2  A    between atoms: C_3  and  N_4
REMARK    3  A    between atoms: C_5  and  O_7
REMARK    4  A    between atoms: O_7  and  C_8
REMARK    5  A    between atoms: C_8  and  C_9
REMARK    6  A    between atoms: N_15  and  CA_16
REMARK    7  A    between atoms: CA_16  and  CB_17
REMARK    8  A    between atoms: CA_16  and  C_24
REMARK    9  A    between atoms: CB_17  and  CG_18
REMARK                            x       y       z     vdW  Elec       q    Type
REMARK                         _______ _______ _______ _____ _____    ______ ____
ROOT
ATOM      1  O   UNK A   0      -1.970   3.163 -20.955  0.00  0.00    -0.274 OA
ATOM      2  C   UNK A   0      -1.657   2.240 -21.816  0.00  0.00    +0.231 C 
ATOM      3  N   PHE A   1      -1.957   2.395 -23.071  0.00  0.00    -0.306 N 
ATOM      4  H   PHE A   1      -1.720   1.696 -23.723  0.00  0.00    +0.149 HD
ENDROOT
BRANCH   3   5
ATOM      5  CA  PHE A   1      -2.569   3.471 -23.466  0.00  0.00    +0.123 C 
BRANCH   5   6
ATOM      6  C   PHE A   1      -3.847   3.440 -23.705  0.00  0.00    +0.062 C 
ATOM      7  OXT PHE A   1      -4.692   3.392 -22.718  0.00  0.00    -0.548 OA
ATOM      8  O   PHE A   1      -4.279   3.458 -24.930  0.00  0.00    -0.548 OA
ENDBRANCH   5   6
BRANCH   5   9
ATOM      9  CB  PHE A   1      -1.904   4.577 -23.622  0.00  0.00    +0.063 C 
BRANCH   9  10
ATOM     10  CG  PHE A   1      -0.656   4.540 -23.977  0.00  0.00    -0.045 A 
ATOM     11  CD2 PHE A   1       0.260   5.023 -23.192  0.00  0.00    +0.004 A 
ATOM     12  CE2 PHE A   1       1.510   4.987 -23.545  0.00  0.00    +0.000 A 
ATOM     13  CZ  PHE A   1       1.847   4.463 -24.690  0.00  0.00    +0.000 A 
ATOM     14  CE1 PHE A   1       0.931   3.980 -25.475  0.00  0.00    +0.000 A 
ATOM     15  CD1 PHE A   1      -0.319   4.017 -25.122  0.00  0.00    +0.004 A 
ENDBRANCH   9  10
ENDBRANCH   5   9
ENDBRANCH   3   5
BRANCH   2  16
ATOM     16  C   UNK A   0      -1.045   1.163 -21.421  0.00  0.00    +0.203 C 
BRANCH  16  17
ATOM     17  N   UNK A   0       0.173   1.235 -20.975  0.00  0.00    -0.273 N 
ATOM     18  H   UNK A   0       0.344   1.235 -20.006  0.00  0.00    +0.153 HD
ATOM     19  C   UNK A   0       1.167   1.306 -21.810  0.00  0.00    +0.401 C 
ATOM     20  O   UNK A   0       0.943   1.306 -23.090  0.00  0.00    -0.226 OA
BRANCH  19  21
ATOM     21  O   UNK A   0       2.386   1.378 -21.364  0.00  0.00    -0.446 OA
BRANCH  21  22
ATOM     22  C   UNK A   0       3.383   1.094 -22.149  0.00  0.00    +0.269 C 
BRANCH  22  23
ATOM     23  C   UNK A   0       4.348   1.949 -22.308  0.00  0.00    -0.010 A 
ATOM     24  C   UNK A   0       5.138   2.232 -21.310  0.00  0.00    +0.007 A 
ATOM     25  C   UNK A   0       6.102   3.087 -21.471  0.00  0.00    +0.000 A 
ATOM     26  C   UNK A   0       6.283   3.660 -22.623  0.00  0.00    +0.000 A 
ATOM     27  C   UNK A   0       5.494   3.377 -23.621  0.00  0.00    +0.000 A 
ATOM     28  C   UNK A   0       4.529   2.522 -23.459  0.00  0.00    +0.007 A 
ENDBRANCH  22  23
ENDBRANCH  21  22
ENDBRANCH  19  21
ENDBRANCH  16  17
ENDBRANCH   2  16
TORSDOF 9
ENDMDL
MODEL 6
REMARK VINA RESULT:    -8.125      2.165      6.423
REMARK INTER + INTRA:         -13.111
REMARK INTER:                 -12.704
REMARK INTRA:                  -0.407
REMARK UNBOUND:                -0.711
REMARK  Name = ZINC000001575538
REMARK  9 active torsions:
REMARK  status: ('A' for Active; 'I' for Inactive)
REMARK    1  A    between atoms: C_2  and  C_3
REMARK    2  A    between atoms: C_3  and  N_4
REMARK    3  A    between atoms: C_5  and  O_7
REMARK    4  A    between atoms: O_7  and  C_8
REMARK    5  A    between atoms: C_8  and  C_9
REMARK    6  A    between atoms: N_15  and  CA_16
REMARK    7  A    between atoms: CA_16  and  CB_17
REMARK    8  A    between atoms: CA_16  and  C_24
REMARK    9  A    between atoms: CB_17  and  CG_18
REMARK                            x       y       z     vdW  Elec       q    Type
REMARK                         _______ _______ _______ _____ _____    ______ ____
ROOT
ATOM      1  O   UNK A   0      -0.645   1.403 -23.208  0.00  0.00    -0.274 OA
ATOM      2  C   UNK A   0       0.223   2.077 -22.512  0.00  0.00    +0.231 C 
ATOM      3  N   PHE A   1       0.332   3.360 -22.679  0.00  0.00    -0.306 N 
ATOM      4  H   PHE A   1       0.990   3.871 -22.152  0.00  0.00    +0.149 HD
ENDROOT
BRANCH   3   5
ATOM      5  CA  PHE A   1      -0.424   3.972 -23.542  0.00  0.00    +0.123 C 
BRANCH   5   6
ATOM      6  C   PHE A   1      -0.172   3.870 -24.813  0.00  0.00    +0.062 C 
ATOM      7  OXT PHE A   1       1.027   4.101 -25.259  0.00  0.00    -0.548 OA
ATOM      8  O   PHE A   1      -1.120   3.537 -25.638  0.00  0.00    -0.548 OA
ENDBRANCH   5   6
BRANCH   5   9
ATOM      9  CB  PHE A   1      -1.432   4.684 -23.134  0.00  0.00    +0.063 C 
BRANCH   9  10
ATOM     10  CG  PHE A   1      -2.377   4.132 -22.435  0.00  0.00    -0.045 A 
ATOM     11  CD2 PHE A   1      -3.356   3.519 -23.031  0.00  0.00    +0.004 A 
ATOM     12  CE2 PHE A   1      -4.302   2.965 -22.334  0.00  0.00    +0.000 A 
ATOM     13  CZ  PHE A   1      -4.271   3.025 -21.033  0.00  0.00    +0.000 A 
ATOM     14  CE1 PHE A   1      -3.292   3.638 -20.437  0.00  0.00    +0.000 A 
ATOM     15  CD1 PHE A   1      -2.346   4.191 -21.134  0.00  0.00    +0.004 A 
ENDBRANCH   9  10
ENDBRANCH   5   9
ENDBRANCH   3   5
BRANCH   2  16
ATOM     16  C   UNK A   0       0.979   1.466 -21.649  0.00  0.00    +0.203 C 
BRANCH  16  17
ATOM     17  N   UNK A   0       2.265   1.652 -21.665  0.00  0.00    -0.273 N 
ATOM     18  H   UNK A   0       2.653   2.446 -21.233  0.00  0.00    +0.153 HD
ATOM     19  C   UNK A   0       3.039   0.788 -22.253  0.00  0.00    +0.401 C 
ATOM     20  O   UNK A   0       2.527  -0.261 -22.825  0.00  0.00    -0.226 OA
BRANCH  19  21
ATOM     21  O   UNK A   0       4.325   0.975 -22.269  0.00  0.00    -0.446 OA
BRANCH  21  22
ATOM     22  C   UNK A   0       4.867   1.834 -21.458  0.00  0.00    +0.269 C 
BRANCH  22  23
ATOM     23  C   UNK A   0       5.653   2.759 -21.921  0.00  0.00    -0.010 A 
ATOM     24  C   UNK A   0       6.419   3.429 -21.108  0.00  0.00    +0.007 A 
ATOM     25  C   UNK A   0       7.204   4.354 -21.573  0.00  0.00    +0.000 A 
ATOM     26  C   UNK A   0       7.227   4.612 -22.846  0.00  0.00    +0.000 A 
ATOM     27  C   UNK A   0       6.461   3.942 -23.659  0.00  0.00    +0.000 A 
ATOM     28  C   UNK A   0       5.676   3.018 -23.193  0.00  0.00    +0.007 A 
ENDBRANCH  22  23
ENDBRANCH  21  22
ENDBRANCH  19  21
ENDBRANCH  16  17
ENDBRANCH   2  16
TORSDOF 9
ENDMDL
MODEL 7
REMARK VINA RESULT:    -8.061      2.305      6.812
REMARK INTER + INTRA:         -13.013
REMARK INTER:                 -12.532
REMARK INTRA:                  -0.482
REMARK UNBOUND:                -0.711
REMARK  Name = ZINC000001575538
REMARK  9 active torsions:
REMARK  status: ('A' for Active; 'I' for Inactive)
REMARK    1  A    between atoms: C_2  and  C_3
REMARK    2  A    between atoms: C_3  and  N_4
REMARK    3  A    between atoms: C_5  and  O_7
REMARK    4  A    between atoms: O_7  and  C_8
REMARK    5  A    between atoms: C_8  and  C_9
REMARK    6  A    between atoms: N_15  and  CA_16
REMARK    7  A    between atoms: CA_16  and  CB_17
REMARK    8  A    between atoms: CA_16  and  C_24
REMARK    9  A    between atoms: CB_17  and  CG_18
REMARK                            x       y       z     vdW  Elec       q    Type
REMARK                         _______ _______ _______ _____ _____    ______ ____
ROOT
ATOM      1  O   UNK A   0       0.919   1.923 -24.125  0.00  0.00    -0.274 OA
ATOM      2  C   UNK A   0       0.901   1.946 -22.825  0.00  0.00    +0.231 C 
ATOM      3  N   PHE A   1       0.028   2.679 -22.201  0.00  0.00    -0.306 N 
ATOM      4  H   PHE A   1       0.014   2.696 -21.216  0.00  0.00    +0.149 HD
ENDROOT
BRANCH   3   5
ATOM      5  CA  PHE A   1      -0.828   3.388 -22.875  0.00  0.00    +0.123 C 
BRANCH   5   6
ATOM      6  C   PHE A   1      -0.675   4.676 -22.964  0.00  0.00    +0.062 C 
ATOM      7  OXT PHE A   1      -0.029   5.186 -23.970  0.00  0.00    -0.548 OA
ATOM      8  O   PHE A   1      -1.170   5.453 -22.047  0.00  0.00    -0.548 OA
ENDBRANCH   5   6
BRANCH   5   9
ATOM      9  CB  PHE A   1      -1.835   2.810 -23.459  0.00  0.00    +0.063 C 
BRANCH   9  10
ATOM     10  CG  PHE A   1      -3.037   2.980 -22.999  0.00  0.00    -0.045 A 
ATOM     11  CD2 PHE A   1      -3.942   3.556 -23.731  0.00  0.00    +0.004 A 
ATOM     12  CE2 PHE A   1      -5.145   3.727 -23.273  0.00  0.00    +0.000 A 
ATOM     13  CZ  PHE A   1      -5.447   3.319 -22.073  0.00  0.00    +0.000 A 
ATOM     14  CE1 PHE A   1      -4.543   2.742 -21.339  0.00  0.00    +0.000 A 
ATOM     15  CD1 PHE A   1      -3.339   2.572 -21.798  0.00  0.00    +0.004 A 
ENDBRANCH   9  10
ENDBRANCH   5   9
ENDBRANCH   3   5
BRANCH   2  16
ATOM     16  C   UNK A   0       1.757   1.237 -22.151  0.00  0.00    +0.203 C 
BRANCH  16  17
ATOM     17  N   UNK A   0       3.023   1.520 -22.207  0.00  0.00    -0.273 N 
ATOM     18  H   UNK A   0       3.347   2.211 -22.829  0.00  0.00    +0.153 HD
ATOM     19  C   UNK A   0       3.864   0.890 -21.441  0.00  0.00    +0.401 C 
ATOM     20  O   UNK A   0       3.439  -0.022 -20.620  0.00  0.00    -0.226 OA
BRANCH  19  21
ATOM     21  O   UNK A   0       5.132   1.174 -21.498  0.00  0.00    -0.446 OA
BRANCH  21  22
ATOM     22  C   UNK A   0       5.580   2.259 -20.939  0.00  0.00    +0.269 C 
BRANCH  22  23
ATOM     23  C   UNK A   0       6.258   3.118 -21.639  0.00  0.00    -0.010 A 
ATOM     24  C   UNK A   0       6.278   3.028 -22.938  0.00  0.00    +0.007 A 
ATOM     25  C   UNK A   0       6.956   3.887 -23.637  0.00  0.00    +0.000 A 
ATOM     26  C   UNK A   0       7.616   4.837 -23.043  0.00  0.00    +0.000 A 
ATOM     27  C   UNK A   0       7.596   4.927 -21.743  0.00  0.00    +0.000 A 
ATOM     28  C   UNK A   0       6.917   4.067 -21.046  0.00  0.00    +0.007 A 
ENDBRANCH  22  23
ENDBRANCH  21  22
ENDBRANCH  19  21
ENDBRANCH  16  17
ENDBRANCH   2  16
TORSDOF 9
ENDMDL
MODEL 8
REMARK VINA RESULT:    -7.945      3.063      7.161
REMARK INTER + INTRA:         -12.837
REMARK INTER:                 -12.441
REMARK INTRA:                  -0.396
REMARK UNBOUND:                -0.711
REMARK  Name = ZINC000001575538
REMARK  9 active torsions:
REMARK  status: ('A' for Active; 'I' for Inactive)
REMARK    1  A    between atoms: C_2  and  C_3
REMARK    2  A    between atoms: C_3  and  N_4
REMARK    3  A    between atoms: C_5  and  O_7
REMARK    4  A    between atoms: O_7  and  C_8
REMARK    5  A    between atoms: C_8  and  C_9
REMARK    6  A    between atoms: N_15  and  CA_16
REMARK    7  A    between atoms: CA_16  and  CB_17
REMARK    8  A    between atoms: CA_16  and  C_24
REMARK    9  A    between atoms: CB_17  and  CG_18
REMARK                            x       y       z     vdW  Elec       q    Type
REMARK                         _______ _______ _______ _____ _____    ______ ____
ROOT
ATOM      1  O   UNK A   0       0.319   2.788 -24.618  0.00  0.00    -0.274 OA
ATOM      2  C   UNK A   0       0.138   4.039 -24.312  0.00  0.00    +0.231 C 
ATOM      3  N   PHE A   1      -1.064   4.528 -24.261  0.00  0.00    -0.306 N 
ATOM      4  H   PHE A   1      -1.201   5.475 -24.030  0.00  0.00    +0.149 HD
ENDROOT
BRANCH   3   5
ATOM      5  CA  PHE A   1      -2.087   3.767 -24.514  0.00  0.00    +0.123 C 
BRANCH   5   6
ATOM      6  C   PHE A   1      -2.819   3.993 -25.565  0.00  0.00    +0.062 C 
ATOM      7  OXT PHE A   1      -3.811   4.830 -25.500  0.00  0.00    -0.548 OA
ATOM      8  O   PHE A   1      -2.558   3.380 -26.681  0.00  0.00    -0.548 OA
ENDBRANCH   5   6
BRANCH   5   9
ATOM      9  CB  PHE A   1      -2.379   2.782 -23.718  0.00  0.00    +0.063 C 
BRANCH   9  10
ATOM     10  CG  PHE A   1      -2.947   3.018 -22.574  0.00  0.00    -0.045 A 
ATOM     11  CD2 PHE A   1      -2.222   3.210 -21.513  0.00  0.00    +0.004 A 
ATOM     12  CE2 PHE A   1      -2.788   3.446 -20.368  0.00  0.00    +0.000 A 
ATOM     13  CZ  PHE A   1      -4.087   3.491 -20.282  0.00  0.00    +0.000 A 
ATOM     14  CE1 PHE A   1      -4.812   3.300 -21.343  0.00  0.00    +0.000 A 
ATOM     15  CD1 PHE A   1      -4.246   3.063 -22.488  0.00  0.00    +0.004 A 
ENDBRANCH   9  10
ENDBRANCH   5   9
ENDBRANCH   3   5
BRANCH   2  16
ATOM     16  C   UNK A   0       1.162   4.800 -24.059  0.00  0.00    +0.203 C 
BRANCH  16  17
ATOM     17  N   UNK A   0       2.359   4.297 -24.051  0.00  0.00    -0.273 N 
ATOM     18  H   UNK A   0       2.567   3.509 -24.604  0.00  0.00    +0.153 HD
ATOM     19  C   UNK A   0       3.284   4.834 -23.312  0.00  0.00    +0.401 C 
ATOM     20  O   UNK A   0       3.012   5.874 -22.582  0.00  0.00    -0.226 OA
BRANCH  19  21
ATOM     21  O   UNK A   0       4.483   4.331 -23.304  0.00  0.00    -0.446 OA
BRANCH  21  22
ATOM     22  C   UNK A   0       4.661   3.073 -23.583  0.00  0.00    +0.269 C 
BRANCH  22  23
ATOM     23  C   UNK A   0       4.472   2.172 -22.666  0.00  0.00    -0.010 A 
ATOM     24  C   UNK A   0       5.233   2.150 -21.609  0.00  0.00    +0.007 A 
ATOM     25  C   UNK A   0       5.043   1.248 -20.693  0.00  0.00    +0.000 A 
ATOM     26  C   UNK A   0       4.097   0.367 -20.830  0.00  0.00    +0.000 A 
ATOM     27  C   UNK A   0       3.336   0.389 -21.887  0.00  0.00    +0.000 A 
ATOM     28  C   UNK A   0       3.527   1.292 -22.802  0.00  0.00    +0.007 A 
ENDBRANCH  22  23
ENDBRANCH  21  22
ENDBRANCH  19  21
ENDBRANCH  16  17
ENDBRANCH   2  16
TORSDOF 9
ENDMDL
MODEL 9
REMARK VINA RESULT:    -7.858      2.123      6.684
REMARK INTER + INTRA:         -12.704
REMARK INTER:                 -11.993
REMARK INTRA:                  -0.711
REMARK UNBOUND:                -0.711
REMARK  Name = ZINC000001575538
REMARK  9 active torsions:
REMARK  status: ('A' for Active; 'I' for Inactive)
REMARK    1  A    between atoms: C_2  and  C_3
REMARK    2  A    between atoms: C_3  and  N_4
REMARK    3  A    between atoms: C_5  and  O_7
REMARK    4  A    between atoms: O_7  and  C_8
REMARK    5  A    between atoms: C_8  and  C_9
REMARK    6  A    between atoms: N_15  and  CA_16
REMARK    7  A    between atoms: CA_16  and  CB_17
REMARK    8  A    between atoms: CA_16  and  C_24
REMARK    9  A    between atoms: CB_17  and  CG_18
REMARK                            x       y       z     vdW  Elec       q    Type
REMARK                         _______ _______ _______ _____ _____    ______ ____
ROOT
ATOM      1  O   UNK A   0       2.088   0.741 -23.237  0.00  0.00    -0.274 OA
ATOM      2  C   UNK A   0       2.069   1.335 -22.080  0.00  0.00    +0.231 C 
ATOM      3  N   PHE A   1       1.154   2.221 -21.820  0.00  0.00    -0.306 N 
ATOM      4  H   PHE A   1       1.140   2.671 -20.944  0.00  0.00    +0.149 HD
ENDROOT
BRANCH   3   5
ATOM      5  CA  PHE A   1       0.259   2.513 -22.716  0.00  0.00    +0.123 C 
BRANCH   5   6
ATOM      6  C   PHE A   1       0.501   3.435 -23.599  0.00  0.00    +0.062 C 
ATOM      7  OXT PHE A   1       0.864   4.624 -23.217  0.00  0.00    -0.548 OA
ATOM      8  O   PHE A   1       0.381   3.168 -24.866  0.00  0.00    -0.548 OA
ENDBRANCH   5   6
BRANCH   5   9
ATOM      9  CB  PHE A   1      -0.879   1.884 -22.727  0.00  0.00    +0.063 C 
BRANCH   9  10
ATOM     10  CG  PHE A   1      -1.948   2.468 -22.278  0.00  0.00    -0.045 A 
ATOM     11  CD2 PHE A   1      -2.024   2.822 -21.030  0.00  0.00    +0.004 A 
ATOM     12  CE2 PHE A   1      -3.092   3.405 -20.578  0.00  0.00    +0.000 A 
ATOM     13  CZ  PHE A   1      -4.093   3.638 -21.380  0.00  0.00    +0.000 A 
ATOM     14  CE1 PHE A   1      -4.019   3.284 -22.627  0.00  0.00    +0.000 A 
ATOM     15  CD1 PHE A   1      -2.949   2.700 -23.079  0.00  0.00    +0.004 A 
ENDBRANCH   9  10
ENDBRANCH   5   9
ENDBRANCH   3   5
BRANCH   2  16
ATOM     16  C   UNK A   0       2.965   1.043 -21.185  0.00  0.00    +0.203 C 
BRANCH  16  17
ATOM     17  N   UNK A   0       3.740   1.972 -20.712  0.00  0.00    -0.273 N 
ATOM     18  H   UNK A   0       3.382   2.641 -20.085  0.00  0.00    +0.153 HD
ATOM     19  C   UNK A   0       4.989   2.019 -21.069  0.00  0.00    +0.401 C 
ATOM     20  O   UNK A   0       5.463   1.137 -21.897  0.00  0.00    -0.226 OA
BRANCH  19  21
ATOM     21  O   UNK A   0       5.765   2.949 -20.596  0.00  0.00    -0.446 OA
BRANCH  21  22
ATOM     22  C   UNK A   0       6.573   3.586 -21.391  0.00  0.00    +0.269 C 
BRANCH  22  23
ATOM     23  C   UNK A   0       6.833   4.842 -21.183  0.00  0.00    -0.010 A 
ATOM     24  C   UNK A   0       6.464   5.736 -22.056  0.00  0.00    +0.007 A 
ATOM     25  C   UNK A   0       6.724   6.992 -21.846  0.00  0.00    +0.000 A 
ATOM     26  C   UNK A   0       7.351   7.358 -20.768  0.00  0.00    +0.000 A 
ATOM     27  C   UNK A   0       7.720   6.464 -19.895  0.00  0.00    +0.000 A 
ATOM     28  C   UNK A   0       7.459   5.209 -20.106  0.00  0.00    +0.007 A 
ENDBRANCH  22  23
ENDBRANCH  21  22
ENDBRANCH  19  21
ENDBRANCH  16  17
ENDBRANCH   2  16
TORSDOF 9
ENDMDL
