MODEL 1
REMARK VINA RESULT:   -10.295      0.000      0.000
REMARK INTER + INTRA:         -13.354
REMARK INTER:                 -13.198
REMARK INTRA:                  -0.156
REMARK UNBOUND:                 0.552
REMARK  Name = CCOc1cc2c(cc1OC)CC[N@+]1(C)Cc3c(ccc(OC)c3OCC)C[C@H]21                ZINC000248382775
REMARK  11 active torsions:
REMARK  status: ('A' for Active; 'I' for Inactive)
REMARK    1  A    between atoms: C_1  and  C_2
REMARK    2  A    between atoms: C_2  and  O_3
REMARK    3  A    between atoms: O_3  and  C_4
REMARK    4  A    between atoms: C_9  and  O_10
REMARK    5  A    between atoms: O_10  and  C_11
REMARK    6  A    between atoms: N_14  and  C_15
REMARK    7  A    between atoms: C_21  and  O_22
REMARK    8  A    between atoms: O_22  and  C_23
REMARK    9  A    between atoms: C_24  and  O_25
REMARK   10  A    between atoms: O_25  and  C_26
REMARK   11  A    between atoms: C_26  and  C_27
REMARK                            x       y       z     vdW  Elec       q    Type
REMARK                         _______ _______ _______ _____ _____    ______ ____
ROOT
ATOM      1  C   UNL     1       3.224   2.189 -21.970  0.00  0.00    +0.162 A 
ATOM      2  C   UNL     1       1.940   2.385 -22.009  0.00  0.00    +0.058 A 
ATOM      3  C   UNL     1       1.391   2.878 -23.080  0.00  0.00    +0.008 A 
ATOM      4  C   UNL     1       2.126   3.174 -24.111  0.00  0.00    -0.030 A 
ATOM      5  C   UNL     1       1.577   3.666 -25.182  0.00  0.00    +0.086 C 
ATOM      6  C   UNL     1       0.293   3.863 -25.222  0.00  0.00    +0.138 C 
ATOM      7  N   UNL     1      -0.443   3.568 -24.191  0.00  0.00    +0.250 N 
ATOM      8  C   UNL     1      -1.727   3.765 -24.231  0.00  0.00    +0.174 C 
ATOM      9  C   UNL     1      -2.462   3.469 -23.201  0.00  0.00    +0.046 A 
ATOM     10  C   UNL     1      -1.913   2.977 -22.130  0.00  0.00    -0.030 A 
ATOM     11  C   UNL     1      -0.629   2.780 -22.090  0.00  0.00    +0.095 C 
ATOM     12  C   UNL     1      -2.649   2.681 -21.100  0.00  0.00    +0.008 A 
ATOM     13  C   UNL     1      -3.933   2.878 -21.139  0.00  0.00    +0.050 A 
ATOM     14  C   UNL     1      -4.482   3.370 -22.210  0.00  0.00    +0.162 A 
ATOM     15  C   UNL     1      -3.747   3.666 -23.240  0.00  0.00    +0.170 A 
ATOM     16  C   UNL     1      -0.992   4.060 -25.262  0.00  0.00    +0.193 C 
ATOM     17  C   UNL     1       3.411   2.977 -24.071  0.00  0.00    +0.053 A 
ATOM     18  C   UNL     1       0.107   3.075 -23.120  0.00  0.00    +0.102 C 
ATOM     19  C   UNL     1       3.960   2.484 -23.001  0.00  0.00    +0.162 A 
ENDROOT
BRANCH  14  20
ATOM     20  O   UNL     1      -5.766   3.567 -22.250  0.00  0.00    -0.491 OA
ATOM     21  C   UNL     1      -6.575   2.696 -21.723  0.00  0.00    +0.277 C 
ENDBRANCH  14  20
BRANCH  19  22
ATOM     22  O   UNL     1       5.244   2.287 -22.960  0.00  0.00    -0.491 OA
ATOM     23  C   UNL     1       6.060   3.261 -23.236  0.00  0.00    +0.277 C 
ENDBRANCH  19  22
BRANCH   1  24
ATOM     24  O   UNL     1       3.773   1.696 -20.899  0.00  0.00    -0.489 OA
BRANCH  24  26
ATOM     25  C   UNL     1       5.061  -0.125 -20.590  0.00  0.00    +0.048 C 
ATOM     26  C   UNL     1       3.888   0.408 -20.761  0.00  0.00    +0.226 C 
ENDBRANCH  24  26
ENDBRANCH   1  24
BRANCH  15  27
ATOM     27  O   UNL     1      -4.296   4.158 -24.311  0.00  0.00    -0.488 OA
BRANCH  27  28
ATOM     28  C   UNL     1      -4.966   3.385 -25.113  0.00  0.00    +0.226 C 
ATOM     29  C   UNL     1      -4.437   2.997 -26.235  0.00  0.00    +0.048 C 
ENDBRANCH  27  28
ENDBRANCH  15  27
TORSDOF 6
ENDMDL
MODEL 2
REMARK VINA RESULT:    -9.302      1.112      7.303
REMARK INTER + INTRA:         -12.013
REMARK INTER:                 -12.231
REMARK INTRA:                   0.218
REMARK UNBOUND:                 0.552
REMARK  Name = CCOc1cc2c(cc1OC)CC[N@+]1(C)Cc3c(ccc(OC)c3OCC)C[C@H]21                ZINC000248382775
REMARK  11 active torsions:
REMARK  status: ('A' for Active; 'I' for Inactive)
REMARK    1  A    between atoms: C_1  and  C_2
REMARK    2  A    between atoms: C_2  and  O_3
REMARK    3  A    between atoms: O_3  and  C_4
REMARK    4  A    between atoms: C_9  and  O_10
REMARK    5  A    between atoms: O_10  and  C_11
REMARK    6  A    between atoms: N_14  and  C_15
REMARK    7  A    between atoms: C_21  and  O_22
REMARK    8  A    between atoms: O_22  and  C_23
REMARK    9  A    between atoms: C_24  and  O_25
REMARK   10  A    between atoms: O_25  and  C_26
REMARK   11  A    between atoms: C_26  and  C_27
REMARK                            x       y       z     vdW  Elec       q    Type
REMARK                         _______ _______ _______ _____ _____    ______ ____
ROOT
ATOM      1  C   UNL     1      -3.454   2.988 -22.737  0.00  0.00    +0.162 A 
ATOM      2  C   UNL     1      -2.204   2.697 -22.527  0.00  0.00    +0.058 A 
ATOM      3  C   UNL     1      -1.316   2.951 -23.443  0.00  0.00    +0.008 A 
ATOM      4  C   UNL     1      -1.678   3.495 -24.566  0.00  0.00    -0.030 A 
ATOM      5  C   UNL     1      -0.789   3.749 -25.482  0.00  0.00    +0.086 C 
ATOM      6  C   UNL     1       0.460   3.459 -25.273  0.00  0.00    +0.138 C 
ATOM      7  N   UNL     1       0.822   2.915 -24.149  0.00  0.00    +0.250 N 
ATOM      8  C   UNL     1       2.072   2.626 -23.940  0.00  0.00    +0.174 C 
ATOM      9  C   UNL     1       2.434   2.082 -22.816  0.00  0.00    +0.046 A 
ATOM     10  C   UNL     1       1.545   1.828 -21.900  0.00  0.00    -0.030 A 
ATOM     11  C   UNL     1       0.296   2.118 -22.110  0.00  0.00    +0.095 C 
ATOM     12  C   UNL     1       1.908   1.285 -20.777  0.00  0.00    +0.008 A 
ATOM     13  C   UNL     1       3.157   0.995 -20.567  0.00  0.00    +0.050 A 
ATOM     14  C   UNL     1       4.045   1.248 -21.482  0.00  0.00    +0.162 A 
ATOM     15  C   UNL     1       3.684   1.792 -22.606  0.00  0.00    +0.170 A 
ATOM     16  C   UNL     1       1.710   3.169 -25.064  0.00  0.00    +0.193 C 
ATOM     17  C   UNL     1      -2.928   3.785 -24.776  0.00  0.00    +0.053 A 
ATOM     18  C   UNL     1      -0.066   2.662 -23.233  0.00  0.00    +0.102 C 
ATOM     19  C   UNL     1      -3.816   3.531 -23.861  0.00  0.00    +0.162 A 
ENDROOT
BRANCH  14  20
ATOM     20  O   UNL     1       5.296   0.959 -21.273  0.00  0.00    -0.491 OA
ATOM     21  C   UNL     1       5.612  -0.109 -20.602  0.00  0.00    +0.277 C 
ENDBRANCH  14  20
BRANCH  19  22
ATOM     22  O   UNL     1      -5.066   3.821 -24.070  0.00  0.00    -0.491 OA
ATOM     23  C   UNL     1      -5.555   3.755 -25.273  0.00  0.00    +0.277 C 
ENDBRANCH  19  22
BRANCH   1  24
ATOM     24  O   UNL     1      -4.342   2.734 -21.822  0.00  0.00    -0.489 OA
BRANCH  24  26
ATOM     25  C   UNL     1      -3.337   3.698 -20.052  0.00  0.00    +0.048 C 
ATOM     26  C   UNL     1      -3.994   2.703 -20.570  0.00  0.00    +0.226 C 
ENDBRANCH  24  26
ENDBRANCH   1  24
BRANCH  15  27
ATOM     27  O   UNL     1       4.572   2.046 -23.521  0.00  0.00    -0.488 OA
BRANCH  27  28
ATOM     28  C   UNL     1       5.127   3.220 -23.580  0.00  0.00    +0.226 C 
ATOM     29  C   UNL     1       6.423   3.327 -23.573  0.00  0.00    +0.048 C 
ENDBRANCH  27  28
ENDBRANCH  15  27
TORSDOF 6
ENDMDL
MODEL 3
REMARK VINA RESULT:    -9.028      1.278      7.979
REMARK INTER + INTRA:         -11.643
REMARK INTER:                 -11.796
REMARK INTRA:                   0.153
REMARK UNBOUND:                 0.552
REMARK  Name = CCOc1cc2c(cc1OC)CC[N@+]1(C)Cc3c(ccc(OC)c3OCC)C[C@H]21                ZINC000248382775
REMARK  11 active torsions:
REMARK  status: ('A' for Active; 'I' for Inactive)
REMARK    1  A    between atoms: C_1  and  C_2
REMARK    2  A    between atoms: C_2  and  O_3
REMARK    3  A    between atoms: O_3  and  C_4
REMARK    4  A    between atoms: C_9  and  O_10
REMARK    5  A    between atoms: O_10  and  C_11
REMARK    6  A    between atoms: N_14  and  C_15
REMARK    7  A    between atoms: C_21  and  O_22
REMARK    8  A    between atoms: O_22  and  C_23
REMARK    9  A    between atoms: C_24  and  O_25
REMARK   10  A    between atoms: O_25  and  C_26
REMARK   11  A    between atoms: C_26  and  C_27
REMARK                            x       y       z     vdW  Elec       q    Type
REMARK                         _______ _______ _______ _____ _____    ______ ____
ROOT
ATOM      1  C   UNL     1      -2.894   4.071 -23.975  0.00  0.00    +0.162 A 
ATOM      2  C   UNL     1      -1.620   3.917 -23.763  0.00  0.00    +0.058 A 
ATOM      3  C   UNL     1      -1.210   3.118 -22.822  0.00  0.00    +0.008 A 
ATOM      4  C   UNL     1      -2.074   2.473 -22.095  0.00  0.00    -0.030 A 
ATOM      5  C   UNL     1      -1.663   1.674 -21.155  0.00  0.00    +0.086 C 
ATOM      6  C   UNL     1      -0.391   1.520 -20.942  0.00  0.00    +0.138 C 
ATOM      7  N   UNL     1       0.473   2.164 -21.669  0.00  0.00    +0.250 N 
ATOM      8  C   UNL     1       1.746   2.010 -21.457  0.00  0.00    +0.174 C 
ATOM      9  C   UNL     1       2.609   2.655 -22.184  0.00  0.00    +0.046 A 
ATOM     10  C   UNL     1       2.199   3.454 -23.124  0.00  0.00    -0.030 A 
ATOM     11  C   UNL     1       0.926   3.608 -23.337  0.00  0.00    +0.095 C 
ATOM     12  C   UNL     1       3.063   4.099 -23.852  0.00  0.00    +0.008 A 
ATOM     13  C   UNL     1       4.336   3.945 -23.640  0.00  0.00    +0.050 A 
ATOM     14  C   UNL     1       4.746   3.146 -22.699  0.00  0.00    +0.162 A 
ATOM     15  C   UNL     1       3.883   2.501 -21.972  0.00  0.00    +0.170 A 
ATOM     16  C   UNL     1       0.883   1.365 -20.729  0.00  0.00    +0.193 C 
ATOM     17  C   UNL     1      -3.347   2.627 -22.307  0.00  0.00    +0.053 A 
ATOM     18  C   UNL     1       0.063   2.964 -22.610  0.00  0.00    +0.102 C 
ATOM     19  C   UNL     1      -3.757   3.426 -23.247  0.00  0.00    +0.162 A 
ENDROOT
BRANCH  14  20
ATOM     20  O   UNL     1       6.019   2.992 -22.486  0.00  0.00    -0.491 OA
ATOM     21  C   UNL     1       6.734   3.992 -22.064  0.00  0.00    +0.277 C 
ENDBRANCH  14  20
BRANCH  19  22
ATOM     22  O   UNL     1      -5.030   3.580 -23.460  0.00  0.00    -0.491 OA
ATOM     23  C   UNL     1      -5.879   3.371 -22.499  0.00  0.00    +0.277 C 
ENDBRANCH  19  22
BRANCH   1  24
ATOM     24  O   UNL     1      -3.303   4.870 -24.915  0.00  0.00    -0.489 OA
BRANCH  24  26
ATOM     25  C   UNL     1      -3.199   3.638 -26.797  0.00  0.00    +0.048 C 
ATOM     26  C   UNL     1      -3.876   4.384 -25.977  0.00  0.00    +0.226 C 
ENDBRANCH  24  26
ENDBRANCH   1  24
BRANCH  15  27
ATOM     27  O   UNL     1       4.292   1.702 -21.032  0.00  0.00    -0.488 OA
BRANCH  27  28
ATOM     28  C   UNL     1       4.502   0.446 -21.291  0.00  0.00    +0.226 C 
ATOM     29  C   UNL     1       5.393  -0.218 -20.616  0.00  0.00    +0.048 C 
ENDBRANCH  27  28
ENDBRANCH  15  27
TORSDOF 6
ENDMDL
MODEL 4
REMARK VINA RESULT:    -8.552      1.339      3.368
REMARK INTER + INTRA:         -11.000
REMARK INTER:                 -10.922
REMARK INTRA:                  -0.078
REMARK UNBOUND:                 0.552
REMARK  Name = CCOc1cc2c(cc1OC)CC[N@+]1(C)Cc3c(ccc(OC)c3OCC)C[C@H]21                ZINC000248382775
REMARK  11 active torsions:
REMARK  status: ('A' for Active; 'I' for Inactive)
REMARK    1  A    between atoms: C_1  and  C_2
REMARK    2  A    between atoms: C_2  and  O_3
REMARK    3  A    between atoms: O_3  and  C_4
REMARK    4  A    between atoms: C_9  and  O_10
REMARK    5  A    between atoms: O_10  and  C_11
REMARK    6  A    between atoms: N_14  and  C_15
REMARK    7  A    between atoms: C_21  and  O_22
REMARK    8  A    between atoms: O_22  and  C_23
REMARK    9  A    between atoms: C_24  and  O_25
REMARK   10  A    between atoms: O_25  and  C_26
REMARK   11  A    between atoms: C_26  and  C_27
REMARK                            x       y       z     vdW  Elec       q    Type
REMARK                         _______ _______ _______ _____ _____    ______ ____
ROOT
ATOM      1  C   UNL     1       4.107   2.765 -22.994  0.00  0.00    +0.162 A 
ATOM      2  C   UNL     1       2.854   2.901 -23.311  0.00  0.00    +0.058 A 
ATOM      3  C   UNL     1       1.929   2.460 -22.510  0.00  0.00    +0.008 A 
ATOM      4  C   UNL     1       2.259   1.883 -21.392  0.00  0.00    -0.030 A 
ATOM      5  C   UNL     1       1.334   1.442 -20.591  0.00  0.00    +0.086 C 
ATOM      6  C   UNL     1       0.081   1.578 -20.907  0.00  0.00    +0.138 C 
ATOM      7  N   UNL     1      -0.249   2.155 -22.025  0.00  0.00    +0.250 N 
ATOM      8  C   UNL     1      -1.502   2.291 -22.341  0.00  0.00    +0.174 C 
ATOM      9  C   UNL     1      -1.832   2.868 -23.458  0.00  0.00    +0.046 A 
ATOM     10  C   UNL     1      -0.907   3.309 -24.260  0.00  0.00    -0.030 A 
ATOM     11  C   UNL     1       0.346   3.173 -23.943  0.00  0.00    +0.095 C 
ATOM     12  C   UNL     1      -1.237   3.885 -25.377  0.00  0.00    +0.008 A 
ATOM     13  C   UNL     1      -2.490   4.022 -25.694  0.00  0.00    +0.050 A 
ATOM     14  C   UNL     1      -3.414   3.581 -24.893  0.00  0.00    +0.162 A 
ATOM     15  C   UNL     1      -3.085   3.004 -23.775  0.00  0.00    +0.170 A 
ATOM     16  C   UNL     1      -1.173   1.714 -21.223  0.00  0.00    +0.193 C 
ATOM     17  C   UNL     1       3.512   1.747 -21.075  0.00  0.00    +0.053 A 
ATOM     18  C   UNL     1       0.676   2.596 -22.826  0.00  0.00    +0.102 C 
ATOM     19  C   UNL     1       4.436   2.188 -21.876  0.00  0.00    +0.162 A 
ENDROOT
BRANCH  14  20
ATOM     20  O   UNL     1      -4.668   3.717 -25.209  0.00  0.00    -0.491 OA
ATOM     21  C   UNL     1      -5.180   2.997 -26.163  0.00  0.00    +0.277 C 
ENDBRANCH  14  20
BRANCH  19  22
ATOM     22  O   UNL     1       5.690   2.052 -21.560  0.00  0.00    -0.491 OA
ATOM     23  C   UNL     1       6.198   2.766 -20.600  0.00  0.00    +0.277 C 
ENDBRANCH  19  22
BRANCH   1  24
ATOM     24  O   UNL     1       5.031   3.206 -23.795  0.00  0.00    -0.489 OA
BRANCH  24  26
ATOM     25  C   UNL     1       6.796   4.601 -23.692  0.00  0.00    +0.048 C 
ATOM     26  C   UNL     1       5.512   4.403 -23.636  0.00  0.00    +0.226 C 
ENDBRANCH  24  26
ENDBRANCH   1  24
BRANCH  15  27
ATOM     27  O   UNL     1      -4.009   2.563 -22.974  0.00  0.00    -0.488 OA
BRANCH  27  28
ATOM     28  C   UNL     1      -4.676   3.395 -22.230  0.00  0.00    +0.226 C 
ATOM     29  C   UNL     1      -5.785   3.019 -21.667  0.00  0.00    +0.048 C 
ENDBRANCH  27  28
ENDBRANCH  15  27
TORSDOF 6
ENDMDL
MODEL 5
REMARK VINA RESULT:    -8.496      2.361      5.014
REMARK INTER + INTRA:         -10.924
REMARK INTER:                 -10.979
REMARK INTRA:                   0.055
REMARK UNBOUND:                 0.552
REMARK  Name = CCOc1cc2c(cc1OC)CC[N@+]1(C)Cc3c(ccc(OC)c3OCC)C[C@H]21                ZINC000248382775
REMARK  11 active torsions:
REMARK  status: ('A' for Active; 'I' for Inactive)
REMARK    1  A    between atoms: C_1  and  C_2
REMARK    2  A    between atoms: C_2  and  O_3
REMARK    3  A    between atoms: O_3  and  C_4
REMARK    4  A    between atoms: C_9  and  O_10
REMARK    5  A    between atoms: O_10  and  C_11
REMARK    6  A    between atoms: N_14  and  C_15
REMARK    7  A    between atoms: C_21  and  O_22
REMARK    8  A    between atoms: O_22  and  C_23
REMARK    9  A    between atoms: C_24  and  O_25
REMARK   10  A    between atoms: O_25  and  C_26
REMARK   11  A    between atoms: C_26  and  C_27
REMARK                            x       y       z     vdW  Elec       q    Type
REMARK                         _______ _______ _______ _____ _____    ______ ____
ROOT
ATOM      1  C   UNL     1       6.729   4.791 -23.147  0.00  0.00    +0.162 A 
ATOM      2  C   UNL     1       5.485   4.500 -23.386  0.00  0.00    +0.058 A 
ATOM      3  C   UNL     1       4.868   3.627 -22.646  0.00  0.00    +0.008 A 
ATOM      4  C   UNL     1       5.496   3.046 -21.667  0.00  0.00    -0.030 A 
ATOM      5  C   UNL     1       4.878   2.172 -20.926  0.00  0.00    +0.086 C 
ATOM      6  C   UNL     1       3.634   1.881 -21.165  0.00  0.00    +0.138 C 
ATOM      7  N   UNL     1       3.007   2.462 -22.144  0.00  0.00    +0.250 N 
ATOM      8  C   UNL     1       1.763   2.171 -22.383  0.00  0.00    +0.174 C 
ATOM      9  C   UNL     1       1.135   2.752 -23.362  0.00  0.00    +0.046 A 
ATOM     10  C   UNL     1       1.752   3.626 -24.102  0.00  0.00    -0.030 A 
ATOM     11  C   UNL     1       2.996   3.917 -23.863  0.00  0.00    +0.095 C 
ATOM     12  C   UNL     1       1.125   4.207 -25.081  0.00  0.00    +0.008 A 
ATOM     13  C   UNL     1      -0.120   3.916 -25.320  0.00  0.00    +0.050 A 
ATOM     14  C   UNL     1      -0.736   3.043 -24.580  0.00  0.00    +0.162 A 
ATOM     15  C   UNL     1      -0.109   2.462 -23.601  0.00  0.00    +0.170 A 
ATOM     16  C   UNL     1       2.390   1.590 -21.404  0.00  0.00    +0.193 C 
ATOM     17  C   UNL     1       6.740   3.336 -21.428  0.00  0.00    +0.053 A 
ATOM     18  C   UNL     1       3.624   3.336 -22.885  0.00  0.00    +0.102 C 
ATOM     19  C   UNL     1       7.356   4.209 -22.168  0.00  0.00    +0.162 A 
ENDROOT
BRANCH  14  20
ATOM     20  O   UNL     1      -1.981   2.751 -24.819  0.00  0.00    -0.491 OA
ATOM     21  C   UNL     1      -2.780   3.657 -25.301  0.00  0.00    +0.277 C 
ENDBRANCH  14  20
BRANCH  19  22
ATOM     22  O   UNL     1       8.601   4.501 -21.929  0.00  0.00    -0.491 OA
ATOM     23  C   UNL     1       8.914   5.199 -20.879  0.00  0.00    +0.277 C 
ENDBRANCH  19  22
BRANCH   1  24
ATOM     24  O   UNL     1       7.346   5.664 -23.887  0.00  0.00    -0.489 OA
BRANCH  24  26
ATOM     25  C   UNL     1       8.713   6.134 -25.614  0.00  0.00    +0.048 C 
ATOM     26  C   UNL     1       8.029   5.272 -24.922  0.00  0.00    +0.226 C 
ENDBRANCH  24  26
ENDBRANCH   1  24
BRANCH  15  27
ATOM     27  O   UNL     1      -0.726   1.589 -22.861  0.00  0.00    -0.488 OA
BRANCH  27  28
ATOM     28  C   UNL     1      -1.163   1.927 -21.684  0.00  0.00    +0.226 C 
ATOM     29  C   UNL     1      -2.384   2.351 -21.541  0.00  0.00    +0.048 C 
ENDBRANCH  27  28
ENDBRANCH  15  27
TORSDOF 6
ENDMDL
MODEL 6
REMARK VINA RESULT:    -7.468      4.479      6.867
REMARK INTER + INTRA:          -9.536
REMARK INTER:                  -9.167
REMARK INTRA:                  -0.369
REMARK UNBOUND:                 0.552
REMARK  Name = CCOc1cc2c(cc1OC)CC[N@+]1(C)Cc3c(ccc(OC)c3OCC)C[C@H]21                ZINC000248382775
REMARK  11 active torsions:
REMARK  status: ('A' for Active; 'I' for Inactive)
REMARK    1  A    between atoms: C_1  and  C_2
REMARK    2  A    between atoms: C_2  and  O_3
REMARK    3  A    between atoms: O_3  and  C_4
REMARK    4  A    between atoms: C_9  and  O_10
REMARK    5  A    between atoms: O_10  and  C_11
REMARK    6  A    between atoms: N_14  and  C_15
REMARK    7  A    between atoms: C_21  and  O_22
REMARK    8  A    between atoms: O_22  and  C_23
REMARK    9  A    between atoms: C_24  and  O_25
REMARK   10  A    between atoms: O_25  and  C_26
REMARK   11  A    between atoms: C_26  and  C_27
REMARK                            x       y       z     vdW  Elec       q    Type
REMARK                         _______ _______ _______ _____ _____    ______ ____
ROOT
ATOM      1  C   UNL     1       5.481   8.992 -21.599  0.00  0.00    +0.162 A 
ATOM      2  C   UNL     1       4.683   8.036 -21.970  0.00  0.00    +0.058 A 
ATOM      3  C   UNL     1       5.145   6.833 -22.144  0.00  0.00    +0.008 A 
ATOM      4  C   UNL     1       6.407   6.587 -21.945  0.00  0.00    -0.030 A 
ATOM      5  C   UNL     1       6.869   5.384 -22.118  0.00  0.00    +0.086 C 
ATOM      6  C   UNL     1       6.072   4.428 -22.490  0.00  0.00    +0.138 C 
ATOM      7  N   UNL     1       4.811   4.673 -22.688  0.00  0.00    +0.250 N 
ATOM      8  C   UNL     1       4.013   3.717 -23.060  0.00  0.00    +0.174 C 
ATOM      9  C   UNL     1       2.752   3.963 -23.259  0.00  0.00    +0.046 A 
ATOM     10  C   UNL     1       2.289   5.166 -23.085  0.00  0.00    -0.030 A 
ATOM     11  C   UNL     1       3.087   6.122 -22.714  0.00  0.00    +0.095 C 
ATOM     12  C   UNL     1       1.028   5.411 -23.284  0.00  0.00    +0.008 A 
ATOM     13  C   UNL     1       0.229   4.456 -23.656  0.00  0.00    +0.050 A 
ATOM     14  C   UNL     1       0.692   3.253 -23.829  0.00  0.00    +0.162 A 
ATOM     15  C   UNL     1       1.953   3.007 -23.630  0.00  0.00    +0.170 A 
ATOM     16  C   UNL     1       5.274   3.471 -22.861  0.00  0.00    +0.193 C 
ATOM     17  C   UNL     1       7.205   7.543 -21.573  0.00  0.00    +0.053 A 
ATOM     18  C   UNL     1       4.348   5.877 -22.515  0.00  0.00    +0.102 C 
ATOM     19  C   UNL     1       6.742   8.745 -21.400  0.00  0.00    +0.162 A 
ENDROOT
BRANCH  14  20
ATOM     20  O   UNL     1      -0.106   2.296 -24.200  0.00  0.00    -0.491 OA
ATOM     21  C   UNL     1      -1.335   2.273 -23.776  0.00  0.00    +0.277 C 
ENDBRANCH  14  20
BRANCH  19  22
ATOM     22  O   UNL     1       7.540   9.702 -21.029  0.00  0.00    -0.491 OA
ATOM     23  C   UNL     1       8.528  10.058 -21.795  0.00  0.00    +0.277 C 
ENDBRANCH  19  22
BRANCH   1  24
ATOM     24  O   UNL     1       5.018  10.194 -21.426  0.00  0.00    -0.489 OA
BRANCH  24  26
ATOM     25  C   UNL     1       3.448  11.525 -22.340  0.00  0.00    +0.048 C 
ATOM     26  C   UNL     1       4.567  10.869 -22.441  0.00  0.00    +0.226 C 
ENDBRANCH  24  26
ENDBRANCH   1  24
BRANCH  15  27
ATOM     27  O   UNL     1       2.416   1.804 -23.803  0.00  0.00    -0.488 OA
BRANCH  27  28
ATOM     28  C   UNL     1       2.236   0.900 -22.886  0.00  0.00    +0.226 C 
ATOM     29  C   UNL     1       3.259   0.391 -22.266  0.00  0.00    +0.048 C 
ENDBRANCH  27  28
ENDBRANCH  15  27
TORSDOF 6
ENDMDL
