MODEL 1
REMARK VINA RESULT:    -9.474      0.000      0.000
REMARK INTER + INTRA:         -10.286
REMARK INTER:                 -10.085
REMARK INTRA:                  -0.202
REMARK UNBOUND:                 0.295
REMARK  Name = CC[N@+]1(C)CCc2cc3c(c4c2[C@H]1Cc1ccc(OC)cc1-4)OCO3                   ZINC000249692479
REMARK  5 active torsions:
REMARK  status: ('A' for Active; 'I' for Inactive)
REMARK    1  A    between atoms: C_1  and  C_2
REMARK    2  A    between atoms: C_2  and  N_3
REMARK    3  A    between atoms: N_3  and  C_4
REMARK    4  A    between atoms: C_18  and  O_19
REMARK    5  A    between atoms: O_19  and  C_20
REMARK                            x       y       z     vdW  Elec       q    Type
REMARK                         _______ _______ _______ _____ _____    ______ ____
ROOT
ATOM      1  N   UNL     1       0.972   2.108 -22.275  0.00  0.00    +0.247 N 
ATOM      2  C   UNL     1       1.755   2.210 -23.306  0.00  0.00    +0.138 C 
ATOM      3  C   UNL     1       1.271   2.572 -24.457  0.00  0.00    +0.086 C 
ATOM      4  C   UNL     1       0.003   2.833 -24.576  0.00  0.00    -0.030 A 
ATOM      5  C   UNL     1      -0.480   3.195 -25.727  0.00  0.00    +0.054 A 
ATOM      6  C   UNL     1      -1.748   3.456 -25.847  0.00  0.00    +0.167 A 
ATOM      7  C   UNL     1      -2.533   3.354 -24.814  0.00  0.00    +0.174 A 
ATOM      8  O   UNL     1      -3.737   3.665 -25.192  0.00  0.00    -0.452 OA
ATOM      9  C   UNL     1      -3.697   3.958 -26.459  0.00  0.00    +0.466 C 
ATOM     10  C   UNL     1      -2.048   2.992 -23.663  0.00  0.00    +0.037 A 
ATOM     11  C   UNL     1      -2.833   2.890 -22.631  0.00  0.00    -0.007 A 
ATOM     12  C   UNL     1      -4.101   3.151 -22.750  0.00  0.00    +0.054 A 
ATOM     13  C   UNL     1      -4.884   3.049 -21.718  0.00  0.00    +0.121 A 
ATOM     14  C   UNL     1      -4.401   2.687 -20.568  0.00  0.00    +0.046 A 
ATOM     15  C   UNL     1      -3.133   2.427 -20.448  0.00  0.00    +0.008 A 
ATOM     16  C   UNL     1      -2.349   2.528 -21.480  0.00  0.00    -0.034 A 
ATOM     17  C   UNL     1      -1.081   2.267 -21.361  0.00  0.00    +0.095 C 
ATOM     18  O   UNL     1      -2.468   3.829 -26.863  0.00  0.00    -0.453 OA
ATOM     19  C   UNL     1      -0.781   2.731 -23.545  0.00  0.00    +0.015 A 
ATOM     20  C   UNL     1       0.580   1.890 -21.054  0.00  0.00    +0.193 C 
ATOM     21  C   UNL     1      -0.297   2.369 -22.394  0.00  0.00    +0.102 C 
ENDROOT
BRANCH   1  23
ATOM     22  C   UNL     1       2.677   0.654 -22.065  0.00  0.00    +0.060 C 
ATOM     23  C   UNL     1       2.103   1.772 -21.732  0.00  0.00    +0.130 C 
ENDBRANCH   1  23
BRANCH  13  24
ATOM     24  O   UNL     1      -6.153   3.310 -21.837  0.00  0.00    -0.495 OA
ATOM     25  C   UNL     1      -7.027   2.356 -21.714  0.00  0.00    +0.277 C 
ENDBRANCH  13  24
TORSDOF 2
ENDMDL
MODEL 2
REMARK VINA RESULT:    -8.763      2.368      5.168
REMARK INTER + INTRA:          -9.492
REMARK INTER:                  -9.184
REMARK INTRA:                  -0.308
REMARK UNBOUND:                 0.295
REMARK  Name = CC[N@+]1(C)CCc2cc3c(c4c2[C@H]1Cc1ccc(OC)cc1-4)OCO3                   ZINC000249692479
REMARK  5 active torsions:
REMARK  status: ('A' for Active; 'I' for Inactive)
REMARK    1  A    between atoms: C_1  and  C_2
REMARK    2  A    between atoms: C_2  and  N_3
REMARK    3  A    between atoms: N_3  and  C_4
REMARK    4  A    between atoms: C_18  and  O_19
REMARK    5  A    between atoms: O_19  and  C_20
REMARK                            x       y       z     vdW  Elec       q    Type
REMARK                         _______ _______ _______ _____ _____    ______ ____
ROOT
ATOM      1  N   UNL     1      -3.752   3.196 -22.469  0.00  0.00    +0.247 N 
ATOM      2  C   UNL     1      -4.261   3.736 -23.535  0.00  0.00    +0.138 C 
ATOM      3  C   UNL     1      -3.503   3.992 -24.559  0.00  0.00    +0.086 C 
ATOM      4  C   UNL     1      -2.235   3.707 -24.518  0.00  0.00    -0.030 A 
ATOM      5  C   UNL     1      -1.477   3.963 -25.543  0.00  0.00    +0.054 A 
ATOM      6  C   UNL     1      -0.210   3.678 -25.501  0.00  0.00    +0.167 A 
ATOM      7  C   UNL     1       0.300   3.138 -24.433  0.00  0.00    +0.174 A 
ATOM      8  O   UNL     1       1.570   2.955 -24.643  0.00  0.00    -0.452 OA
ATOM      9  C   UNL     1       1.845   3.382 -25.840  0.00  0.00    +0.466 C 
ATOM     10  C   UNL     1      -0.458   2.882 -23.409  0.00  0.00    +0.037 A 
ATOM     11  C   UNL     1       0.052   2.342 -22.342  0.00  0.00    -0.007 A 
ATOM     12  C   UNL     1       1.320   2.057 -22.300  0.00  0.00    +0.054 A 
ATOM     13  C   UNL     1       1.829   1.517 -21.233  0.00  0.00    +0.121 A 
ATOM     14  C   UNL     1       1.072   1.261 -20.209  0.00  0.00    +0.046 A 
ATOM     15  C   UNL     1      -0.196   1.546 -20.250  0.00  0.00    +0.008 A 
ATOM     16  C   UNL     1      -0.706   2.086 -21.317  0.00  0.00    -0.034 A 
ATOM     17  C   UNL     1      -1.974   2.371 -21.359  0.00  0.00    +0.095 C 
ATOM     18  O   UNL     1       0.745   3.829 -26.370  0.00  0.00    -0.453 OA
ATOM     19  C   UNL     1      -1.726   3.167 -23.451  0.00  0.00    +0.015 A 
ATOM     20  C   UNL     1      -3.673   2.694 -21.271  0.00  0.00    +0.193 C 
ATOM     21  C   UNL     1      -2.483   2.911 -22.426  0.00  0.00    +0.102 C 
ENDROOT
BRANCH   1  23
ATOM     22  C   UNL     1      -5.514   2.416 -21.305  0.00  0.00    +0.060 C 
ATOM     23  C   UNL     1      -4.991   3.306 -22.095  0.00  0.00    +0.130 C 
ENDBRANCH   1  23
BRANCH  13  24
ATOM     24  O   UNL     1       3.097   1.232 -21.190  0.00  0.00    -0.495 OA
ATOM     25  C   UNL     1       3.686   0.733 -22.236  0.00  0.00    +0.277 C 
ENDBRANCH  13  24
TORSDOF 2
ENDMDL
MODEL 3
REMARK VINA RESULT:    -8.366      1.402      3.869
REMARK INTER + INTRA:          -9.049
REMARK INTER:                  -8.782
REMARK INTRA:                  -0.267
REMARK UNBOUND:                 0.295
REMARK  Name = CC[N@+]1(C)CCc2cc3c(c4c2[C@H]1Cc1ccc(OC)cc1-4)OCO3                   ZINC000249692479
REMARK  5 active torsions:
REMARK  status: ('A' for Active; 'I' for Inactive)
REMARK    1  A    between atoms: C_1  and  C_2
REMARK    2  A    between atoms: C_2  and  N_3
REMARK    3  A    between atoms: N_3  and  C_4
REMARK    4  A    between atoms: C_18  and  O_19
REMARK    5  A    between atoms: O_19  and  C_20
REMARK                            x       y       z     vdW  Elec       q    Type
REMARK                         _______ _______ _______ _____ _____    ______ ____
ROOT
ATOM      1  N   UNL     1       1.653   2.432 -24.051  0.00  0.00    +0.247 N 
ATOM      2  C   UNL     1       2.127   2.068 -22.897  0.00  0.00    +0.138 C 
ATOM      3  C   UNL     1       1.329   1.937 -21.879  0.00  0.00    +0.086 C 
ATOM      4  C   UNL     1       0.057   2.170 -22.015  0.00  0.00    -0.030 A 
ATOM      5  C   UNL     1      -0.740   2.039 -20.997  0.00  0.00    +0.054 A 
ATOM      6  C   UNL     1      -2.012   2.272 -21.133  0.00  0.00    +0.167 A 
ATOM      7  C   UNL     1      -2.485   2.636 -22.288  0.00  0.00    +0.174 A 
ATOM      8  O   UNL     1      -3.768   2.805 -22.161  0.00  0.00    -0.452 OA
ATOM      9  C   UNL     1      -4.087   2.545 -20.927  0.00  0.00    +0.466 C 
ATOM     10  C   UNL     1      -1.687   2.767 -23.306  0.00  0.00    +0.037 A 
ATOM     11  C   UNL     1      -2.162   3.132 -24.460  0.00  0.00    -0.007 A 
ATOM     12  C   UNL     1      -3.434   3.365 -24.597  0.00  0.00    +0.054 A 
ATOM     13  C   UNL     1      -3.907   3.729 -25.751  0.00  0.00    +0.121 A 
ATOM     14  C   UNL     1      -3.110   3.860 -26.769  0.00  0.00    +0.046 A 
ATOM     15  C   UNL     1      -1.838   3.627 -26.633  0.00  0.00    +0.008 A 
ATOM     16  C   UNL     1      -1.364   3.263 -25.478  0.00  0.00    -0.034 A 
ATOM     17  C   UNL     1      -0.092   3.030 -25.342  0.00  0.00    +0.095 C 
ATOM     18  O   UNL     1      -3.002   2.215 -20.292  0.00  0.00    -0.453 OA
ATOM     19  C   UNL     1      -0.416   2.534 -23.169  0.00  0.00    +0.015 A 
ATOM     20  C   UNL     1       1.617   2.754 -25.310  0.00  0.00    +0.193 C 
ATOM     21  C   UNL     1       0.381   2.665 -24.188  0.00  0.00    +0.102 C 
ENDROOT
BRANCH   1  23
ATOM     22  C   UNL     1       3.453   1.131 -24.420  0.00  0.00    +0.060 C 
ATOM     23  C   UNL     1       2.912   2.311 -24.352  0.00  0.00    +0.130 C 
ENDBRANCH   1  23
BRANCH  13  24
ATOM     24  O   UNL     1      -5.179   3.962 -25.888  0.00  0.00    -0.495 OA
ATOM     25  C   UNL     1      -5.960   3.937 -24.849  0.00  0.00    +0.277 C 
ENDBRANCH  13  24
TORSDOF 2
ENDMDL
MODEL 4
REMARK VINA RESULT:    -8.261      4.797      8.182
REMARK INTER + INTRA:          -8.931
REMARK INTER:                  -8.602
REMARK INTRA:                  -0.329
REMARK UNBOUND:                 0.295
REMARK  Name = CC[N@+]1(C)CCc2cc3c(c4c2[C@H]1Cc1ccc(OC)cc1-4)OCO3                   ZINC000249692479
REMARK  5 active torsions:
REMARK  status: ('A' for Active; 'I' for Inactive)
REMARK    1  A    between atoms: C_1  and  C_2
REMARK    2  A    between atoms: C_2  and  N_3
REMARK    3  A    between atoms: N_3  and  C_4
REMARK    4  A    between atoms: C_18  and  O_19
REMARK    5  A    between atoms: O_19  and  C_20
REMARK                            x       y       z     vdW  Elec       q    Type
REMARK                         _______ _______ _______ _____ _____    ______ ____
ROOT
ATOM      1  N   UNL     1       1.047   4.069 -23.511  0.00  0.00    +0.247 N 
ATOM      2  C   UNL     1       0.188   3.107 -23.352  0.00  0.00    +0.138 C 
ATOM      3  C   UNL     1       0.550   2.003 -22.769  0.00  0.00    +0.086 C 
ATOM      4  C   UNL     1       1.771   1.861 -22.345  0.00  0.00    -0.030 A 
ATOM      5  C   UNL     1       2.132   0.756 -21.762  0.00  0.00    +0.054 A 
ATOM      6  C   UNL     1       3.353   0.614 -21.339  0.00  0.00    +0.167 A 
ATOM      7  C   UNL     1       4.212   1.577 -21.498  0.00  0.00    +0.174 A 
ATOM      8  O   UNL     1       5.347   1.190 -20.995  0.00  0.00    -0.452 OA
ATOM      9  C   UNL     1       5.188  -0.012 -20.524  0.00  0.00    +0.466 C 
ATOM     10  C   UNL     1       3.850   2.681 -22.081  0.00  0.00    +0.037 A 
ATOM     11  C   UNL     1       4.710   3.644 -22.241  0.00  0.00    -0.007 A 
ATOM     12  C   UNL     1       5.931   3.501 -21.817  0.00  0.00    +0.054 A 
ATOM     13  C   UNL     1       6.789   4.464 -21.977  0.00  0.00    +0.121 A 
ATOM     14  C   UNL     1       6.429   5.568 -22.559  0.00  0.00    +0.046 A 
ATOM     15  C   UNL     1       5.208   5.710 -22.983  0.00  0.00    +0.008 A 
ATOM     16  C   UNL     1       4.348   4.748 -22.824  0.00  0.00    -0.034 A 
ATOM     17  C   UNL     1       3.127   4.890 -23.247  0.00  0.00    +0.095 C 
ATOM     18  O   UNL     1       3.956  -0.368 -20.737  0.00  0.00    -0.453 OA
ATOM     19  C   UNL     1       2.630   2.823 -22.505  0.00  0.00    +0.015 A 
ATOM     20  C   UNL     1       1.542   5.220 -23.860  0.00  0.00    +0.193 C 
ATOM     21  C   UNL     1       2.269   3.927 -23.088  0.00  0.00    +0.102 C 
ENDROOT
BRANCH   1  23
ATOM     22  C   UNL     1      -0.848   5.269 -23.322  0.00  0.00    +0.060 C 
ATOM     23  C   UNL     1      -0.001   4.610 -24.056  0.00  0.00    +0.130 C 
ENDBRANCH   1  23
BRANCH  13  24
ATOM     24  O   UNL     1       8.011   4.322 -21.553  0.00  0.00    -0.495 OA
ATOM     25  C   UNL     1       8.472   5.107 -20.625  0.00  0.00    +0.277 C 
ENDBRANCH  13  24
TORSDOF 2
ENDMDL
MODEL 5
REMARK VINA RESULT:    -7.862      2.330      5.945
REMARK INTER + INTRA:          -8.486
REMARK INTER:                  -8.254
REMARK INTRA:                  -0.231
REMARK UNBOUND:                 0.295
REMARK  Name = CC[N@+]1(C)CCc2cc3c(c4c2[C@H]1Cc1ccc(OC)cc1-4)OCO3                   ZINC000249692479
REMARK  5 active torsions:
REMARK  status: ('A' for Active; 'I' for Inactive)
REMARK    1  A    between atoms: C_1  and  C_2
REMARK    2  A    between atoms: C_2  and  N_3
REMARK    3  A    between atoms: N_3  and  C_4
REMARK    4  A    between atoms: C_18  and  O_19
REMARK    5  A    between atoms: O_19  and  C_20
REMARK                            x       y       z     vdW  Elec       q    Type
REMARK                         _______ _______ _______ _____ _____    ______ ____
ROOT
ATOM      1  N   UNL     1      -3.598   3.571 -26.014  0.00  0.00    +0.247 N 
ATOM      2  C   UNL     1      -4.847   3.801 -25.738  0.00  0.00    +0.138 C 
ATOM      3  C   UNL     1      -5.241   3.851 -24.500  0.00  0.00    +0.086 C 
ATOM      4  C   UNL     1      -4.386   3.670 -23.538  0.00  0.00    -0.030 A 
ATOM      5  C   UNL     1      -4.781   3.720 -22.300  0.00  0.00    +0.054 A 
ATOM      6  C   UNL     1      -3.927   3.540 -21.338  0.00  0.00    +0.167 A 
ATOM      7  C   UNL     1      -2.676   3.309 -21.614  0.00  0.00    +0.174 A 
ATOM      8  O   UNL     1      -2.037   3.166 -20.490  0.00  0.00    -0.452 OA
ATOM      9  C   UNL     1      -2.892   3.308 -19.521  0.00  0.00    +0.466 C 
ATOM     10  C   UNL     1      -2.282   3.260 -22.851  0.00  0.00    +0.037 A 
ATOM     11  C   UNL     1      -1.033   3.029 -23.126  0.00  0.00    -0.007 A 
ATOM     12  C   UNL     1      -0.178   2.849 -22.164  0.00  0.00    +0.054 A 
ATOM     13  C   UNL     1       1.071   2.618 -22.440  0.00  0.00    +0.121 A 
ATOM     14  C   UNL     1       1.466   2.569 -23.676  0.00  0.00    +0.046 A 
ATOM     15  C   UNL     1       0.611   2.749 -24.639  0.00  0.00    +0.008 A 
ATOM     16  C   UNL     1      -0.639   2.980 -24.364  0.00  0.00    -0.034 A 
ATOM     17  C   UNL     1      -1.493   3.160 -25.327  0.00  0.00    +0.095 C 
ATOM     18  O   UNL     1      -4.060   3.539 -20.044  0.00  0.00    -0.453 OA
ATOM     19  C   UNL     1      -3.138   3.440 -23.813  0.00  0.00    +0.015 A 
ATOM     20  C   UNL     1      -2.515   3.381 -26.707  0.00  0.00    +0.193 C 
ATOM     21  C   UNL     1      -2.743   3.390 -25.051  0.00  0.00    +0.102 C 
ENDROOT
BRANCH   1  23
ATOM     22  C   UNL     1      -3.337   3.384 -28.242  0.00  0.00    +0.060 C 
ATOM     23  C   UNL     1      -4.077   3.686 -27.216  0.00  0.00    +0.130 C 
ENDBRANCH   1  23
BRANCH  13  24
ATOM     24  O   UNL     1       1.927   2.438 -21.477  0.00  0.00    -0.495 OA
ATOM     25  C   UNL     1       2.719   1.407 -21.496  0.00  0.00    +0.277 C 
ENDBRANCH  13  24
TORSDOF 2
ENDMDL
MODEL 6
REMARK VINA RESULT:    -7.711      2.728      6.401
REMARK INTER + INTRA:          -8.317
REMARK INTER:                  -7.937
REMARK INTRA:                  -0.380
REMARK UNBOUND:                 0.295
REMARK  Name = CC[N@+]1(C)CCc2cc3c(c4c2[C@H]1Cc1ccc(OC)cc1-4)OCO3                   ZINC000249692479
REMARK  5 active torsions:
REMARK  status: ('A' for Active; 'I' for Inactive)
REMARK    1  A    between atoms: C_1  and  C_2
REMARK    2  A    between atoms: C_2  and  N_3
REMARK    3  A    between atoms: N_3  and  C_4
REMARK    4  A    between atoms: C_18  and  O_19
REMARK    5  A    between atoms: O_19  and  C_20
REMARK                            x       y       z     vdW  Elec       q    Type
REMARK                         _______ _______ _______ _____ _____    ______ ____
ROOT
ATOM      1  N   UNL     1      -3.698   3.707 -23.739  0.00  0.00    +0.247 N 
ATOM      2  C   UNL     1      -4.370   3.372 -22.677  0.00  0.00    +0.138 C 
ATOM      3  C   UNL     1      -3.763   2.804 -21.677  0.00  0.00    +0.086 C 
ATOM      4  C   UNL     1      -2.486   2.571 -21.739  0.00  0.00    -0.030 A 
ATOM      5  C   UNL     1      -1.880   2.003 -20.738  0.00  0.00    +0.054 A 
ATOM      6  C   UNL     1      -0.603   1.769 -20.800  0.00  0.00    +0.167 A 
ATOM      7  C   UNL     1       0.069   2.104 -21.862  0.00  0.00    +0.174 A 
ATOM      8  O   UNL     1       1.310   1.768 -21.675  0.00  0.00    -0.452 OA
ATOM      9  C   UNL     1       1.406   1.225 -20.497  0.00  0.00    +0.466 C 
ATOM     10  C   UNL     1      -0.538   2.672 -22.862  0.00  0.00    +0.037 A 
ATOM     11  C   UNL     1       0.134   3.007 -23.924  0.00  0.00    -0.007 A 
ATOM     12  C   UNL     1       1.412   2.773 -23.985  0.00  0.00    +0.054 A 
ATOM     13  C   UNL     1       2.082   3.108 -25.047  0.00  0.00    +0.121 A 
ATOM     14  C   UNL     1       1.477   3.676 -26.047  0.00  0.00    +0.046 A 
ATOM     15  C   UNL     1       0.200   3.909 -25.985  0.00  0.00    +0.008 A 
ATOM     16  C   UNL     1      -0.472   3.575 -24.924  0.00  0.00    -0.034 A 
ATOM     17  C   UNL     1      -1.750   3.808 -24.862  0.00  0.00    +0.095 C 
ATOM     18  O   UNL     1       0.224   1.226 -19.956  0.00  0.00    -0.453 OA
ATOM     19  C   UNL     1      -1.815   2.905 -22.800  0.00  0.00    +0.015 A 
ATOM     20  C   UNL     1      -3.439   4.180 -24.922  0.00  0.00    +0.193 C 
ATOM     21  C   UNL     1      -2.420   3.473 -23.800  0.00  0.00    +0.102 C 
ENDROOT
BRANCH   1  23
ATOM     22  C   UNL     1      -5.400   3.703 -25.212  0.00  0.00    +0.060 C 
ATOM     23  C   UNL     1      -4.885   4.104 -24.088  0.00  0.00    +0.130 C 
ENDBRANCH   1  23
BRANCH  13  24
ATOM     24  O   UNL     1       3.360   2.875 -25.109  0.00  0.00    -0.495 OA
ATOM     25  C   UNL     1       3.943   2.196 -24.167  0.00  0.00    +0.277 C 
ENDBRANCH  13  24
TORSDOF 2
ENDMDL
MODEL 7
REMARK VINA RESULT:    -7.244      4.000      5.754
REMARK INTER + INTRA:          -7.796
REMARK INTER:                  -7.484
REMARK INTRA:                  -0.311
REMARK UNBOUND:                 0.295
REMARK  Name = CC[N@+]1(C)CCc2cc3c(c4c2[C@H]1Cc1ccc(OC)cc1-4)OCO3                   ZINC000249692479
REMARK  5 active torsions:
REMARK  status: ('A' for Active; 'I' for Inactive)
REMARK    1  A    between atoms: C_1  and  C_2
REMARK    2  A    between atoms: C_2  and  N_3
REMARK    3  A    between atoms: N_3  and  C_4
REMARK    4  A    between atoms: C_18  and  O_19
REMARK    5  A    between atoms: O_19  and  C_20
REMARK                            x       y       z     vdW  Elec       q    Type
REMARK                         _______ _______ _______ _____ _____    ______ ____
ROOT
ATOM      1  N   UNL     1       4.430   6.275 -22.498  0.00  0.00    +0.247 N 
ATOM      2  C   UNL     1       5.652   5.836 -22.493  0.00  0.00    +0.138 C 
ATOM      3  C   UNL     1       5.906   4.616 -22.865  0.00  0.00    +0.086 C 
ATOM      4  C   UNL     1       4.937   3.836 -23.241  0.00  0.00    -0.030 A 
ATOM      5  C   UNL     1       5.191   2.616 -23.612  0.00  0.00    +0.054 A 
ATOM      6  C   UNL     1       4.222   1.836 -23.988  0.00  0.00    +0.167 A 
ATOM      7  C   UNL     1       2.998   2.276 -23.993  0.00  0.00    +0.174 A 
ATOM      8  O   UNL     1       2.227   1.313 -24.405  0.00  0.00    -0.452 OA
ATOM      9  C   UNL     1       2.974   0.279 -24.655  0.00  0.00    +0.466 C 
ATOM     10  C   UNL     1       2.744   3.495 -23.621  0.00  0.00    +0.037 A 
ATOM     11  C   UNL     1       1.520   3.935 -23.626  0.00  0.00    -0.007 A 
ATOM     12  C   UNL     1       0.551   3.154 -24.002  0.00  0.00    +0.054 A 
ATOM     13  C   UNL     1      -0.672   3.595 -24.006  0.00  0.00    +0.121 A 
ATOM     14  C   UNL     1      -0.926   4.813 -23.635  0.00  0.00    +0.046 A 
ATOM     15  C   UNL     1       0.043   5.594 -23.259  0.00  0.00    +0.008 A 
ATOM     16  C   UNL     1       1.267   5.154 -23.254  0.00  0.00    -0.034 A 
ATOM     17  C   UNL     1       2.236   5.935 -22.878  0.00  0.00    +0.095 C 
ATOM     18  O   UNL     1       4.207   0.602 -24.397  0.00  0.00    -0.453 OA
ATOM     19  C   UNL     1       3.714   4.275 -23.245  0.00  0.00    +0.015 A 
ATOM     20  C   UNL     1       3.421   7.083 -22.354  0.00  0.00    +0.193 C 
ATOM     21  C   UNL     1       3.459   5.494 -22.874  0.00  0.00    +0.102 C 
ENDROOT
BRANCH   1  23
ATOM     22  C   UNL     1       4.549   8.030 -21.093  0.00  0.00    +0.060 C 
ATOM     23  C   UNL     1       5.048   7.335 -22.072  0.00  0.00    +0.130 C 
ENDBRANCH   1  23
BRANCH  13  24
ATOM     24  O   UNL     1      -1.642   2.814 -24.383  0.00  0.00    -0.495 OA
ATOM     25  C   UNL     1      -2.442   3.185 -25.337  0.00  0.00    +0.277 C 
ENDBRANCH  13  24
TORSDOF 2
ENDMDL
MODEL 8
REMARK VINA RESULT:    -7.018      6.535      8.862
REMARK INTER + INTRA:          -7.544
REMARK INTER:                  -7.217
REMARK INTRA:                  -0.327
REMARK UNBOUND:                 0.295
REMARK  Name = CC[N@+]1(C)CCc2cc3c(c4c2[C@H]1Cc1ccc(OC)cc1-4)OCO3                   ZINC000249692479
REMARK  5 active torsions:
REMARK  status: ('A' for Active; 'I' for Inactive)
REMARK    1  A    between atoms: C_1  and  C_2
REMARK    2  A    between atoms: C_2  and  N_3
REMARK    3  A    between atoms: N_3  and  C_4
REMARK    4  A    between atoms: C_18  and  O_19
REMARK    5  A    between atoms: O_19  and  C_20
REMARK                            x       y       z     vdW  Elec       q    Type
REMARK                         _______ _______ _______ _____ _____    ______ ____
ROOT
ATOM      1  N   UNL     1       5.304   8.446 -21.502  0.00  0.00    +0.247 N 
ATOM      2  C   UNL     1       6.532   8.786 -21.246  0.00  0.00    +0.138 C 
ATOM      3  C   UNL     1       7.501   7.957 -21.498  0.00  0.00    +0.086 C 
ATOM      4  C   UNL     1       7.243   6.789 -22.006  0.00  0.00    -0.030 A 
ATOM      5  C   UNL     1       8.213   5.961 -22.258  0.00  0.00    +0.054 A 
ATOM      6  C   UNL     1       7.954   4.792 -22.767  0.00  0.00    +0.167 A 
ATOM      7  C   UNL     1       6.725   4.453 -23.023  0.00  0.00    +0.174 A 
ATOM      8  O   UNL     1       6.736   3.251 -23.520  0.00  0.00    -0.452 OA
ATOM      9  C   UNL     1       7.971   2.849 -23.570  0.00  0.00    +0.466 C 
ATOM     10  C   UNL     1       5.756   5.282 -22.771  0.00  0.00    +0.037 A 
ATOM     11  C   UNL     1       4.527   4.941 -23.027  0.00  0.00    -0.007 A 
ATOM     12  C   UNL     1       4.269   3.773 -23.535  0.00  0.00    +0.054 A 
ATOM     13  C   UNL     1       3.040   3.434 -23.791  0.00  0.00    +0.121 A 
ATOM     14  C   UNL     1       2.071   4.262 -23.540  0.00  0.00    +0.046 A 
ATOM     15  C   UNL     1       2.329   5.430 -23.031  0.00  0.00    +0.008 A 
ATOM     16  C   UNL     1       3.558   5.770 -22.775  0.00  0.00    -0.034 A 
ATOM     17  C   UNL     1       3.816   6.938 -22.267  0.00  0.00    +0.095 C 
ATOM     18  O   UNL     1       8.724   3.801 -23.105  0.00  0.00    -0.453 OA
ATOM     19  C   UNL     1       6.015   6.449 -22.263  0.00  0.00    +0.015 A 
ATOM     20  C   UNL     1       4.009   8.521 -21.593  0.00  0.00    +0.193 C 
ATOM     21  C   UNL     1       5.045   7.277 -22.011  0.00  0.00    +0.102 C 
ENDROOT
BRANCH   1  23
ATOM     22  C   UNL     1       4.079   9.883 -20.277  0.00  0.00    +0.060 C 
ATOM     23  C   UNL     1       5.113   9.640 -21.025  0.00  0.00    +0.130 C 
ENDBRANCH   1  23
BRANCH  13  24
ATOM     24  O   UNL     1       2.781   2.265 -24.300  0.00  0.00    -0.495 OA
ATOM     25  C   UNL     1       3.540   1.250 -24.015  0.00  0.00    +0.277 C 
ENDBRANCH  13  24
TORSDOF 2
ENDMDL
MODEL 9
REMARK VINA RESULT:    -6.765      1.679      2.697
REMARK INTER + INTRA:          -7.260
REMARK INTER:                  -7.556
REMARK INTRA:                   0.295
REMARK UNBOUND:                 0.295
REMARK  Name = CC[N@+]1(C)CCc2cc3c(c4c2[C@H]1Cc1ccc(OC)cc1-4)OCO3                   ZINC000249692479
REMARK  5 active torsions:
REMARK  status: ('A' for Active; 'I' for Inactive)
REMARK    1  A    between atoms: C_1  and  C_2
REMARK    2  A    between atoms: C_2  and  N_3
REMARK    3  A    between atoms: N_3  and  C_4
REMARK    4  A    between atoms: C_18  and  O_19
REMARK    5  A    between atoms: O_19  and  C_20
REMARK                            x       y       z     vdW  Elec       q    Type
REMARK                         _______ _______ _______ _____ _____    ______ ____
ROOT
ATOM      1  N   UNL     1       2.833   1.245 -21.246  0.00  0.00    +0.247 N 
ATOM      2  C   UNL     1       3.907   1.360 -21.968  0.00  0.00    +0.138 C 
ATOM      3  C   UNL     1       3.841   1.898 -23.150  0.00  0.00    +0.086 C 
ATOM      4  C   UNL     1       2.701   2.322 -23.609  0.00  0.00    -0.030 A 
ATOM      5  C   UNL     1       2.635   2.860 -24.790  0.00  0.00    +0.054 A 
ATOM      6  C   UNL     1       1.495   3.284 -25.249  0.00  0.00    +0.167 A 
ATOM      7  C   UNL     1       0.420   3.169 -24.525  0.00  0.00    +0.174 A 
ATOM      8  O   UNL     1      -0.574   3.662 -25.203  0.00  0.00    -0.452 OA
ATOM      9  C   UNL     1      -0.114   4.081 -26.344  0.00  0.00    +0.466 C 
ATOM     10  C   UNL     1       0.487   2.631 -23.344  0.00  0.00    +0.037 A 
ATOM     11  C   UNL     1      -0.588   2.516 -22.621  0.00  0.00    -0.007 A 
ATOM     12  C   UNL     1      -1.728   2.940 -23.080  0.00  0.00    +0.054 A 
ATOM     13  C   UNL     1      -2.802   2.825 -22.357  0.00  0.00    +0.121 A 
ATOM     14  C   UNL     1      -2.737   2.287 -21.176  0.00  0.00    +0.046 A 
ATOM     15  C   UNL     1      -1.597   1.864 -20.717  0.00  0.00    +0.008 A 
ATOM     16  C   UNL     1      -0.522   1.978 -21.440  0.00  0.00    -0.034 A 
ATOM     17  C   UNL     1       0.618   1.554 -20.981  0.00  0.00    +0.095 C 
ATOM     18  O   UNL     1       1.165   3.848 -26.373  0.00  0.00    -0.453 OA
ATOM     19  C   UNL     1       1.627   2.207 -22.886  0.00  0.00    +0.015 A 
ATOM     20  C   UNL     1       2.062   0.948 -20.242  0.00  0.00    +0.193 C 
ATOM     21  C   UNL     1       1.692   1.669 -21.704  0.00  0.00    +0.102 C 
ENDROOT
BRANCH   1  23
ATOM     22  C   UNL     1       4.972   0.773 -20.725  0.00  0.00    +0.060 C 
ATOM     23  C   UNL     1       3.705   0.718 -20.439  0.00  0.00    +0.130 C 
ENDBRANCH   1  23
BRANCH  13  24
ATOM     24  O   UNL     1      -3.943   3.249 -22.815  0.00  0.00    -0.495 OA
ATOM     25  C   UNL     1      -4.011   3.781 -23.999  0.00  0.00    +0.277 C 
ENDBRANCH  13  24
TORSDOF 2
ENDMDL
