MODEL 1
REMARK VINA RESULT:    -9.679      0.000      0.000
REMARK INTER + INTRA:         -13.626
REMARK INTER:                 -12.743
REMARK INTRA:                  -0.883
REMARK UNBOUND:                -0.834
REMARK  Name = ZINC000004257488
REMARK  7 active torsions:
REMARK  status: ('A' for Active; 'I' for Inactive)
REMARK    1  A    between atoms: O5*_1  and  C5*_2
REMARK    2  A    between atoms: C5*_2  and  C4*_3
REMARK    3  A    between atoms: C1*_5  and  N_6
REMARK    4  A    between atoms: N_11  and  C_12
REMARK    5  A    between atoms: C_12  and  C_13
REMARK    6  A    between atoms: C2*_23  and  O2*_24
REMARK    7  A    between atoms: C3*_25  and  O3*_26
REMARK                            x       y       z     vdW  Elec       q    Type
REMARK                         _______ _______ _______ _____ _____    ______ ____
ROOT
ATOM      1  N   UNL     1       3.185   2.375 -23.033  0.00  0.00    -0.286 N 
ATOM      2  C   UNL     1       2.686   1.175 -23.015  0.00  0.00    +0.203 A 
ATOM      3  N   UNL     1       1.414   1.265 -23.274  0.00  0.00    -0.231 NA
ATOM      4  C   UNL     1       1.128   2.520 -23.452  0.00  0.00    +0.147 A 
ATOM      5  C   UNL     1       0.013   3.128 -23.731  0.00  0.00    +0.150 A 
ATOM      6  N   UNL     1      -0.008   4.421 -23.861  0.00  0.00    -0.219 NA
ATOM      7  C   UNL     1       1.086   5.107 -23.712  0.00  0.00    +0.225 A 
ATOM      8  N   UNL     1       2.202   4.500 -23.433  0.00  0.00    -0.216 NA
ATOM      9  N   UNL     1      -1.081   2.442 -23.880  0.00  0.00    -0.323 N 
ATOM     10  H   UNL     1      -1.065   1.462 -23.782  0.00  0.00    +0.148 HD
ATOM     11  C   UNL     1       2.222   3.207 -23.303  0.00  0.00    +0.167 A 
ENDROOT
BRANCH   1  14
ATOM     12  C4* UNL     1       6.433   3.243 -23.129  0.00  0.00    +0.177 C 
ATOM     13  O4* UNL     1       5.308   2.988 -23.728  0.00  0.00    -0.346 OA
ATOM     14  C1* UNL     1       4.428   2.689 -22.818  0.00  0.00    +0.253 C 
ATOM     15  C2* UNL     1       5.009   2.760 -21.658  0.00  0.00    +0.195 C 
ATOM     16  C3* UNL     1       6.249   3.102 -21.850  0.00  0.00    +0.178 C 
BRANCH  15  17
ATOM     17  O2* UNL     1       4.450   2.529 -20.508  0.00  0.00    -0.385 OA
ATOM     18  H2* UNL     1       5.094   2.117 -19.912  0.00  0.00    +0.210 HD
ENDBRANCH  15  17
BRANCH  16  19
ATOM     19  O3* UNL     1       7.146   3.274 -20.925  0.00  0.00    -0.386 OA
ATOM     20  H3* UNL     1       7.276   4.223 -20.774  0.00  0.00    +0.210 HD
ENDBRANCH  16  19
BRANCH  12  21
ATOM     21  C5* UNL     1       7.547   3.580 -23.708  0.00  0.00    +0.190 C 
BRANCH  21  22
ATOM     22  O5* UNL     1       8.609   2.847 -23.549  0.00  0.00    -0.392 OA
ATOM     23  H5* UNL     1       8.927   2.932 -22.637  0.00  0.00    +0.210 HD
ENDBRANCH  21  22
ENDBRANCH  12  21
ENDBRANCH   1  14
BRANCH   9  24
ATOM     24  C   UNL     1      -2.196   3.049 -24.159  0.00  0.00    +0.138 C 
BRANCH  24  25
ATOM     25  C   UNL     1      -3.169   3.048 -23.297  0.00  0.00    -0.030 A 
ATOM     26  C   UNL     1      -4.338   3.504 -23.637  0.00  0.00    +0.005 A 
ATOM     27  C   UNL     1      -5.312   3.503 -22.775  0.00  0.00    +0.000 A 
ATOM     28  C   UNL     1      -5.116   3.047 -21.574  0.00  0.00    +0.000 A 
ATOM     29  C   UNL     1      -3.947   2.591 -21.233  0.00  0.00    +0.000 A 
ATOM     30  C   UNL     1      -2.973   2.592 -22.095  0.00  0.00    +0.005 A 
ENDBRANCH  24  25
ENDBRANCH   9  24
TORSDOF 7
ENDMDL
MODEL 2
REMARK VINA RESULT:    -9.374      1.266      2.485
REMARK INTER + INTRA:         -13.223
REMARK INTER:                 -12.559
REMARK INTRA:                  -0.664
REMARK UNBOUND:                -0.834
REMARK  Name = ZINC000004257488
REMARK  7 active torsions:
REMARK  status: ('A' for Active; 'I' for Inactive)
REMARK    1  A    between atoms: O5*_1  and  C5*_2
REMARK    2  A    between atoms: C5*_2  and  C4*_3
REMARK    3  A    between atoms: C1*_5  and  N_6
REMARK    4  A    between atoms: N_11  and  C_12
REMARK    5  A    between atoms: C_12  and  C_13
REMARK    6  A    between atoms: C2*_23  and  O2*_24
REMARK    7  A    between atoms: C3*_25  and  O3*_26
REMARK                            x       y       z     vdW  Elec       q    Type
REMARK                         _______ _______ _______ _____ _____    ______ ____
ROOT
ATOM      1  N   UNL     1       3.330   4.007 -22.887  0.00  0.00    -0.286 N 
ATOM      2  C   UNL     1       2.697   5.076 -23.268  0.00  0.00    +0.203 A 
ATOM      3  N   UNL     1       1.424   4.809 -23.278  0.00  0.00    -0.231 NA
ATOM      4  C   UNL     1       1.271   3.573 -22.903  0.00  0.00    +0.147 A 
ATOM      5  C   UNL     1       0.212   2.835 -22.750  0.00  0.00    +0.150 A 
ATOM      6  N   UNL     1       0.330   1.602 -22.355  0.00  0.00    -0.219 NA
ATOM      7  C   UNL     1       1.507   1.107 -22.113  0.00  0.00    +0.225 A 
ATOM      8  N   UNL     1       2.567   1.845 -22.266  0.00  0.00    -0.216 NA
ATOM      9  N   UNL     1      -0.966   3.330 -22.992  0.00  0.00    -0.323 N 
ATOM     10  H   UNL     1      -1.055   4.265 -23.291  0.00  0.00    +0.148 HD
ATOM     11  C   UNL     1       2.449   3.078 -22.661  0.00  0.00    +0.167 A 
ENDROOT
BRANCH   1  14
ATOM     12  C4* UNL     1       6.594   4.161 -22.088  0.00  0.00    +0.177 C 
ATOM     13  O4* UNL     1       5.366   4.557 -21.929  0.00  0.00    -0.346 OA
ATOM     14  C1* UNL     1       4.617   3.887 -22.755  0.00  0.00    +0.253 C 
ATOM     15  C2* UNL     1       5.382   3.077 -23.423  0.00  0.00    +0.195 C 
ATOM     16  C3* UNL     1       6.604   3.246 -23.012  0.00  0.00    +0.178 C 
BRANCH  15  17
ATOM     17  O2* UNL     1       4.994   2.244 -24.343  0.00  0.00    -0.385 OA
ATOM     18  H2* UNL     1       5.697   1.598 -24.511  0.00  0.00    +0.210 HD
ENDBRANCH  15  17
BRANCH  16  19
ATOM     19  O3* UNL     1       7.652   2.611 -23.447  0.00  0.00    -0.386 OA
ATOM     20  H3* UNL     1       7.804   2.841 -24.377  0.00  0.00    +0.210 HD
ENDBRANCH  16  19
BRANCH  12  21
ATOM     21  C5* UNL     1       7.629   4.602 -21.438  0.00  0.00    +0.190 C 
BRANCH  21  22
ATOM     22  O5* UNL     1       7.699   4.452 -20.149  0.00  0.00    -0.392 OA
ATOM     23  H5* UNL     1       6.954   3.910 -19.846  0.00  0.00    +0.210 HD
ENDBRANCH  21  22
ENDBRANCH  12  21
ENDBRANCH   1  14
BRANCH   9  24
ATOM     24  C   UNL     1      -2.025   2.593 -22.839  0.00  0.00    +0.138 C 
BRANCH  24  25
ATOM     25  C   UNL     1      -3.194   3.060 -23.162  0.00  0.00    -0.030 A 
ATOM     26  C   UNL     1      -4.166   3.031 -22.300  0.00  0.00    +0.005 A 
ATOM     27  C   UNL     1      -5.336   3.498 -22.623  0.00  0.00    +0.000 A 
ATOM     28  C   UNL     1      -5.533   3.994 -23.808  0.00  0.00    +0.000 A 
ATOM     29  C   UNL     1      -4.561   4.023 -24.671  0.00  0.00    +0.000 A 
ATOM     30  C   UNL     1      -3.391   3.556 -24.348  0.00  0.00    +0.005 A 
ENDBRANCH  24  25
ENDBRANCH   9  24
TORSDOF 7
ENDMDL
MODEL 3
REMARK VINA RESULT:    -9.137      0.944      1.906
REMARK INTER + INTRA:         -12.910
REMARK INTER:                 -12.226
REMARK INTRA:                  -0.684
REMARK UNBOUND:                -0.834
REMARK  Name = ZINC000004257488
REMARK  7 active torsions:
REMARK  status: ('A' for Active; 'I' for Inactive)
REMARK    1  A    between atoms: O5*_1  and  C5*_2
REMARK    2  A    between atoms: C5*_2  and  C4*_3
REMARK    3  A    between atoms: C1*_5  and  N_6
REMARK    4  A    between atoms: N_11  and  C_12
REMARK    5  A    between atoms: C_12  and  C_13
REMARK    6  A    between atoms: C2*_23  and  O2*_24
REMARK    7  A    between atoms: C3*_25  and  O3*_26
REMARK                            x       y       z     vdW  Elec       q    Type
REMARK                         _______ _______ _______ _____ _____    ______ ____
ROOT
ATOM      1  N   UNL     1       3.193   2.661 -22.325  0.00  0.00    -0.286 N 
ATOM      2  C   UNL     1       2.631   1.768 -21.566  0.00  0.00    +0.203 A 
ATOM      3  N   UNL     1       1.367   1.721 -21.868  0.00  0.00    -0.231 NA
ATOM      4  C   UNL     1       1.148   2.584 -22.815  0.00  0.00    +0.147 A 
ATOM      5  C   UNL     1       0.067   2.916 -23.457  0.00  0.00    +0.150 A 
ATOM      6  N   UNL     1       0.115   3.829 -24.381  0.00  0.00    -0.219 NA
ATOM      7  C   UNL     1       1.243   4.410 -24.664  0.00  0.00    +0.225 A 
ATOM      8  N   UNL     1       2.324   4.078 -24.022  0.00  0.00    -0.216 NA
ATOM      9  N   UNL     1      -1.061   2.335 -23.174  0.00  0.00    -0.323 N 
ATOM     10  H   UNL     1      -1.096   1.643 -22.474  0.00  0.00    +0.148 HD
ATOM     11  C   UNL     1       2.276   3.165 -23.098  0.00  0.00    +0.167 A 
ENDROOT
BRANCH   1  14
ATOM     12  C4* UNL     1       6.326   3.705 -21.684  0.00  0.00    +0.177 C 
ATOM     13  O4* UNL     1       5.094   3.516 -21.314  0.00  0.00    -0.346 OA
ATOM     14  C1* UNL     1       4.450   2.992 -22.315  0.00  0.00    +0.253 C 
ATOM     15  C2* UNL     1       5.284   2.858 -23.303  0.00  0.00    +0.195 C 
ATOM     16  C3* UNL     1       6.444   3.298 -22.913  0.00  0.00    +0.178 C 
BRANCH  15  17
ATOM     17  O2* UNL     1       5.007   2.368 -24.475  0.00  0.00    -0.385 OA
ATOM     18  H2* UNL     1       4.868   3.094 -25.104  0.00  0.00    +0.210 HD
ENDBRANCH  15  17
BRANCH  16  19
ATOM     19  O3* UNL     1       7.529   3.327 -23.627  0.00  0.00    -0.386 OA
ATOM     20  H3* UNL     1       7.296   3.299 -24.569  0.00  0.00    +0.210 HD
ENDBRANCH  16  19
BRANCH  12  21
ATOM     21  C5* UNL     1       7.273   4.212 -20.953  0.00  0.00    +0.190 C 
BRANCH  21  22
ATOM     22  O5* UNL     1       6.977   4.895 -19.887  0.00  0.00    -0.392 OA
ATOM     23  H5* UNL     1       6.084   5.262 -19.977  0.00  0.00    +0.210 HD
ENDBRANCH  21  22
ENDBRANCH  12  21
ENDBRANCH   1  14
BRANCH   9  24
ATOM     24  C   UNL     1      -2.141   2.667 -23.816  0.00  0.00    +0.138 C 
BRANCH  24  25
ATOM     25  C   UNL     1      -3.249   2.866 -23.164  0.00  0.00    -0.030 A 
ATOM     26  C   UNL     1      -3.363   2.456 -21.936  0.00  0.00    +0.005 A 
ATOM     27  C   UNL     1      -4.470   2.654 -21.285  0.00  0.00    +0.000 A 
ATOM     28  C   UNL     1      -5.463   3.263 -21.861  0.00  0.00    +0.000 A 
ATOM     29  C   UNL     1      -5.350   3.673 -23.090  0.00  0.00    +0.000 A 
ATOM     30  C   UNL     1      -4.242   3.474 -23.742  0.00  0.00    +0.005 A 
ENDBRANCH  24  25
ENDBRANCH   9  24
TORSDOF 7
ENDMDL
MODEL 4
REMARK VINA RESULT:    -8.521      3.560      8.650
REMARK INTER + INTRA:         -12.096
REMARK INTER:                 -11.093
REMARK INTRA:                  -1.003
REMARK UNBOUND:                -0.834
REMARK  Name = ZINC000004257488
REMARK  7 active torsions:
REMARK  status: ('A' for Active; 'I' for Inactive)
REMARK    1  A    between atoms: O5*_1  and  C5*_2
REMARK    2  A    between atoms: C5*_2  and  C4*_3
REMARK    3  A    between atoms: C1*_5  and  N_6
REMARK    4  A    between atoms: N_11  and  C_12
REMARK    5  A    between atoms: C_12  and  C_13
REMARK    6  A    between atoms: C2*_23  and  O2*_24
REMARK    7  A    between atoms: C3*_25  and  O3*_26
REMARK                            x       y       z     vdW  Elec       q    Type
REMARK                         _______ _______ _______ _____ _____    ______ ____
ROOT
ATOM      1  N   UNL     1      -0.019   4.006 -23.589  0.00  0.00    -0.286 N 
ATOM      2  C   UNL     1       0.540   5.178 -23.611  0.00  0.00    +0.203 A 
ATOM      3  N   UNL     1       1.794   5.032 -23.298  0.00  0.00    -0.231 NA
ATOM      4  C   UNL     1       2.009   3.768 -23.083  0.00  0.00    +0.147 A 
ATOM      5  C   UNL     1       3.080   3.112 -22.747  0.00  0.00    +0.150 A 
ATOM      6  N   UNL     1       3.030   1.822 -22.591  0.00  0.00    -0.219 NA
ATOM      7  C   UNL     1       1.910   1.188 -22.771  0.00  0.00    +0.225 A 
ATOM      8  N   UNL     1       0.839   1.844 -23.107  0.00  0.00    -0.216 NA
ATOM      9  N   UNL     1       4.200   3.746 -22.567  0.00  0.00    -0.323 N 
ATOM     10  H   UNL     1       4.238   4.723 -22.685  0.00  0.00    +0.148 HD
ATOM     11  C   UNL     1       0.888   3.134 -23.263  0.00  0.00    +0.167 A 
ENDROOT
BRANCH   1  14
ATOM     12  C4* UNL     1      -3.337   3.451 -23.621  0.00  0.00    +0.177 C 
ATOM     13  O4* UNL     1      -2.243   3.756 -22.989  0.00  0.00    -0.346 OA
ATOM     14  C1* UNL     1      -1.267   3.749 -23.848  0.00  0.00    +0.253 C 
ATOM     15  C2* UNL     1      -1.759   3.441 -25.011  0.00  0.00    +0.195 C 
ATOM     16  C3* UNL     1      -3.039   3.257 -24.871  0.00  0.00    +0.178 C 
BRANCH  15  17
ATOM     17  O2* UNL     1      -1.089   3.335 -26.120  0.00  0.00    -0.385 OA
ATOM     18  H2* UNL     1      -1.162   4.161 -26.622  0.00  0.00    +0.210 HD
ENDBRANCH  15  17
BRANCH  16  19
ATOM     19  O3* UNL     1      -3.872   2.935 -25.814  0.00  0.00    -0.386 OA
ATOM     20  H3* UNL     1      -4.102   3.727 -26.325  0.00  0.00    +0.210 HD
ENDBRANCH  16  19
BRANCH  12  21
ATOM     21  C5* UNL     1      -4.522   3.358 -23.095  0.00  0.00    +0.190 C 
BRANCH  21  22
ATOM     22  O5* UNL     1      -5.507   4.051 -23.585  0.00  0.00    -0.392 OA
ATOM     23  H5* UNL     1      -5.219   4.489 -24.401  0.00  0.00    +0.210 HD
ENDBRANCH  21  22
ENDBRANCH  12  21
ENDBRANCH   1  14
BRANCH   9  24
ATOM     24  C   UNL     1       5.271   3.091 -22.231  0.00  0.00    +0.138 C 
BRANCH  24  25
ATOM     25  C   UNL     1       6.409   3.712 -22.131  0.00  0.00    -0.030 A 
ATOM     26  C   UNL     1       7.129   3.923 -23.193  0.00  0.00    +0.005 A 
ATOM     27  C   UNL     1       8.267   4.544 -23.093  0.00  0.00    +0.000 A 
ATOM     28  C   UNL     1       8.684   4.954 -21.932  0.00  0.00    +0.000 A 
ATOM     29  C   UNL     1       7.965   4.742 -20.870  0.00  0.00    +0.000 A 
ATOM     30  C   UNL     1       6.827   4.121 -20.970  0.00  0.00    +0.005 A 
ENDBRANCH  24  25
ENDBRANCH   9  24
TORSDOF 7
ENDMDL
MODEL 5
REMARK VINA RESULT:    -8.461      1.306      2.253
REMARK INTER + INTRA:         -12.015
REMARK INTER:                 -11.858
REMARK INTRA:                  -0.158
REMARK UNBOUND:                -0.834
REMARK  Name = ZINC000004257488
REMARK  7 active torsions:
REMARK  status: ('A' for Active; 'I' for Inactive)
REMARK    1  A    between atoms: O5*_1  and  C5*_2
REMARK    2  A    between atoms: C5*_2  and  C4*_3
REMARK    3  A    between atoms: C1*_5  and  N_6
REMARK    4  A    between atoms: N_11  and  C_12
REMARK    5  A    between atoms: C_12  and  C_13
REMARK    6  A    between atoms: C2*_23  and  O2*_24
REMARK    7  A    between atoms: C3*_25  and  O3*_26
REMARK                            x       y       z     vdW  Elec       q    Type
REMARK                         _______ _______ _______ _____ _____    ______ ____
ROOT
ATOM      1  N   UNL     1       2.589   2.412 -22.521  0.00  0.00    -0.286 N 
ATOM      2  C   UNL     1       2.140   1.235 -22.203  0.00  0.00    +0.203 A 
ATOM      3  N   UNL     1       0.842   1.301 -22.150  0.00  0.00    -0.231 NA
ATOM      4  C   UNL     1       0.490   2.519 -22.435  0.00  0.00    +0.147 A 
ATOM      5  C   UNL     1      -0.675   3.092 -22.516  0.00  0.00    +0.150 A 
ATOM      6  N   UNL     1      -0.759   4.352 -22.826  0.00  0.00    -0.219 NA
ATOM      7  C   UNL     1       0.320   5.039 -23.055  0.00  0.00    +0.225 A 
ATOM      8  N   UNL     1       1.485   4.466 -22.975  0.00  0.00    -0.216 NA
ATOM      9  N   UNL     1      -1.754   2.405 -22.286  0.00  0.00    -0.323 N 
ATOM     10  H   UNL     1      -1.690   1.451 -22.051  0.00  0.00    +0.148 HD
ATOM     11  C   UNL     1       1.569   3.206 -22.665  0.00  0.00    +0.167 A 
ENDROOT
BRANCH   1  14
ATOM     12  C4* UNL     1       5.766   3.494 -22.298  0.00  0.00    +0.177 C 
ATOM     13  O4* UNL     1       4.582   3.338 -21.787  0.00  0.00    -0.346 OA
ATOM     14  C1* UNL     1       3.838   2.739 -22.670  0.00  0.00    +0.253 C 
ATOM     15  C2* UNL     1       4.564   2.526 -23.727  0.00  0.00    +0.195 C 
ATOM     16  C3* UNL     1       5.756   2.993 -23.498  0.00  0.00    +0.178 C 
BRANCH  15  17
ATOM     17  O2* UNL     1       4.167   1.948 -24.822  0.00  0.00    -0.385 OA
ATOM     18  H2* UNL     1       4.692   1.147 -24.973  0.00  0.00    +0.210 HD
ENDBRANCH  15  17
BRANCH  16  19
ATOM     19  O3* UNL     1       6.760   2.963 -24.322  0.00  0.00    -0.386 OA
ATOM     20  H3* UNL     1       6.657   3.668 -24.980  0.00  0.00    +0.210 HD
ENDBRANCH  16  19
BRANCH  12  21
ATOM     21  C5* UNL     1       6.783   4.053 -21.713  0.00  0.00    +0.190 C 
BRANCH  21  22
ATOM     22  O5* UNL     1       7.404   5.039 -22.291  0.00  0.00    -0.392 OA
ATOM     23  H5* UNL     1       8.159   5.308 -21.746  0.00  0.00    +0.210 HD
ENDBRANCH  21  22
ENDBRANCH  12  21
ENDBRANCH   1  14
BRANCH   9  24
ATOM     24  C   UNL     1      -2.918   2.978 -22.366  0.00  0.00    +0.138 C 
BRANCH  24  25
ATOM     25  C   UNL     1      -3.479   3.150 -23.526  0.00  0.00    -0.030 A 
ATOM     26  C   UNL     1      -2.912   2.682 -24.598  0.00  0.00    +0.005 A 
ATOM     27  C   UNL     1      -3.473   2.854 -25.758  0.00  0.00    +0.000 A 
ATOM     28  C   UNL     1      -4.601   3.494 -25.846  0.00  0.00    +0.000 A 
ATOM     29  C   UNL     1      -5.169   3.962 -24.774  0.00  0.00    +0.000 A 
ATOM     30  C   UNL     1      -4.608   3.790 -23.614  0.00  0.00    +0.005 A 
ENDBRANCH  24  25
ENDBRANCH   9  24
TORSDOF 7
ENDMDL
MODEL 6
REMARK VINA RESULT:    -7.748      3.280      8.421
REMARK INTER + INTRA:         -11.074
REMARK INTER:                 -10.126
REMARK INTRA:                  -0.948
REMARK UNBOUND:                -0.834
REMARK  Name = ZINC000004257488
REMARK  7 active torsions:
REMARK  status: ('A' for Active; 'I' for Inactive)
REMARK    1  A    between atoms: O5*_1  and  C5*_2
REMARK    2  A    between atoms: C5*_2  and  C4*_3
REMARK    3  A    between atoms: C1*_5  and  N_6
REMARK    4  A    between atoms: N_11  and  C_12
REMARK    5  A    between atoms: C_12  and  C_13
REMARK    6  A    between atoms: C2*_23  and  O2*_24
REMARK    7  A    between atoms: C3*_25  and  O3*_26
REMARK                            x       y       z     vdW  Elec       q    Type
REMARK                         _______ _______ _______ _____ _____    ______ ____
ROOT
ATOM      1  N   UNL     1       0.868   2.746 -23.215  0.00  0.00    -0.286 N 
ATOM      2  C   UNL     1       1.518   1.640 -23.007  0.00  0.00    +0.203 A 
ATOM      3  N   UNL     1       2.762   1.942 -22.776  0.00  0.00    -0.231 NA
ATOM      4  C   UNL     1       2.880   3.235 -22.840  0.00  0.00    +0.147 A 
ATOM      5  C   UNL     1       3.902   4.024 -22.687  0.00  0.00    +0.150 A 
ATOM      6  N   UNL     1       3.754   5.310 -22.805  0.00  0.00    -0.219 NA
ATOM      7  C   UNL     1       2.584   5.807 -23.077  0.00  0.00    +0.225 A 
ATOM      8  N   UNL     1       1.562   5.018 -23.230  0.00  0.00    -0.216 NA
ATOM      9  N   UNL     1       5.072   3.527 -22.415  0.00  0.00    -0.323 N 
ATOM     10  H   UNL     1       5.184   2.552 -22.326  0.00  0.00    +0.148 HD
ATOM     11  C   UNL     1       1.710   3.732 -23.112  0.00  0.00    +0.167 A 
ENDROOT
BRANCH   1  14
ATOM     12  C4* UNL     1      -2.489   2.953 -23.253  0.00  0.00    +0.177 C 
ATOM     13  O4* UNL     1      -1.366   2.820 -22.611  0.00  0.00    -0.346 OA
ATOM     14  C1* UNL     1      -0.400   2.850 -23.480  0.00  0.00    +0.253 C 
ATOM     15  C2* UNL     1      -0.925   3.001 -24.659  0.00  0.00    +0.195 C 
ATOM     16  C3* UNL     1      -2.216   3.065 -24.519  0.00  0.00    +0.178 C 
BRANCH  15  17
ATOM     17  O2* UNL     1      -0.273   3.076 -25.782  0.00  0.00    -0.385 OA
ATOM     18  H2* UNL     1       0.381   3.790 -25.729  0.00  0.00    +0.210 HD
ENDBRANCH  15  17
BRANCH  16  19
ATOM     19  O3* UNL     1      -3.082   3.215 -25.477  0.00  0.00    -0.386 OA
ATOM     20  H3* UNL     1      -3.963   3.356 -25.096  0.00  0.00    +0.210 HD
ENDBRANCH  16  19
BRANCH  12  21
ATOM     21  C5* UNL     1      -3.675   2.971 -22.723  0.00  0.00    +0.190 C 
BRANCH  21  22
ATOM     22  O5* UNL     1      -4.605   3.721 -23.235  0.00  0.00    -0.392 OA
ATOM     23  H5* UNL     1      -5.215   4.001 -22.535  0.00  0.00    +0.210 HD
ENDBRANCH  21  22
ENDBRANCH  12  21
ENDBRANCH   1  14
BRANCH   9  24
ATOM     24  C   UNL     1       6.094   4.315 -22.262  0.00  0.00    +0.138 C 
BRANCH  24  25
ATOM     25  C   UNL     1       6.995   4.400 -23.195  0.00  0.00    -0.030 A 
ATOM     26  C   UNL     1       7.503   5.556 -23.505  0.00  0.00    +0.005 A 
ATOM     27  C   UNL     1       8.404   5.641 -24.438  0.00  0.00    +0.000 A 
ATOM     28  C   UNL     1       8.798   4.570 -25.061  0.00  0.00    +0.000 A 
ATOM     29  C   UNL     1       8.291   3.413 -24.751  0.00  0.00    +0.000 A 
ATOM     30  C   UNL     1       7.389   3.329 -23.818  0.00  0.00    +0.005 A 
ENDBRANCH  24  25
ENDBRANCH   9  24
TORSDOF 7
ENDMDL
MODEL 7
REMARK VINA RESULT:    -7.173      3.393      4.641
REMARK INTER + INTRA:         -10.314
REMARK INTER:                  -9.783
REMARK INTRA:                  -0.531
REMARK UNBOUND:                -0.834
REMARK  Name = ZINC000004257488
REMARK  7 active torsions:
REMARK  status: ('A' for Active; 'I' for Inactive)
REMARK    1  A    between atoms: O5*_1  and  C5*_2
REMARK    2  A    between atoms: C5*_2  and  C4*_3
REMARK    3  A    between atoms: C1*_5  and  N_6
REMARK    4  A    between atoms: N_11  and  C_12
REMARK    5  A    between atoms: C_12  and  C_13
REMARK    6  A    between atoms: C2*_23  and  O2*_24
REMARK    7  A    between atoms: C3*_25  and  O3*_26
REMARK                            x       y       z     vdW  Elec       q    Type
REMARK                         _______ _______ _______ _____ _____    ______ ____
ROOT
ATOM      1  N   UNL     1       6.195   5.410 -22.223  0.00  0.00    -0.286 N 
ATOM      2  C   UNL     1       6.668   4.210 -22.385  0.00  0.00    +0.203 A 
ATOM      3  N   UNL     1       5.701   3.451 -22.812  0.00  0.00    -0.231 NA
ATOM      4  C   UNL     1       4.631   4.183 -22.912  0.00  0.00    +0.147 A 
ATOM      5  C   UNL     1       3.418   3.903 -23.288  0.00  0.00    +0.150 A 
ATOM      6  N   UNL     1       2.511   4.833 -23.301  0.00  0.00    -0.219 NA
ATOM      7  C   UNL     1       2.815   6.044 -22.937  0.00  0.00    +0.225 A 
ATOM      8  N   UNL     1       4.028   6.323 -22.561  0.00  0.00    -0.216 NA
ATOM      9  N   UNL     1       3.113   2.693 -23.652  0.00  0.00    -0.323 N 
ATOM     10  H   UNL     1       3.802   1.988 -23.643  0.00  0.00    +0.148 HD
ATOM     11  C   UNL     1       4.936   5.393 -22.549  0.00  0.00    +0.167 A 
ENDROOT
BRANCH   1  14
ATOM     12  C4* UNL     1       8.044   8.185 -21.784  0.00  0.00    +0.177 C 
ATOM     13  O4* UNL     1       7.505   7.291 -22.558  0.00  0.00    -0.346 OA
ATOM     14  C1* UNL     1       6.862   6.445 -21.808  0.00  0.00    +0.253 C 
ATOM     15  C2* UNL     1       7.005   6.817 -20.571  0.00  0.00    +0.195 C 
ATOM     16  C3* UNL     1       7.736   7.893 -20.556  0.00  0.00    +0.178 C 
BRANCH  15  17
ATOM     17  O2* UNL     1       6.505   6.219 -19.531  0.00  0.00    -0.385 OA
ATOM     18  H2* UNL     1       6.886   5.331 -19.454  0.00  0.00    +0.210 HD
ENDBRANCH  15  17
BRANCH  16  19
ATOM     19  O3* UNL     1       8.094   8.558 -19.499  0.00  0.00    -0.386 OA
ATOM     20  H3* UNL     1       7.544   8.288 -18.746  0.00  0.00    +0.210 HD
ENDBRANCH  16  19
BRANCH  12  21
ATOM     21  C5* UNL     1       8.766   9.195 -22.171  0.00  0.00    +0.190 C 
BRANCH  21  22
ATOM     22  O5* UNL     1       8.763  10.297 -21.482  0.00  0.00    -0.392 OA
ATOM     23  H5* UNL     1       8.050  10.873 -21.797  0.00  0.00    +0.210 HD
ENDBRANCH  21  22
ENDBRANCH  12  21
ENDBRANCH   1  14
BRANCH   9  24
ATOM     24  C   UNL     1       1.901   2.413 -24.028  0.00  0.00    +0.138 C 
BRANCH  24  25
ATOM     25  C   UNL     1       0.966   2.253 -23.139  0.00  0.00    -0.030 A 
ATOM     26  C   UNL     1       1.221   1.618 -22.034  0.00  0.00    +0.005 A 
ATOM     27  C   UNL     1       0.285   1.458 -21.146  0.00  0.00    +0.000 A 
ATOM     28  C   UNL     1      -0.905   1.932 -21.363  0.00  0.00    +0.000 A 
ATOM     29  C   UNL     1      -1.161   2.567 -22.468  0.00  0.00    +0.000 A 
ATOM     30  C   UNL     1      -0.225   2.727 -23.357  0.00  0.00    +0.005 A 
ENDBRANCH  24  25
ENDBRANCH   9  24
TORSDOF 7
ENDMDL
