MODEL 1
REMARK VINA RESULT:    -9.654      0.000      0.000
REMARK INTER + INTRA:          -4.947
REMARK INTER:                 -12.313
REMARK INTRA:                   7.365
REMARK UNBOUND:                 8.375
REMARK  Name = CCCC[C@H](O)[C@]12Oc3c(OC)ccc4c3[C@]13CCN(C)[C@H](C4)C3=CC=C2OC      ZINC000100393885
REMARK  11 active torsions:
REMARK  status: ('A' for Active; 'I' for Inactive)
REMARK    1  A    between atoms: C_1  and  C_2
REMARK    2  A    between atoms: C_2  and  C_3
REMARK    3  A    between atoms: C_3  and  C_4
REMARK    4  A    between atoms: C_4  and  C_5
REMARK    5  A    between atoms: C_5  and  O_6
REMARK    6  A    between atoms: C_5  and  C_7
REMARK    7  A    between atoms: C_10  and  O_11
REMARK    8  A    between atoms: O_11  and  C_12
REMARK    9  A    between atoms: N_20  and  C_21
REMARK   10  A    between atoms: C_27  and  O_28
REMARK   11  A    between atoms: O_28  and  C_29
REMARK                            x       y       z     vdW  Elec       q    Type
REMARK                         _______ _______ _______ _____ _____    ______ ____
ROOT
ATOM      1  C   UNL     1      -1.526   3.207 -23.776  0.00  0.00    +0.206 C 
ATOM      2  O   UNL     1      -1.868   3.079 -22.309  0.00  0.00    -0.470 OA
ATOM      3  C   UNL     1      -3.337   3.151 -22.023  0.00  0.00    +0.168 A 
ATOM      4  C   UNL     1      -4.248   3.123 -21.142  0.00  0.00    +0.162 A 
ATOM      5  C   UNL     1      -5.460   3.243 -21.485  0.00  0.00    +0.050 A 
ATOM      6  C   UNL     1      -5.759   3.390 -22.693  0.00  0.00    +0.008 A 
ATOM      7  C   UNL     1      -4.862   3.418 -23.563  0.00  0.00    -0.034 A 
ATOM      8  C   UNL     1      -5.163   3.566 -24.790  0.00  0.00    +0.094 C 
ATOM      9  C   UNL     1      -4.267   3.595 -25.662  0.00  0.00    +0.096 C 
ATOM     10  C   UNL     1      -3.057   3.474 -25.315  0.00  0.00    -0.007 C 
ATOM     11  C   UNL     1      -2.149   3.503 -26.194  0.00  0.00    +0.009 C 
ATOM     12  C   UNL     1      -0.947   3.385 -25.866  0.00  0.00    +0.045 C 
ATOM     13  N   UNL     1      -3.322   3.640 -26.724  0.00  0.00    +0.239 N 
ATOM     14  H   UNL     1      -3.627   3.761 -27.690  0.00  0.00    +0.204 HD
ATOM     15  C   UNL     1      -3.684   3.789 -27.914  0.00  0.00    +0.191 C 
ATOM     16  C   UNL     1      -1.960   3.509 -26.380  0.00  0.00    +0.133 C 
ATOM     17  C   UNL     1      -1.652   3.345 -25.013  0.00  0.00    +0.071 C 
ATOM     18  C   UNL     1      -3.651   3.300 -23.241  0.00  0.00    +0.016 A 
ATOM     19  C   UNL     1      -0.630   3.236 -24.653  0.00  0.00    +0.144 C 
ATOM     20  C   UNL     1      -2.751   3.328 -24.109  0.00  0.00    +0.080 C 
ENDROOT
BRANCH   4  21
ATOM     21  O   UNL     1      -3.948   2.976 -19.934  0.00  0.00    -0.491 OA
ATOM     22  C   UNL     1      -3.095   3.721 -19.405  0.00  0.00    +0.277 C 
ENDBRANCH   4  21
BRANCH  19  23
ATOM     23  O   UNL     1       0.713   3.129 -24.518  0.00  0.00    -0.495 OA
ATOM     24  C   UNL     1       1.444   2.863 -25.546  0.00  0.00    +0.276 C 
ENDBRANCH  19  23
BRANCH   1  25
ATOM     25  C   UNL     1      -0.374   3.054 -23.077  0.00  0.00    +0.167 C 
BRANCH  25  26
ATOM     26  O   UNL     1       0.300   4.058 -22.769  0.00  0.00    -0.387 OA
ATOM     27  H   UNL     1      -0.202   4.861 -22.980  0.00  0.00    +0.210 HD
ENDBRANCH  25  26
BRANCH  25  28
ATOM     28  C   UNL     1       0.042   1.915 -22.725  0.00  0.00    +0.036 C 
BRANCH  28  29
ATOM     29  C   UNL     1       0.765   1.743 -21.705  0.00  0.00    +0.002 C 
BRANCH  29  31
ATOM     30  C   UNL     1       2.966   1.886 -21.816  0.00  0.00    +0.004 C 
ATOM     31  C   UNL     1       1.914   1.202 -21.859  0.00  0.00    -0.003 C 
ENDBRANCH  29  31
ENDBRANCH  28  29
ENDBRANCH  25  28
ENDBRANCH   1  25
TORSDOF 7
ENDMDL
MODEL 2
REMARK VINA RESULT:    -9.047      1.984      4.279
REMARK INTER + INTRA:          -4.110
REMARK INTER:                 -11.696
REMARK INTRA:                   7.586
REMARK UNBOUND:                 8.375
REMARK  Name = CCCC[C@H](O)[C@]12Oc3c(OC)ccc4c3[C@]13CCN(C)[C@H](C4)C3=CC=C2OC      ZINC000100393885
REMARK  11 active torsions:
REMARK  status: ('A' for Active; 'I' for Inactive)
REMARK    1  A    between atoms: C_1  and  C_2
REMARK    2  A    between atoms: C_2  and  C_3
REMARK    3  A    between atoms: C_3  and  C_4
REMARK    4  A    between atoms: C_4  and  C_5
REMARK    5  A    between atoms: C_5  and  O_6
REMARK    6  A    between atoms: C_5  and  C_7
REMARK    7  A    between atoms: C_10  and  O_11
REMARK    8  A    between atoms: O_11  and  C_12
REMARK    9  A    between atoms: N_20  and  C_21
REMARK   10  A    between atoms: C_27  and  O_28
REMARK   11  A    between atoms: O_28  and  C_29
REMARK                            x       y       z     vdW  Elec       q    Type
REMARK                         _______ _______ _______ _____ _____    ______ ____
ROOT
ATOM      1  C   UNL     1      -1.234   2.887 -23.269  0.00  0.00    +0.206 C 
ATOM      2  O   UNL     1      -1.294   3.107 -24.763  0.00  0.00    -0.470 OA
ATOM      3  C   UNL     1      -2.671   3.398 -25.276  0.00  0.00    +0.168 A 
ATOM      4  C   UNL     1      -3.394   3.655 -26.285  0.00  0.00    +0.162 A 
ATOM      5  C   UNL     1      -4.639   3.833 -26.139  0.00  0.00    +0.050 A 
ATOM      6  C   UNL     1      -5.155   3.755 -25.000  0.00  0.00    +0.008 A 
ATOM      7  C   UNL     1      -4.444   3.502 -24.004  0.00  0.00    -0.034 A 
ATOM      8  C   UNL     1      -4.965   3.422 -22.847  0.00  0.00    +0.094 C 
ATOM      9  C   UNL     1      -4.255   3.168 -21.849  0.00  0.00    +0.096 C 
ATOM     10  C   UNL     1      -3.012   2.991 -22.000  0.00  0.00    -0.007 C 
ATOM     11  C   UNL     1      -2.291   2.735 -20.993  0.00  0.00    +0.009 C 
ATOM     12  C   UNL     1      -1.059   2.557 -21.125  0.00  0.00    +0.045 C 
ATOM     13  N   UNL     1      -3.533   2.885 -20.657  0.00  0.00    +0.239 N 
ATOM     14  H   UNL     1      -4.009   2.835 -19.757  0.00  0.00    +0.204 HD
ATOM     15  C   UNL     1      -4.107   2.820 -19.546  0.00  0.00    +0.191 C 
ATOM     16  C   UNL     1      -2.142   2.681 -20.780  0.00  0.00    +0.133 C 
ATOM     17  C   UNL     1      -1.588   2.775 -22.075  0.00  0.00    +0.071 C 
ATOM     18  C   UNL     1      -3.204   3.322 -24.130  0.00  0.00    +0.016 A 
ATOM     19  C   UNL     1      -0.525   2.633 -22.266  0.00  0.00    +0.144 C 
ATOM     20  C   UNL     1      -2.490   3.068 -23.135  0.00  0.00    +0.080 C 
ENDROOT
BRANCH   4  21
ATOM     21  O   UNL     1      -2.878   3.733 -27.424  0.00  0.00    -0.491 OA
ATOM     22  C   UNL     1      -3.517   3.353 -28.429  0.00  0.00    +0.277 C 
ENDBRANCH   4  21
BRANCH  19  23
ATOM     23  O   UNL     1       0.808   2.409 -22.187  0.00  0.00    -0.495 OA
ATOM     24  C   UNL     1       1.282   1.677 -21.238  0.00  0.00    +0.276 C 
ENDBRANCH  19  23
BRANCH   1  25
ATOM     25  C   UNL     1       0.018   2.758 -23.774  0.00  0.00    +0.167 C 
BRANCH  25  26
ATOM     26  O   UNL     1       0.466   1.624 -24.034  0.00  0.00    -0.387 OA
ATOM     27  H   UNL     1       1.021   1.319 -23.300  0.00  0.00    +0.210 HD
ENDBRANCH  25  26
BRANCH  25  28
ATOM     28  C   UNL     1       0.752   3.763 -23.990  0.00  0.00    +0.036 C 
BRANCH  28  29
ATOM     29  C   UNL     1       1.889   3.668 -24.531  0.00  0.00    +0.002 C 
BRANCH  29  31
ATOM     30  C   UNL     1       2.824   5.145 -23.181  0.00  0.00    +0.004 C 
ATOM     31  C   UNL     1       2.904   4.112 -23.891  0.00  0.00    -0.003 C 
ENDBRANCH  29  31
ENDBRANCH  28  29
ENDBRANCH  25  28
ENDBRANCH   1  25
TORSDOF 7
ENDMDL
MODEL 3
REMARK VINA RESULT:    -7.933      2.318      5.308
REMARK INTER + INTRA:          -2.572
REMARK INTER:                 -10.567
REMARK INTRA:                   7.994
REMARK UNBOUND:                 8.375
REMARK  Name = CCCC[C@H](O)[C@]12Oc3c(OC)ccc4c3[C@]13CCN(C)[C@H](C4)C3=CC=C2OC      ZINC000100393885
REMARK  11 active torsions:
REMARK  status: ('A' for Active; 'I' for Inactive)
REMARK    1  A    between atoms: C_1  and  C_2
REMARK    2  A    between atoms: C_2  and  C_3
REMARK    3  A    between atoms: C_3  and  C_4
REMARK    4  A    between atoms: C_4  and  C_5
REMARK    5  A    between atoms: C_5  and  O_6
REMARK    6  A    between atoms: C_5  and  C_7
REMARK    7  A    between atoms: C_10  and  O_11
REMARK    8  A    between atoms: O_11  and  C_12
REMARK    9  A    between atoms: N_20  and  C_21
REMARK   10  A    between atoms: C_27  and  O_28
REMARK   11  A    between atoms: O_28  and  C_29
REMARK                            x       y       z     vdW  Elec       q    Type
REMARK                         _______ _______ _______ _____ _____    ______ ____
ROOT
ATOM      1  C   UNL     1       0.142   2.754 -23.973  0.00  0.00    +0.206 C 
ATOM      2  O   UNL     1       1.640   2.551 -24.009  0.00  0.00    -0.470 OA
ATOM      3  C   UNL     1       2.204   1.993 -22.738  0.00  0.00    +0.168 A 
ATOM      4  C   UNL     1       3.240   1.610 -22.117  0.00  0.00    +0.162 A 
ATOM      5  C   UNL     1       3.141   1.179 -20.931  0.00  0.00    +0.050 A 
ATOM      6  C   UNL     1       2.020   1.131 -20.372  0.00  0.00    +0.008 A 
ATOM      7  C   UNL     1       0.997   1.508 -20.984  0.00  0.00    -0.034 A 
ATOM      8  C   UNL     1      -0.142   1.461 -20.419  0.00  0.00    +0.094 C 
ATOM      9  C   UNL     1      -1.166   1.837 -21.029  0.00  0.00    +0.096 C 
ATOM     10  C   UNL     1      -1.062   2.267 -22.214  0.00  0.00    -0.007 C 
ATOM     11  C   UNL     1      -2.096   2.649 -22.833  0.00  0.00    +0.009 C 
ATOM     12  C   UNL     1      -2.009   3.076 -24.006  0.00  0.00    +0.045 C 
ATOM     13  N   UNL     1      -2.386   2.242 -21.638  0.00  0.00    +0.239 N 
ATOM     14  H   UNL     1      -3.269   2.179 -21.132  0.00  0.00    +0.204 HD
ATOM     15  C   UNL     1      -3.477   2.170 -21.027  0.00  0.00    +0.191 C 
ATOM     16  C   UNL     1      -2.315   2.728 -22.961  0.00  0.00    +0.133 C 
ATOM     17  C   UNL     1      -1.040   2.771 -23.565  0.00  0.00    +0.071 C 
ATOM     18  C   UNL     1       1.077   1.940 -22.164  0.00  0.00    +0.016 A 
ATOM     19  C   UNL     1      -0.887   3.131 -24.582  0.00  0.00    +0.144 C 
ATOM     20  C   UNL     1       0.055   2.317 -22.778  0.00  0.00    +0.080 C 
ENDROOT
BRANCH   4  21
ATOM     21  O   UNL     1       4.361   1.658 -22.675  0.00  0.00    -0.491 OA
ATOM     22  C   UNL     1       4.934   2.758 -22.838  0.00  0.00    +0.277 C 
ENDBRANCH   4  21
BRANCH  19  23
ATOM     23  O   UNL     1      -1.016   3.620 -25.838  0.00  0.00    -0.495 OA
ATOM     24  C   UNL     1      -2.166   3.604 -26.420  0.00  0.00    +0.276 C 
ENDBRANCH  19  23
BRANCH   1  25
ATOM     25  C   UNL     1       0.601   3.144 -25.188  0.00  0.00    +0.167 C 
BRANCH  25  26
ATOM     26  O   UNL     1       0.670   2.314 -26.118  0.00  0.00    -0.387 OA
ATOM     27  H   UNL     1       1.136   1.522 -25.810  0.00  0.00    +0.210 HD
ENDBRANCH  25  26
BRANCH  25  28
ATOM     28  C   UNL     1       0.964   4.333 -25.410  0.00  0.00    +0.036 C 
BRANCH  28  29
ATOM     29  C   UNL     1       1.967   4.852 -24.847  0.00  0.00    +0.002 C 
BRANCH  29  31
ATOM     30  C   UNL     1       2.714   5.694 -22.947  0.00  0.00    +0.004 C 
ATOM     31  C   UNL     1       1.782   5.517 -23.770  0.00  0.00    -0.003 C 
ENDBRANCH  29  31
ENDBRANCH  28  29
ENDBRANCH  25  28
ENDBRANCH   1  25
TORSDOF 7
ENDMDL
MODEL 4
REMARK VINA RESULT:    -7.648      1.361      4.281
REMARK INTER + INTRA:          -2.180
REMARK INTER:                 -10.884
REMARK INTRA:                   8.704
REMARK UNBOUND:                 8.375
REMARK  Name = CCCC[C@H](O)[C@]12Oc3c(OC)ccc4c3[C@]13CCN(C)[C@H](C4)C3=CC=C2OC      ZINC000100393885
REMARK  11 active torsions:
REMARK  status: ('A' for Active; 'I' for Inactive)
REMARK    1  A    between atoms: C_1  and  C_2
REMARK    2  A    between atoms: C_2  and  C_3
REMARK    3  A    between atoms: C_3  and  C_4
REMARK    4  A    between atoms: C_4  and  C_5
REMARK    5  A    between atoms: C_5  and  O_6
REMARK    6  A    between atoms: C_5  and  C_7
REMARK    7  A    between atoms: C_10  and  O_11
REMARK    8  A    between atoms: O_11  and  C_12
REMARK    9  A    between atoms: N_20  and  C_21
REMARK   10  A    between atoms: C_27  and  O_28
REMARK   11  A    between atoms: O_28  and  C_29
REMARK                            x       y       z     vdW  Elec       q    Type
REMARK                         _______ _______ _______ _____ _____    ______ ____
ROOT
ATOM      1  C   UNL     1      -2.240   3.739 -22.690  0.00  0.00    +0.206 C 
ATOM      2  O   UNL     1      -0.814   4.023 -22.277  0.00  0.00    -0.470 OA
ATOM      3  C   UNL     1       0.137   4.136 -23.428  0.00  0.00    +0.168 A 
ATOM      4  C   UNL     1       1.332   4.335 -23.800  0.00  0.00    +0.162 A 
ATOM      5  C   UNL     1       1.619   4.323 -25.032  0.00  0.00    +0.050 A 
ATOM      6  C   UNL     1       0.724   4.114 -25.883  0.00  0.00    +0.008 A 
ATOM      7  C   UNL     1      -0.455   3.917 -25.518  0.00  0.00    -0.034 A 
ATOM      8  C   UNL     1      -1.367   3.704 -26.380  0.00  0.00    +0.094 C 
ATOM      9  C   UNL     1      -2.547   3.507 -26.018  0.00  0.00    +0.096 C 
ATOM     10  C   UNL     1      -2.829   3.521 -24.785  0.00  0.00    -0.007 C 
ATOM     11  C   UNL     1      -4.021   3.322 -24.414  0.00  0.00    +0.009 C 
ATOM     12  C   UNL     1      -4.316   3.332 -23.198  0.00  0.00    +0.045 C 
ATOM     13  N   UNL     1      -3.914   3.273 -25.704  0.00  0.00    +0.239 N 
ATOM     14  H   UNL     1      -4.599   3.109 -26.442  0.00  0.00    +0.204 HD
ATOM     15  C   UNL     1      -4.764   3.070 -26.601  0.00  0.00    +0.191 C 
ATOM     16  C   UNL     1      -4.272   3.280 -24.339  0.00  0.00    +0.133 C 
ATOM     17  C   UNL     1      -3.243   3.518 -23.403  0.00  0.00    +0.071 C 
ATOM     18  C   UNL     1      -0.759   3.926 -24.297  0.00  0.00    +0.016 A 
ATOM     19  C   UNL     1      -3.425   3.541 -22.329  0.00  0.00    +0.144 C 
ATOM     20  C   UNL     1      -1.939   3.729 -23.929  0.00  0.00    +0.080 C 
ENDROOT
BRANCH   4  21
ATOM     21  O   UNL     1       2.228   4.545 -22.949  0.00  0.00    -0.491 OA
ATOM     22  C   UNL     1       3.295   3.893 -22.988  0.00  0.00    +0.277 C 
ENDBRANCH   4  21
BRANCH  19  23
ATOM     23  O   UNL     1      -3.953   3.510 -21.083  0.00  0.00    -0.495 OA
ATOM     24  C   UNL     1      -4.972   2.761 -20.835  0.00  0.00    +0.276 C 
ENDBRANCH  19  23
BRANCH   1  25
ATOM     25  C   UNL     1      -2.192   3.820 -21.337  0.00  0.00    +0.167 C 
BRANCH  25  26
ATOM     26  O   UNL     1      -2.563   4.865 -20.767  0.00  0.00    -0.387 OA
ATOM     27  H   UNL     1      -2.222   4.877 -19.859  0.00  0.00    +0.210 HD
ENDBRANCH  25  26
BRANCH  25  28
ATOM     28  C   UNL     1      -1.778   2.859 -20.630  0.00  0.00    +0.036 C 
BRANCH  28  29
ATOM     29  C   UNL     1      -1.258   1.823 -21.130  0.00  0.00    +0.002 C 
BRANCH  29  31
ATOM     30  C   UNL     1       0.771   1.199 -21.740  0.00  0.00    +0.004 C 
ATOM     31  C   UNL     1      -0.038   1.560 -20.849  0.00  0.00    -0.003 C 
ENDBRANCH  29  31
ENDBRANCH  28  29
ENDBRANCH  25  28
ENDBRANCH   1  25
TORSDOF 7
ENDMDL
MODEL 5
REMARK VINA RESULT:    -7.590      5.759      8.720
REMARK INTER + INTRA:          -2.099
REMARK INTER:                  -9.465
REMARK INTRA:                   7.366
REMARK UNBOUND:                 8.375
REMARK  Name = CCCC[C@H](O)[C@]12Oc3c(OC)ccc4c3[C@]13CCN(C)[C@H](C4)C3=CC=C2OC      ZINC000100393885
REMARK  11 active torsions:
REMARK  status: ('A' for Active; 'I' for Inactive)
REMARK    1  A    between atoms: C_1  and  C_2
REMARK    2  A    between atoms: C_2  and  C_3
REMARK    3  A    between atoms: C_3  and  C_4
REMARK    4  A    between atoms: C_4  and  C_5
REMARK    5  A    between atoms: C_5  and  O_6
REMARK    6  A    between atoms: C_5  and  C_7
REMARK    7  A    between atoms: C_10  and  O_11
REMARK    8  A    between atoms: O_11  and  C_12
REMARK    9  A    between atoms: N_20  and  C_21
REMARK   10  A    between atoms: C_27  and  O_28
REMARK   11  A    between atoms: O_28  and  C_29
REMARK                            x       y       z     vdW  Elec       q    Type
REMARK                         _______ _______ _______ _____ _____    ______ ____
ROOT
ATOM      1  C   UNL     1       4.976   6.546 -22.164  0.00  0.00    +0.206 C 
ATOM      2  O   UNL     1       3.476   6.700 -22.281  0.00  0.00    -0.470 OA
ATOM      3  C   UNL     1       2.799   5.530 -22.927  0.00  0.00    +0.168 A 
ATOM      4  C   UNL     1       1.704   5.019 -23.311  0.00  0.00    +0.162 A 
ATOM      5  C   UNL     1       1.699   3.878 -23.857  0.00  0.00    +0.050 A 
ATOM      6  C   UNL     1       2.774   3.254 -24.019  0.00  0.00    +0.008 A 
ATOM      7  C   UNL     1       3.855   3.757 -23.641  0.00  0.00    -0.034 A 
ATOM      8  C   UNL     1       4.947   3.127 -23.804  0.00  0.00    +0.094 C 
ATOM      9  C   UNL     1       6.029   3.628 -23.426  0.00  0.00    +0.096 C 
ATOM     10  C   UNL     1       6.029   4.769 -22.881  0.00  0.00    -0.007 C 
ATOM     11  C   UNL     1       7.121   5.278 -22.498  0.00  0.00    +0.009 C 
ATOM     12  C   UNL     1       7.137   6.406 -21.956  0.00  0.00    +0.045 C 
ATOM     13  N   UNL     1       7.306   4.113 -23.032  0.00  0.00    +0.239 N 
ATOM     14  H   UNL     1       8.147   3.559 -23.190  0.00  0.00    +0.204 HD
ATOM     15  C   UNL     1       8.347   3.442 -23.221  0.00  0.00    +0.191 C 
ATOM     16  C   UNL     1       7.351   5.383 -22.418  0.00  0.00    +0.133 C 
ATOM     17  C   UNL     1       6.126   6.062 -22.249  0.00  0.00    +0.071 C 
ATOM     18  C   UNL     1       3.878   4.891 -23.095  0.00  0.00    +0.016 A 
ATOM     19  C   UNL     1       6.063   7.046 -21.786  0.00  0.00    +0.144 C 
ATOM     20  C   UNL     1       4.958   5.397 -22.716  0.00  0.00    +0.080 C 
ENDROOT
BRANCH   4  21
ATOM     21  O   UNL     1       0.629   5.642 -23.149  0.00  0.00    -0.491 OA
ATOM     22  C   UNL     1      -0.465   5.050 -23.279  0.00  0.00    +0.277 C 
ENDBRANCH   4  21
BRANCH  19  23
ATOM     23  O   UNL     1       6.302   8.236 -21.186  0.00  0.00    -0.495 OA
ATOM     24  C   UNL     1       7.494   8.529 -20.792  0.00  0.00    +0.276 C 
ENDBRANCH  19  23
BRANCH   1  25
ATOM     25  C   UNL     1       4.623   7.744 -21.635  0.00  0.00    +0.167 C 
BRANCH  25  26
ATOM     26  O   UNL     1       4.442   7.848 -20.406  0.00  0.00    -0.387 OA
ATOM     27  H   UNL     1       5.269   7.651 -19.939  0.00  0.00    +0.210 HD
ENDBRANCH  25  26
BRANCH  25  28
ATOM     28  C   UNL     1       4.470   8.769 -22.358  0.00  0.00    +0.036 C 
BRANCH  28  29
ATOM     29  C   UNL     1       3.896   9.813 -21.941  0.00  0.00    +0.002 C 
BRANCH  29  31
ATOM     30  C   UNL     1       3.362  11.916 -22.349  0.00  0.00    +0.004 C 
ATOM     31  C   UNL     1       3.759  10.794 -22.750  0.00  0.00    -0.003 C 
ENDBRANCH  29  31
ENDBRANCH  28  29
ENDBRANCH  25  28
ENDBRANCH   1  25
TORSDOF 7
ENDMDL
MODEL 6
REMARK VINA RESULT:    -7.518      1.368      4.542
REMARK INTER + INTRA:          -2.000
REMARK INTER:                 -10.238
REMARK INTRA:                   8.238
REMARK UNBOUND:                 8.375
REMARK  Name = CCCC[C@H](O)[C@]12Oc3c(OC)ccc4c3[C@]13CCN(C)[C@H](C4)C3=CC=C2OC      ZINC000100393885
REMARK  11 active torsions:
REMARK  status: ('A' for Active; 'I' for Inactive)
REMARK    1  A    between atoms: C_1  and  C_2
REMARK    2  A    between atoms: C_2  and  C_3
REMARK    3  A    between atoms: C_3  and  C_4
REMARK    4  A    between atoms: C_4  and  C_5
REMARK    5  A    between atoms: C_5  and  O_6
REMARK    6  A    between atoms: C_5  and  C_7
REMARK    7  A    between atoms: C_10  and  O_11
REMARK    8  A    between atoms: O_11  and  C_12
REMARK    9  A    between atoms: N_20  and  C_21
REMARK   10  A    between atoms: C_27  and  O_28
REMARK   11  A    between atoms: O_28  and  C_29
REMARK                            x       y       z     vdW  Elec       q    Type
REMARK                         _______ _______ _______ _____ _____    ______ ____
ROOT
ATOM      1  C   UNL     1      -2.808   2.665 -22.503  0.00  0.00    +0.206 C 
ATOM      2  O   UNL     1      -1.718   2.168 -21.581  0.00  0.00    -0.470 OA
ATOM      3  C   UNL     1      -0.365   2.110 -22.220  0.00  0.00    +0.168 A 
ATOM      4  C   UNL     1       0.863   1.831 -22.078  0.00  0.00    +0.162 A 
ATOM      5  C   UNL     1       1.660   1.983 -23.049  0.00  0.00    +0.050 A 
ATOM      6  C   UNL     1       1.236   2.409 -24.149  0.00  0.00    +0.008 A 
ATOM      7  C   UNL     1       0.025   2.684 -24.291  0.00  0.00    -0.034 A 
ATOM      8  C   UNL     1      -0.409   3.116 -25.406  0.00  0.00    +0.094 C 
ATOM      9  C   UNL     1      -1.620   3.392 -25.549  0.00  0.00    +0.096 C 
ATOM     10  C   UNL     1      -2.413   3.239 -24.576  0.00  0.00    -0.007 C 
ATOM     11  C   UNL     1      -3.638   3.517 -24.718  0.00  0.00    +0.009 C 
ATOM     12  C   UNL     1      -4.435   3.370 -23.764  0.00  0.00    +0.045 C 
ATOM     13  N   UNL     1      -2.976   3.733 -25.810  0.00  0.00    +0.239 N 
ATOM     14  H   UNL     1      -3.262   4.075 -26.727  0.00  0.00    +0.204 HD
ATOM     15  C   UNL     1      -3.340   4.154 -26.932  0.00  0.00    +0.191 C 
ATOM     16  C   UNL     1      -3.894   3.576 -24.751  0.00  0.00    +0.133 C 
ATOM     17  C   UNL     1      -3.389   3.095 -23.524  0.00  0.00    +0.071 C 
ATOM     18  C   UNL     1      -0.783   2.539 -23.336  0.00  0.00    +0.016 A 
ATOM     19  C   UNL     1      -4.022   2.942 -22.651  0.00  0.00    +0.144 C 
ATOM     20  C   UNL     1      -1.995   2.814 -23.475  0.00  0.00    +0.080 C 
ENDROOT
BRANCH   4  21
ATOM     21  O   UNL     1       1.287   1.406 -20.979  0.00  0.00    -0.491 OA
ATOM     22  C   UNL     1       2.511   1.443 -20.722  0.00  0.00    +0.277 C 
ENDBRANCH   4  21
BRANCH  19  23
ATOM     23  O   UNL     1      -5.040   2.858 -21.762  0.00  0.00    -0.495 OA
ATOM     24  C   UNL     1      -6.255   3.032 -22.157  0.00  0.00    +0.276 C 
ENDBRANCH  19  23
BRANCH   1  25
ATOM     25  C   UNL     1      -3.359   2.391 -21.295  0.00  0.00    +0.167 C 
BRANCH  25  26
ATOM     26  O   UNL     1      -3.745   1.233 -21.040  0.00  0.00    -0.387 OA
ATOM     27  H   UNL     1      -2.976   0.653 -20.924  0.00  0.00    +0.210 HD
ENDBRANCH  25  26
BRANCH  25  28
ATOM     28  C   UNL     1      -3.495   3.282 -20.410  0.00  0.00    +0.036 C 
BRANCH  28  29
ATOM     29  C   UNL     1      -2.573   4.095 -20.120  0.00  0.00    +0.002 C 
BRANCH  29  31
ATOM     30  C   UNL     1      -1.550   5.584 -21.390  0.00  0.00    +0.004 C 
ATOM     31  C   UNL     1      -2.549   5.225 -20.719  0.00  0.00    -0.003 C 
ENDBRANCH  29  31
ENDBRANCH  28  29
ENDBRANCH  25  28
ENDBRANCH   1  25
TORSDOF 7
ENDMDL
MODEL 7
REMARK VINA RESULT:    -7.405      5.336      8.988
REMARK INTER + INTRA:          -1.843
REMARK INTER:                  -9.226
REMARK INTRA:                   7.382
REMARK UNBOUND:                 8.375
REMARK  Name = CCCC[C@H](O)[C@]12Oc3c(OC)ccc4c3[C@]13CCN(C)[C@H](C4)C3=CC=C2OC      ZINC000100393885
REMARK  11 active torsions:
REMARK  status: ('A' for Active; 'I' for Inactive)
REMARK    1  A    between atoms: C_1  and  C_2
REMARK    2  A    between atoms: C_2  and  C_3
REMARK    3  A    between atoms: C_3  and  C_4
REMARK    4  A    between atoms: C_4  and  C_5
REMARK    5  A    between atoms: C_5  and  O_6
REMARK    6  A    between atoms: C_5  and  C_7
REMARK    7  A    between atoms: C_10  and  O_11
REMARK    8  A    between atoms: O_11  and  C_12
REMARK    9  A    between atoms: N_20  and  C_21
REMARK   10  A    between atoms: C_27  and  O_28
REMARK   11  A    between atoms: O_28  and  C_29
REMARK                            x       y       z     vdW  Elec       q    Type
REMARK                         _______ _______ _______ _____ _____    ______ ____
ROOT
ATOM      1  C   UNL     1       4.737   4.611 -22.976  0.00  0.00    +0.206 C 
ATOM      2  O   UNL     1       4.045   5.787 -22.325  0.00  0.00    -0.470 OA
ATOM      3  C   UNL     1       4.976   6.892 -21.932  0.00  0.00    +0.168 A 
ATOM      4  C   UNL     1       5.097   8.040 -21.407  0.00  0.00    +0.162 A 
ATOM      5  C   UNL     1       6.240   8.573 -21.314  0.00  0.00    +0.050 A 
ATOM      6  C   UNL     1       7.252   7.968 -21.740  0.00  0.00    +0.008 A 
ATOM      7  C   UNL     1       7.134   6.836 -22.258  0.00  0.00    -0.034 A 
ATOM      8  C   UNL     1       8.159   6.220 -22.692  0.00  0.00    +0.094 C 
ATOM      9  C   UNL     1       8.044   5.088 -23.210  0.00  0.00    +0.096 C 
ATOM     10  C   UNL     1       6.899   4.559 -23.301  0.00  0.00    -0.007 C 
ATOM     11  C   UNL     1       6.779   3.414 -23.824  0.00  0.00    +0.009 C 
ATOM     12  C   UNL     1       5.652   2.878 -23.921  0.00  0.00    +0.045 C 
ATOM     13  N   UNL     1       8.015   3.800 -23.814  0.00  0.00    +0.239 N 
ATOM     14  H   UNL     1       8.873   3.358 -24.142  0.00  0.00    +0.204 HD
ATOM     15  C   UNL     1       9.062   3.246 -24.221  0.00  0.00    +0.191 C 
ATOM     16  C   UNL     1       6.756   3.174 -23.935  0.00  0.00    +0.133 C 
ATOM     17  C   UNL     1       5.635   3.879 -23.447  0.00  0.00    +0.071 C 
ATOM     18  C   UNL     1       6.004   6.290 -22.359  0.00  0.00    +0.016 A 
ATOM     19  C   UNL     1       4.625   3.475 -23.497  0.00  0.00    +0.144 C 
ATOM     20  C   UNL     1       5.884   5.158 -22.877  0.00  0.00    +0.080 C 
ENDROOT
BRANCH   4  21
ATOM     21  O   UNL     1       4.085   8.645 -20.981  0.00  0.00    -0.491 OA
ATOM     22  C   UNL     1       4.119   9.884 -20.817  0.00  0.00    +0.277 C 
ENDBRANCH   4  21
BRANCH  19  23
ATOM     23  O   UNL     1       3.516   2.724 -23.697  0.00  0.00    -0.495 OA
ATOM     24  C   UNL     1       3.607   1.596 -24.315  0.00  0.00    +0.276 C 
ENDBRANCH  19  23
BRANCH   1  25
ATOM     25  C   UNL     1       3.407   4.348 -22.915  0.00  0.00    +0.167 C 
BRANCH  25  26
ATOM     26  O   UNL     1       2.971   3.566 -22.048  0.00  0.00    -0.387 OA
ATOM     27  H   UNL     1       3.710   3.218 -21.525  0.00  0.00    +0.210 HD
ENDBRANCH  25  26
BRANCH  25  28
ATOM     28  C   UNL     1       2.590   4.878 -23.718  0.00  0.00    +0.036 C 
BRANCH  28  29
ATOM     29  C   UNL     1       1.345   4.892 -23.508  0.00  0.00    +0.002 C 
BRANCH  29  31
ATOM     30  C   UNL     1       1.015   4.091 -25.539  0.00  0.00    +0.004 C 
ATOM     31  C   UNL     1       0.571   4.427 -24.414  0.00  0.00    -0.003 C 
ENDBRANCH  29  31
ENDBRANCH  28  29
ENDBRANCH  25  28
ENDBRANCH   1  25
TORSDOF 7
ENDMDL
MODEL 8
REMARK VINA RESULT:    -7.327      4.318      7.944
REMARK INTER + INTRA:          -1.737
REMARK INTER:                  -9.194
REMARK INTRA:                   7.457
REMARK UNBOUND:                 8.375
REMARK  Name = CCCC[C@H](O)[C@]12Oc3c(OC)ccc4c3[C@]13CCN(C)[C@H](C4)C3=CC=C2OC      ZINC000100393885
REMARK  11 active torsions:
REMARK  status: ('A' for Active; 'I' for Inactive)
REMARK    1  A    between atoms: C_1  and  C_2
REMARK    2  A    between atoms: C_2  and  C_3
REMARK    3  A    between atoms: C_3  and  C_4
REMARK    4  A    between atoms: C_4  and  C_5
REMARK    5  A    between atoms: C_5  and  O_6
REMARK    6  A    between atoms: C_5  and  C_7
REMARK    7  A    between atoms: C_10  and  O_11
REMARK    8  A    between atoms: O_11  and  C_12
REMARK    9  A    between atoms: N_20  and  C_21
REMARK   10  A    between atoms: C_27  and  O_28
REMARK   11  A    between atoms: O_28  and  C_29
REMARK                            x       y       z     vdW  Elec       q    Type
REMARK                         _______ _______ _______ _____ _____    ______ ____
ROOT
ATOM      1  C   UNL     1       3.118   4.611 -23.371  0.00  0.00    +0.206 C 
ATOM      2  O   UNL     1       2.801   6.065 -23.105  0.00  0.00    -0.470 OA
ATOM      3  C   UNL     1       3.934   6.828 -22.491  0.00  0.00    +0.168 A 
ATOM      4  C   UNL     1       4.345   7.942 -22.048  0.00  0.00    +0.162 A 
ATOM      5  C   UNL     1       5.521   8.045 -21.592  0.00  0.00    +0.050 A 
ATOM      6  C   UNL     1       6.278   7.046 -21.579  0.00  0.00    +0.008 A 
ATOM      7  C   UNL     1       5.874   5.946 -22.015  0.00  0.00    -0.034 A 
ATOM      8  C   UNL     1       6.641   4.931 -22.002  0.00  0.00    +0.094 C 
ATOM      9  C   UNL     1       6.239   3.830 -22.438  0.00  0.00    +0.096 C 
ATOM     10  C   UNL     1       5.063   3.733 -22.893  0.00  0.00    -0.007 C 
ATOM     11  C   UNL     1       4.654   2.621 -23.334  0.00  0.00    +0.009 C 
ATOM     12  C   UNL     1       3.492   2.509 -23.787  0.00  0.00    +0.045 C 
ATOM     13  N   UNL     1       5.875   2.539 -22.911  0.00  0.00    +0.239 N 
ATOM     14  H   UNL     1       6.535   1.763 -22.873  0.00  0.00    +0.204 HD
ATOM     15  C   UNL     1       6.677   1.578 -22.870  0.00  0.00    +0.191 C 
ATOM     16  C   UNL     1       4.570   2.386 -23.426  0.00  0.00    +0.133 C 
ATOM     17  C   UNL     1       3.740   3.528 -23.429  0.00  0.00    +0.071 C 
ATOM     18  C   UNL     1       4.708   5.826 -22.472  0.00  0.00    +0.016 A 
ATOM     19  C   UNL     1       2.718   3.505 -23.808  0.00  0.00    +0.144 C 
ATOM     20  C   UNL     1       4.301   4.727 -22.909  0.00  0.00    +0.080 C 
ENDROOT
BRANCH   4  21
ATOM     21  O   UNL     1       3.588   8.941 -22.062  0.00  0.00    -0.491 OA
ATOM     22  C   UNL     1       4.010  10.042 -22.476  0.00  0.00    +0.277 C 
ENDBRANCH   4  21
BRANCH  19  23
ATOM     23  O   UNL     1       1.517   3.169 -24.334  0.00  0.00    -0.495 OA
ATOM     24  C   UNL     1       1.453   2.310 -25.293  0.00  0.00    +0.276 C 
ENDBRANCH  19  23
BRANCH   1  25
ATOM     25  C   UNL     1       1.845   4.854 -23.771  0.00  0.00    +0.167 C 
BRANCH  25  26
ATOM     26  O   UNL     1       1.614   5.114 -24.969  0.00  0.00    -0.387 OA
ATOM     27  H   UNL     1       1.524   4.288 -25.468  0.00  0.00    +0.210 HD
ENDBRANCH  25  26
BRANCH  25  28
ATOM     28  C   UNL     1       0.878   4.825 -22.960  0.00  0.00    +0.036 C 
BRANCH  28  29
ATOM     29  C   UNL     1      -0.250   5.323 -23.231  0.00  0.00    +0.002 C 
BRANCH  29  31
ATOM     30  C   UNL     1      -2.088   4.186 -23.683  0.00  0.00    +0.004 C 
ATOM     31  C   UNL     1      -1.298   4.696 -22.851  0.00  0.00    -0.003 C 
ENDBRANCH  29  31
ENDBRANCH  28  29
ENDBRANCH  25  28
ENDBRANCH   1  25
TORSDOF 7
ENDMDL
MODEL 9
REMARK VINA RESULT:    -7.242      2.335      4.744
REMARK INTER + INTRA:          -1.619
REMARK INTER:                  -9.994
REMARK INTRA:                   8.375
REMARK UNBOUND:                 8.375
REMARK  Name = CCCC[C@H](O)[C@]12Oc3c(OC)ccc4c3[C@]13CCN(C)[C@H](C4)C3=CC=C2OC      ZINC000100393885
REMARK  11 active torsions:
REMARK  status: ('A' for Active; 'I' for Inactive)
REMARK    1  A    between atoms: C_1  and  C_2
REMARK    2  A    between atoms: C_2  and  C_3
REMARK    3  A    between atoms: C_3  and  C_4
REMARK    4  A    between atoms: C_4  and  C_5
REMARK    5  A    between atoms: C_5  and  O_6
REMARK    6  A    between atoms: C_5  and  C_7
REMARK    7  A    between atoms: C_10  and  O_11
REMARK    8  A    between atoms: O_11  and  C_12
REMARK    9  A    between atoms: N_20  and  C_21
REMARK   10  A    between atoms: C_27  and  O_28
REMARK   11  A    between atoms: O_28  and  C_29
REMARK                            x       y       z     vdW  Elec       q    Type
REMARK                         _______ _______ _______ _____ _____    ______ ____
ROOT
ATOM      1  C   UNL     1       0.806   2.443 -23.940  0.00  0.00    +0.206 C 
ATOM      2  O   UNL     1      -0.314   2.934 -24.829  0.00  0.00    -0.470 OA
ATOM      3  C   UNL     1      -1.650   2.969 -24.152  0.00  0.00    +0.168 A 
ATOM      4  C   UNL     1      -2.885   3.233 -24.258  0.00  0.00    +0.162 A 
ATOM      5  C   UNL     1      -3.653   3.062 -23.268  0.00  0.00    +0.050 A 
ATOM      6  C   UNL     1      -3.194   2.633 -22.184  0.00  0.00    +0.008 A 
ATOM      7  C   UNL     1      -1.976   2.372 -22.077  0.00  0.00    -0.034 A 
ATOM      8  C   UNL     1      -1.507   1.936 -20.978  0.00  0.00    +0.094 C 
ATOM      9  C   UNL     1      -0.289   1.675 -20.869  0.00  0.00    +0.096 C 
ATOM     10  C   UNL     1       0.475   1.847 -21.862  0.00  0.00    -0.007 C 
ATOM     11  C   UNL     1       1.707   1.583 -21.756  0.00  0.00    +0.009 C 
ATOM     12  C   UNL     1       2.476   1.749 -22.729  0.00  0.00    +0.045 C 
ATOM     13  N   UNL     1       1.078   1.350 -20.648  0.00  0.00    +0.239 N 
ATOM     14  H   UNL     1       1.393   1.004 -19.742  0.00  0.00    +0.204 HD
ATOM     15  C   UNL     1       1.477   0.924 -19.540  0.00  0.00    +0.191 C 
ATOM     16  C   UNL     1       1.965   1.527 -21.731  0.00  0.00    +0.133 C 
ATOM     17  C   UNL     1       1.420   2.012 -22.939  0.00  0.00    +0.071 C 
ATOM     18  C   UNL     1      -1.197   2.536 -23.052  0.00  0.00    +0.016 A 
ATOM     19  C   UNL     1       2.028   2.180 -23.828  0.00  0.00    +0.144 C 
ATOM     20  C   UNL     1       0.022   2.275 -22.948  0.00  0.00    +0.080 C 
ENDROOT
BRANCH   4  21
ATOM     21  O   UNL     1      -3.344   3.662 -25.342  0.00  0.00    -0.491 OA
ATOM     22  C   UNL     1      -4.581   3.722 -25.519  0.00  0.00    +0.277 C 
ENDBRANCH   4  21
BRANCH  19  23
ATOM     23  O   UNL     1       3.020   2.285 -24.743  0.00  0.00    -0.495 OA
ATOM     24  C   UNL     1       4.251   2.274 -24.360  0.00  0.00    +0.276 C 
ENDBRANCH  19  23
BRANCH   1  25
ATOM     25  C   UNL     1       1.321   2.734 -25.161  0.00  0.00    +0.167 C 
BRANCH  25  26
ATOM     26  O   UNL     1       1.564   1.812 -25.964  0.00  0.00    -0.387 OA
ATOM     27  H   UNL     1       0.820   1.713 -26.578  0.00  0.00    +0.210 HD
ENDBRANCH  25  26
BRANCH  25  28
ATOM     28  C   UNL     1       1.565   3.923 -25.512  0.00  0.00    +0.036 C 
BRANCH  28  29
ATOM     29  C   UNL     1       1.330   4.912 -24.764  0.00  0.00    +0.002 C 
BRANCH  29  31
ATOM     30  C   UNL     1       2.251   5.612 -22.883  0.00  0.00    +0.004 C 
ATOM     31  C   UNL     1       2.307   5.436 -24.125  0.00  0.00    -0.003 C 
ENDBRANCH  29  31
ENDBRANCH  28  29
ENDBRANCH  25  28
ENDBRANCH   1  25
TORSDOF 7
ENDMDL
