MODEL 1
REMARK VINA RESULT:    -8.929      0.000      0.000
REMARK INTER + INTRA:         -10.332
REMARK INTER:                 -10.137
REMARK INTRA:                  -0.195
REMARK UNBOUND:                -0.358
REMARK  Name = CC[N@@+]1(C)CCc2cc3c(c4c2[C@@H]1Cc1ccc(OC)cc1-4)OCO3                 ZINC000249692478
REMARK  5 active torsions:
REMARK  status: ('A' for Active; 'I' for Inactive)
REMARK    1  A    between atoms: C_1  and  C_2
REMARK    2  A    between atoms: C_2  and  N_3
REMARK    3  A    between atoms: N_3  and  C_4
REMARK    4  A    between atoms: C_18  and  O_19
REMARK    5  A    between atoms: O_19  and  C_20
REMARK                            x       y       z     vdW  Elec       q    Type
REMARK                         _______ _______ _______ _____ _____    ______ ____
ROOT
ATOM      1  N   UNL     1       0.954   2.047 -22.271  0.00  0.00    +0.247 N 
ATOM      2  C   UNL     1       1.748   2.161 -23.293  0.00  0.00    +0.138 C 
ATOM      3  C   UNL     1       1.277   2.551 -24.441  0.00  0.00    +0.086 C 
ATOM      4  C   UNL     1       0.013   2.829 -24.566  0.00  0.00    -0.030 A 
ATOM      5  C   UNL     1      -0.456   3.219 -25.713  0.00  0.00    +0.054 A 
ATOM      6  C   UNL     1      -1.720   3.497 -25.838  0.00  0.00    +0.167 A 
ATOM      7  C   UNL     1      -2.514   3.383 -24.814  0.00  0.00    +0.174 A 
ATOM      8  O   UNL     1      -3.712   3.715 -25.197  0.00  0.00    -0.452 OA
ATOM      9  C   UNL     1      -3.657   4.033 -26.456  0.00  0.00    +0.466 C 
ATOM     10  C   UNL     1      -2.044   2.992 -23.667  0.00  0.00    +0.037 A 
ATOM     11  C   UNL     1      -2.839   2.879 -22.644  0.00  0.00    -0.007 A 
ATOM     12  C   UNL     1      -4.103   3.157 -22.769  0.00  0.00    +0.054 A 
ATOM     13  C   UNL     1      -4.896   3.043 -21.745  0.00  0.00    +0.121 A 
ATOM     14  C   UNL     1      -4.427   2.653 -20.599  0.00  0.00    +0.046 A 
ATOM     15  C   UNL     1      -3.163   2.375 -20.474  0.00  0.00    +0.008 A 
ATOM     16  C   UNL     1      -2.368   2.488 -21.497  0.00  0.00    -0.034 A 
ATOM     17  C   UNL     1      -1.105   2.211 -21.372  0.00  0.00    +0.095 C 
ATOM     18  O   UNL     1      -2.426   3.898 -26.852  0.00  0.00    -0.453 OA
ATOM     19  C   UNL     1      -0.780   2.715 -23.543  0.00  0.00    +0.015 A 
ATOM     20  C   UNL     1       0.550   1.809 -21.058  0.00  0.00    +0.193 C 
ATOM     21  C   UNL     1      -0.311   2.325 -22.395  0.00  0.00    +0.102 C 
ENDROOT
BRANCH   1  23
ATOM     22  C   UNL     1       2.649   0.578 -22.087  0.00  0.00    +0.060 C 
ATOM     23  C   UNL     1       2.077   1.687 -21.725  0.00  0.00    +0.130 C 
ENDBRANCH   1  23
BRANCH  13  24
ATOM     24  O   UNL     1      -6.161   3.320 -21.870  0.00  0.00    -0.495 OA
ATOM     25  C   UNL     1      -7.050   2.386 -21.711  0.00  0.00    +0.277 C 
ENDBRANCH  13  24
TORSDOF 2
ENDMDL
MODEL 2
REMARK VINA RESULT:    -7.813      1.408      3.873
REMARK INTER + INTRA:          -9.085
REMARK INTER:                  -8.790
REMARK INTRA:                  -0.295
REMARK UNBOUND:                -0.358
REMARK  Name = CC[N@@+]1(C)CCc2cc3c(c4c2[C@@H]1Cc1ccc(OC)cc1-4)OCO3                 ZINC000249692478
REMARK  5 active torsions:
REMARK  status: ('A' for Active; 'I' for Inactive)
REMARK    1  A    between atoms: C_1  and  C_2
REMARK    2  A    between atoms: C_2  and  N_3
REMARK    3  A    between atoms: N_3  and  C_4
REMARK    4  A    between atoms: C_18  and  O_19
REMARK    5  A    between atoms: O_19  and  C_20
REMARK                            x       y       z     vdW  Elec       q    Type
REMARK                         _______ _______ _______ _____ _____    ______ ____
ROOT
ATOM      1  N   UNL     1       1.657   2.431 -24.062  0.00  0.00    +0.247 N 
ATOM      2  C   UNL     1       2.128   2.062 -22.908  0.00  0.00    +0.138 C 
ATOM      3  C   UNL     1       1.327   1.934 -21.892  0.00  0.00    +0.086 C 
ATOM      4  C   UNL     1       0.057   2.173 -22.030  0.00  0.00    -0.030 A 
ATOM      5  C   UNL     1      -0.742   2.045 -21.013  0.00  0.00    +0.054 A 
ATOM      6  C   UNL     1      -2.013   2.284 -21.150  0.00  0.00    +0.167 A 
ATOM      7  C   UNL     1      -2.483   2.653 -22.305  0.00  0.00    +0.174 A 
ATOM      8  O   UNL     1      -3.765   2.828 -22.180  0.00  0.00    -0.452 OA
ATOM      9  C   UNL     1      -4.087   2.567 -20.947  0.00  0.00    +0.466 C 
ATOM     10  C   UNL     1      -1.683   2.782 -23.322  0.00  0.00    +0.037 A 
ATOM     11  C   UNL     1      -2.154   3.151 -24.476  0.00  0.00    -0.007 A 
ATOM     12  C   UNL     1      -3.424   3.390 -24.614  0.00  0.00    +0.054 A 
ATOM     13  C   UNL     1      -3.893   3.759 -25.769  0.00  0.00    +0.121 A 
ATOM     14  C   UNL     1      -3.095   3.888 -26.785  0.00  0.00    +0.046 A 
ATOM     15  C   UNL     1      -1.824   3.648 -26.648  0.00  0.00    +0.008 A 
ATOM     16  C   UNL     1      -1.353   3.279 -25.493  0.00  0.00    -0.034 A 
ATOM     17  C   UNL     1      -0.083   3.039 -25.355  0.00  0.00    +0.095 C 
ATOM     18  O   UNL     1      -3.004   2.232 -20.311  0.00  0.00    -0.453 OA
ATOM     19  C   UNL     1      -0.413   2.542 -23.184  0.00  0.00    +0.015 A 
ATOM     20  C   UNL     1       1.624   2.755 -25.321  0.00  0.00    +0.193 C 
ATOM     21  C   UNL     1       0.386   2.671 -24.201  0.00  0.00    +0.102 C 
ENDROOT
BRANCH   1  23
ATOM     22  C   UNL     1       3.435   1.120 -24.500  0.00  0.00    +0.060 C 
ATOM     23  C   UNL     1       2.916   2.304 -24.362  0.00  0.00    +0.130 C 
ENDBRANCH   1  23
BRANCH  13  24
ATOM     24  O   UNL     1      -5.164   3.999 -25.907  0.00  0.00    -0.495 OA
ATOM     25  C   UNL     1      -5.945   3.985 -24.868  0.00  0.00    +0.277 C 
ENDBRANCH  13  24
TORSDOF 2
ENDMDL
MODEL 3
REMARK VINA RESULT:    -7.655      4.810      8.187
REMARK INTER + INTRA:          -8.908
REMARK INTER:                  -8.580
REMARK INTRA:                  -0.328
REMARK UNBOUND:                -0.358
REMARK  Name = CC[N@@+]1(C)CCc2cc3c(c4c2[C@@H]1Cc1ccc(OC)cc1-4)OCO3                 ZINC000249692478
REMARK  5 active torsions:
REMARK  status: ('A' for Active; 'I' for Inactive)
REMARK    1  A    between atoms: C_1  and  C_2
REMARK    2  A    between atoms: C_2  and  N_3
REMARK    3  A    between atoms: N_3  and  C_4
REMARK    4  A    between atoms: C_18  and  O_19
REMARK    5  A    between atoms: O_19  and  C_20
REMARK                            x       y       z     vdW  Elec       q    Type
REMARK                         _______ _______ _______ _____ _____    ______ ____
ROOT
ATOM      1  N   UNL     1       1.046   4.078 -23.536  0.00  0.00    +0.247 N 
ATOM      2  C   UNL     1       0.184   3.118 -23.381  0.00  0.00    +0.138 C 
ATOM      3  C   UNL     1       0.539   2.014 -22.794  0.00  0.00    +0.086 C 
ATOM      4  C   UNL     1       1.757   1.870 -22.362  0.00  0.00    -0.030 A 
ATOM      5  C   UNL     1       2.112   0.766 -21.774  0.00  0.00    +0.054 A 
ATOM      6  C   UNL     1       3.329   0.622 -21.342  0.00  0.00    +0.167 A 
ATOM      7  C   UNL     1       4.192   1.583 -21.498  0.00  0.00    +0.174 A 
ATOM      8  O   UNL     1       5.322   1.195 -20.986  0.00  0.00    -0.452 OA
ATOM      9  C   UNL     1       5.158  -0.006 -20.514  0.00  0.00    +0.466 C 
ATOM     10  C   UNL     1       3.836   2.687 -22.085  0.00  0.00    +0.037 A 
ATOM     11  C   UNL     1       4.699   3.647 -22.240  0.00  0.00    -0.007 A 
ATOM     12  C   UNL     1       5.917   3.503 -21.808  0.00  0.00    +0.054 A 
ATOM     13  C   UNL     1       6.779   4.464 -21.963  0.00  0.00    +0.121 A 
ATOM     14  C   UNL     1       6.424   5.567 -22.550  0.00  0.00    +0.046 A 
ATOM     15  C   UNL     1       5.207   5.711 -22.983  0.00  0.00    +0.008 A 
ATOM     16  C   UNL     1       4.344   4.751 -22.828  0.00  0.00    -0.034 A 
ATOM     17  C   UNL     1       3.126   4.895 -23.260  0.00  0.00    +0.095 C 
ATOM     18  O   UNL     1       3.926  -0.360 -20.734  0.00  0.00    -0.453 OA
ATOM     19  C   UNL     1       2.619   2.830 -22.517  0.00  0.00    +0.015 A 
ATOM     20  C   UNL     1       1.546   5.227 -23.884  0.00  0.00    +0.193 C 
ATOM     21  C   UNL     1       2.265   3.934 -23.104  0.00  0.00    +0.102 C 
ENDROOT
BRANCH   1  23
ATOM     22  C   UNL     1      -0.854   5.273 -23.360  0.00  0.00    +0.060 C 
ATOM     23  C   UNL     1       0.003   4.621 -24.089  0.00  0.00    +0.130 C 
ENDBRANCH   1  23
BRANCH  13  24
ATOM     24  O   UNL     1       7.997   4.320 -21.531  0.00  0.00    -0.495 OA
ATOM     25  C   UNL     1       8.490   5.170 -20.681  0.00  0.00    +0.277 C 
ENDBRANCH  13  24
TORSDOF 2
ENDMDL
MODEL 4
REMARK VINA RESULT:    -7.262      2.335      5.944
REMARK INTER + INTRA:          -8.470
REMARK INTER:                  -8.239
REMARK INTRA:                  -0.231
REMARK UNBOUND:                -0.358
REMARK  Name = CC[N@@+]1(C)CCc2cc3c(c4c2[C@@H]1Cc1ccc(OC)cc1-4)OCO3                 ZINC000249692478
REMARK  5 active torsions:
REMARK  status: ('A' for Active; 'I' for Inactive)
REMARK    1  A    between atoms: C_1  and  C_2
REMARK    2  A    between atoms: C_2  and  N_3
REMARK    3  A    between atoms: N_3  and  C_4
REMARK    4  A    between atoms: C_18  and  O_19
REMARK    5  A    between atoms: O_19  and  C_20
REMARK                            x       y       z     vdW  Elec       q    Type
REMARK                         _______ _______ _______ _____ _____    ______ ____
ROOT
ATOM      1  N   UNL     1      -3.597   3.569 -26.016  0.00  0.00    +0.247 N 
ATOM      2  C   UNL     1      -4.845   3.809 -25.746  0.00  0.00    +0.138 C 
ATOM      3  C   UNL     1      -5.243   3.861 -24.510  0.00  0.00    +0.086 C 
ATOM      4  C   UNL     1      -4.394   3.675 -23.544  0.00  0.00    -0.030 A 
ATOM      5  C   UNL     1      -4.793   3.728 -22.308  0.00  0.00    +0.054 A 
ATOM      6  C   UNL     1      -3.944   3.542 -21.342  0.00  0.00    +0.167 A 
ATOM      7  C   UNL     1      -2.694   3.302 -21.613  0.00  0.00    +0.174 A 
ATOM      8  O   UNL     1      -2.061   3.155 -20.487  0.00  0.00    -0.452 OA
ATOM      9  C   UNL     1      -2.919   3.303 -19.521  0.00  0.00    +0.466 C 
ATOM     10  C   UNL     1      -2.296   3.249 -22.849  0.00  0.00    +0.037 A 
ATOM     11  C   UNL     1      -1.046   3.010 -23.119  0.00  0.00    -0.007 A 
ATOM     12  C   UNL     1      -0.197   2.824 -22.153  0.00  0.00    +0.054 A 
ATOM     13  C   UNL     1       1.052   2.584 -22.424  0.00  0.00    +0.121 A 
ATOM     14  C   UNL     1       1.451   2.531 -23.659  0.00  0.00    +0.046 A 
ATOM     15  C   UNL     1       0.602   2.718 -24.625  0.00  0.00    +0.008 A 
ATOM     16  C   UNL     1      -0.648   2.957 -24.355  0.00  0.00    -0.034 A 
ATOM     17  C   UNL     1      -1.497   3.144 -25.321  0.00  0.00    +0.095 C 
ATOM     18  O   UNL     1      -4.082   3.542 -20.049  0.00  0.00    -0.453 OA
ATOM     19  C   UNL     1      -3.146   3.436 -23.814  0.00  0.00    +0.015 A 
ATOM     20  C   UNL     1      -2.512   3.371 -26.706  0.00  0.00    +0.193 C 
ATOM     21  C   UNL     1      -2.746   3.383 -25.050  0.00  0.00    +0.102 C 
ENDROOT
BRANCH   1  23
ATOM     22  C   UNL     1      -3.323   3.391 -28.244  0.00  0.00    +0.060 C 
ATOM     23  C   UNL     1      -4.069   3.687 -27.221  0.00  0.00    +0.130 C 
ENDBRANCH   1  23
BRANCH  13  24
ATOM     24  O   UNL     1       1.903   2.398 -21.457  0.00  0.00    -0.495 OA
ATOM     25  C   UNL     1       2.693   1.366 -21.477  0.00  0.00    +0.277 C 
ENDBRANCH  13  24
TORSDOF 2
ENDMDL
MODEL 5
REMARK VINA RESULT:    -7.090      2.733      6.407
REMARK INTER + INTRA:          -8.277
REMARK INTER:                  -7.890
REMARK INTRA:                  -0.387
REMARK UNBOUND:                -0.358
REMARK  Name = CC[N@@+]1(C)CCc2cc3c(c4c2[C@@H]1Cc1ccc(OC)cc1-4)OCO3                 ZINC000249692478
REMARK  5 active torsions:
REMARK  status: ('A' for Active; 'I' for Inactive)
REMARK    1  A    between atoms: C_1  and  C_2
REMARK    2  A    between atoms: C_2  and  N_3
REMARK    3  A    between atoms: N_3  and  C_4
REMARK    4  A    between atoms: C_18  and  O_19
REMARK    5  A    between atoms: O_19  and  C_20
REMARK                            x       y       z     vdW  Elec       q    Type
REMARK                         _______ _______ _______ _____ _____    ______ ____
ROOT
ATOM      1  N   UNL     1      -3.671   3.730 -23.748  0.00  0.00    +0.247 N 
ATOM      2  C   UNL     1      -4.348   3.377 -22.697  0.00  0.00    +0.138 C 
ATOM      3  C   UNL     1      -3.748   2.792 -21.703  0.00  0.00    +0.086 C 
ATOM      4  C   UNL     1      -2.470   2.560 -21.761  0.00  0.00    -0.030 A 
ATOM      5  C   UNL     1      -1.871   1.975 -20.767  0.00  0.00    +0.054 A 
ATOM      6  C   UNL     1      -0.593   1.743 -20.824  0.00  0.00    +0.167 A 
ATOM      7  C   UNL     1       0.085   2.096 -21.876  0.00  0.00    +0.174 A 
ATOM      8  O   UNL     1       1.326   1.757 -21.687  0.00  0.00    -0.452 OA
ATOM      9  C   UNL     1       1.414   1.194 -20.518  0.00  0.00    +0.466 C 
ATOM     10  C   UNL     1      -0.515   2.681 -22.870  0.00  0.00    +0.037 A 
ATOM     11  C   UNL     1       0.163   3.034 -23.922  0.00  0.00    -0.007 A 
ATOM     12  C   UNL     1       1.441   2.802 -23.979  0.00  0.00    +0.054 A 
ATOM     13  C   UNL     1       2.118   3.155 -25.031  0.00  0.00    +0.121 A 
ATOM     14  C   UNL     1       1.519   3.739 -26.025  0.00  0.00    +0.046 A 
ATOM     15  C   UNL     1       0.241   3.971 -25.968  0.00  0.00    +0.008 A 
ATOM     16  C   UNL     1      -0.437   3.619 -24.916  0.00  0.00    -0.034 A 
ATOM     17  C   UNL     1      -1.715   3.851 -24.858  0.00  0.00    +0.095 C 
ATOM     18  O   UNL     1       0.229   1.186 -19.985  0.00  0.00    -0.453 OA
ATOM     19  C   UNL     1      -1.793   2.913 -22.812  0.00  0.00    +0.015 A 
ATOM     20  C   UNL     1      -3.405   4.223 -24.922  0.00  0.00    +0.193 C 
ATOM     21  C   UNL     1      -2.392   3.498 -23.806  0.00  0.00    +0.102 C 
ENDROOT
BRANCH   1  23
ATOM     22  C   UNL     1      -5.384   3.712 -25.209  0.00  0.00    +0.060 C 
ATOM     23  C   UNL     1      -4.856   4.133 -24.098  0.00  0.00    +0.130 C 
ENDBRANCH   1  23
BRANCH  13  24
ATOM     24  O   UNL     1       3.396   2.923 -25.089  0.00  0.00    -0.495 OA
ATOM     25  C   UNL     1       3.990   2.305 -24.112  0.00  0.00    +0.277 C 
ENDBRANCH  13  24
TORSDOF 2
ENDMDL
MODEL 6
REMARK VINA RESULT:    -6.488      4.099      5.916
REMARK INTER + INTRA:          -7.605
REMARK INTER:                  -7.238
REMARK INTRA:                  -0.368
REMARK UNBOUND:                -0.358
REMARK  Name = CC[N@@+]1(C)CCc2cc3c(c4c2[C@@H]1Cc1ccc(OC)cc1-4)OCO3                 ZINC000249692478
REMARK  5 active torsions:
REMARK  status: ('A' for Active; 'I' for Inactive)
REMARK    1  A    between atoms: C_1  and  C_2
REMARK    2  A    between atoms: C_2  and  N_3
REMARK    3  A    between atoms: N_3  and  C_4
REMARK    4  A    between atoms: C_18  and  O_19
REMARK    5  A    between atoms: O_19  and  C_20
REMARK                            x       y       z     vdW  Elec       q    Type
REMARK                         _______ _______ _______ _____ _____    ______ ____
ROOT
ATOM      1  N   UNL     1       4.633   6.231 -22.485  0.00  0.00    +0.247 N 
ATOM      2  C   UNL     1       5.828   5.737 -22.356  0.00  0.00    +0.138 C 
ATOM      3  C   UNL     1       6.020   4.458 -22.488  0.00  0.00    +0.086 C 
ATOM      4  C   UNL     1       5.018   3.673 -22.750  0.00  0.00    -0.030 A 
ATOM      5  C   UNL     1       5.211   2.394 -22.882  0.00  0.00    +0.054 A 
ATOM      6  C   UNL     1       4.209   1.609 -23.144  0.00  0.00    +0.167 A 
ATOM      7  C   UNL     1       3.013   2.104 -23.274  0.00  0.00    +0.174 A 
ATOM      8  O   UNL     1       2.198   1.123 -23.530  0.00  0.00    -0.452 OA
ATOM      9  C   UNL     1       2.891   0.023 -23.559  0.00  0.00    +0.466 C 
ATOM     10  C   UNL     1       2.820   3.383 -23.141  0.00  0.00    +0.037 A 
ATOM     11  C   UNL     1       1.624   3.877 -23.271  0.00  0.00    -0.007 A 
ATOM     12  C   UNL     1       0.622   3.092 -23.533  0.00  0.00    +0.054 A 
ATOM     13  C   UNL     1      -0.573   3.587 -23.663  0.00  0.00    +0.121 A 
ATOM     14  C   UNL     1      -0.766   4.864 -23.531  0.00  0.00    +0.046 A 
ATOM     15  C   UNL     1       0.236   5.649 -23.269  0.00  0.00    +0.008 A 
ATOM     16  C   UNL     1       1.432   5.156 -23.139  0.00  0.00    -0.034 A 
ATOM     17  C   UNL     1       2.435   5.941 -22.877  0.00  0.00    +0.095 C 
ATOM     18  O   UNL     1       4.133   0.323 -23.320  0.00  0.00    -0.453 OA
ATOM     19  C   UNL     1       3.823   4.167 -22.880  0.00  0.00    +0.015 A 
ATOM     20  C   UNL     1       3.670   7.103 -22.530  0.00  0.00    +0.193 C 
ATOM     21  C   UNL     1       3.630   5.446 -22.748  0.00  0.00    +0.102 C 
ENDROOT
BRANCH   1  23
ATOM     22  C   UNL     1       5.127   7.947 -21.114  0.00  0.00    +0.060 C 
ATOM     23  C   UNL     1       5.301   7.318 -22.239  0.00  0.00    +0.130 C 
ENDBRANCH   1  23
BRANCH  13  24
ATOM     24  O   UNL     1      -1.577   2.801 -23.925  0.00  0.00    -0.495 OA
ATOM     25  C   UNL     1      -2.286   2.989 -24.998  0.00  0.00    +0.277 C 
ENDBRANCH  13  24
TORSDOF 2
ENDMDL
MODEL 7
REMARK VINA RESULT:    -6.309      5.898      8.593
REMARK INTER + INTRA:          -7.405
REMARK INTER:                  -7.078
REMARK INTRA:                  -0.327
REMARK UNBOUND:                -0.358
REMARK  Name = CC[N@@+]1(C)CCc2cc3c(c4c2[C@@H]1Cc1ccc(OC)cc1-4)OCO3                 ZINC000249692478
REMARK  5 active torsions:
REMARK  status: ('A' for Active; 'I' for Inactive)
REMARK    1  A    between atoms: C_1  and  C_2
REMARK    2  A    between atoms: C_2  and  N_3
REMARK    3  A    between atoms: N_3  and  C_4
REMARK    4  A    between atoms: C_18  and  O_19
REMARK    5  A    between atoms: O_19  and  C_20
REMARK                            x       y       z     vdW  Elec       q    Type
REMARK                         _______ _______ _______ _____ _____    ______ ____
ROOT
ATOM      1  N   UNL     1       1.811   4.116 -23.598  0.00  0.00    +0.247 N 
ATOM      2  C   UNL     1       1.922   2.897 -24.032  0.00  0.00    +0.138 C 
ATOM      3  C   UNL     1       3.092   2.332 -24.091  0.00  0.00    +0.086 C 
ATOM      4  C   UNL     1       4.150   2.987 -23.714  0.00  0.00    -0.030 A 
ATOM      5  C   UNL     1       5.319   2.421 -23.772  0.00  0.00    +0.054 A 
ATOM      6  C   UNL     1       6.377   3.076 -23.396  0.00  0.00    +0.167 A 
ATOM      7  C   UNL     1       6.265   4.297 -22.961  0.00  0.00    +0.174 A 
ATOM      8  O   UNL     1       7.454   4.723 -22.651  0.00  0.00    -0.452 OA
ATOM      9  C   UNL     1       8.300   3.766 -22.895  0.00  0.00    +0.466 C 
ATOM     10  C   UNL     1       5.096   4.862 -22.902  0.00  0.00    +0.037 A 
ATOM     11  C   UNL     1       4.985   6.082 -22.467  0.00  0.00    -0.007 A 
ATOM     12  C   UNL     1       6.043   6.736 -22.091  0.00  0.00    +0.054 A 
ATOM     13  C   UNL     1       5.930   7.956 -21.656  0.00  0.00    +0.121 A 
ATOM     14  C   UNL     1       4.762   8.521 -21.597  0.00  0.00    +0.046 A 
ATOM     15  C   UNL     1       3.704   7.867 -21.974  0.00  0.00    +0.008 A 
ATOM     16  C   UNL     1       3.815   6.646 -22.409  0.00  0.00    -0.034 A 
ATOM     17  C   UNL     1       2.757   5.992 -22.786  0.00  0.00    +0.095 C 
ATOM     18  O   UNL     1       7.634   2.749 -23.355  0.00  0.00    -0.453 OA
ATOM     19  C   UNL     1       4.038   4.206 -23.279  0.00  0.00    +0.015 A 
ATOM     20  C   UNL     1       1.266   5.246 -23.251  0.00  0.00    +0.193 C 
ATOM     21  C   UNL     1       2.869   4.772 -23.221  0.00  0.00    +0.102 C 
ENDROOT
BRANCH   1  23
ATOM     22  C   UNL     1      -0.366   4.259 -23.041  0.00  0.00    +0.060 C 
ATOM     23  C   UNL     1       0.564   3.854 -23.854  0.00  0.00    +0.130 C 
ENDBRANCH   1  23
BRANCH  13  24
ATOM     24  O   UNL     1       6.989   8.612 -21.279  0.00  0.00    -0.495 OA
ATOM     25  C   UNL     1       7.904   8.018 -20.573  0.00  0.00    +0.277 C 
ENDBRANCH  13  24
TORSDOF 2
ENDMDL
MODEL 8
REMARK VINA RESULT:    -6.044      2.411      5.010
REMARK INTER + INTRA:          -7.109
REMARK INTER:                  -6.723
REMARK INTRA:                  -0.386
REMARK UNBOUND:                -0.358
REMARK  Name = CC[N@@+]1(C)CCc2cc3c(c4c2[C@@H]1Cc1ccc(OC)cc1-4)OCO3                 ZINC000249692478
REMARK  5 active torsions:
REMARK  status: ('A' for Active; 'I' for Inactive)
REMARK    1  A    between atoms: C_1  and  C_2
REMARK    2  A    between atoms: C_2  and  N_3
REMARK    3  A    between atoms: N_3  and  C_4
REMARK    4  A    between atoms: C_18  and  O_19
REMARK    5  A    between atoms: O_19  and  C_20
REMARK                            x       y       z     vdW  Elec       q    Type
REMARK                         _______ _______ _______ _____ _____    ______ ____
ROOT
ATOM      1  N   UNL     1       4.348   2.760 -22.770  0.00  0.00    +0.247 N 
ATOM      2  C   UNL     1       4.645   2.196 -21.637  0.00  0.00    +0.138 C 
ATOM      3  C   UNL     1       3.702   1.714 -20.885  0.00  0.00    +0.086 C 
ATOM      4  C   UNL     1       2.461   1.795 -21.264  0.00  0.00    -0.030 A 
ATOM      5  C   UNL     1       1.518   1.312 -20.511  0.00  0.00    +0.054 A 
ATOM      6  C   UNL     1       0.277   1.393 -20.890  0.00  0.00    +0.167 A 
ATOM      7  C   UNL     1      -0.020   1.957 -22.024  0.00  0.00    +0.174 A 
ATOM      8  O   UNL     1      -1.311   1.911 -22.169  0.00  0.00    -0.452 OA
ATOM      9  C   UNL     1      -1.811   1.318 -21.125  0.00  0.00    +0.466 C 
ATOM     10  C   UNL     1       0.924   2.440 -22.776  0.00  0.00    +0.037 A 
ATOM     11  C   UNL     1       0.626   3.004 -23.909  0.00  0.00    -0.007 A 
ATOM     12  C   UNL     1      -0.615   3.085 -24.289  0.00  0.00    +0.054 A 
ATOM     13  C   UNL     1      -0.912   3.649 -25.422  0.00  0.00    +0.121 A 
ATOM     14  C   UNL     1       0.030   4.132 -26.175  0.00  0.00    +0.046 A 
ATOM     15  C   UNL     1       1.271   4.051 -25.795  0.00  0.00    +0.008 A 
ATOM     16  C   UNL     1       1.569   3.487 -24.662  0.00  0.00    -0.034 A 
ATOM     17  C   UNL     1       2.810   3.406 -24.283  0.00  0.00    +0.095 C 
ATOM     18  O   UNL     1      -0.830   0.998 -20.335  0.00  0.00    -0.453 OA
ATOM     19  C   UNL     1       2.164   2.358 -22.396  0.00  0.00    +0.015 A 
ATOM     20  C   UNL     1       4.500   3.370 -23.909  0.00  0.00    +0.193 C 
ATOM     21  C   UNL     1       3.106   2.842 -23.150  0.00  0.00    +0.102 C 
ENDROOT
BRANCH   1  23
ATOM     22  C   UNL     1       6.174   4.076 -22.825  0.00  0.00    +0.060 C 
ATOM     23  C   UNL     1       5.641   2.891 -22.786  0.00  0.00    +0.130 C 
ENDBRANCH   1  23
BRANCH  13  24
ATOM     24  O   UNL     1      -2.153   3.730 -25.802  0.00  0.00    -0.495 OA
ATOM     25  C   UNL     1      -3.096   3.870 -24.918  0.00  0.00    +0.277 C 
ENDBRANCH  13  24
TORSDOF 2
ENDMDL
