MODEL 1
REMARK VINA RESULT:    -9.583      0.000      0.000
REMARK INTER + INTRA:          -4.974
REMARK INTER:                 -12.308
REMARK INTRA:                   7.334
REMARK UNBOUND:                 8.249
REMARK  Name = CCCC[C@H](O)[C@]12Oc3c(OC)ccc4c3[C@@]13CCN(C)[C@@H](C4)C3=CC=C2OC    ZINC000253505564
REMARK  11 active torsions:
REMARK  status: ('A' for Active; 'I' for Inactive)
REMARK    1  A    between atoms: C_1  and  C_2
REMARK    2  A    between atoms: C_2  and  C_3
REMARK    3  A    between atoms: C_3  and  C_4
REMARK    4  A    between atoms: C_4  and  C_5
REMARK    5  A    between atoms: C_5  and  O_6
REMARK    6  A    between atoms: C_5  and  C_7
REMARK    7  A    between atoms: C_10  and  O_11
REMARK    8  A    between atoms: O_11  and  C_12
REMARK    9  A    between atoms: N_20  and  C_21
REMARK   10  A    between atoms: C_27  and  O_28
REMARK   11  A    between atoms: O_28  and  C_29
REMARK                            x       y       z     vdW  Elec       q    Type
REMARK                         _______ _______ _______ _____ _____    ______ ____
ROOT
ATOM      1  C   UNL     1      -1.524   3.228 -23.777  0.00  0.00    +0.206 C 
ATOM      2  O   UNL     1      -1.865   3.103 -22.310  0.00  0.00    -0.470 OA
ATOM      3  C   UNL     1      -3.333   3.168 -22.023  0.00  0.00    +0.168 A 
ATOM      4  C   UNL     1      -4.243   3.137 -21.141  0.00  0.00    +0.162 A 
ATOM      5  C   UNL     1      -5.456   3.248 -21.484  0.00  0.00    +0.050 A 
ATOM      6  C   UNL     1      -5.758   3.387 -22.692  0.00  0.00    +0.008 A 
ATOM      7  C   UNL     1      -4.861   3.417 -23.563  0.00  0.00    -0.034 A 
ATOM      8  C   UNL     1      -5.164   3.558 -24.790  0.00  0.00    +0.094 C 
ATOM      9  C   UNL     1      -4.269   3.589 -25.663  0.00  0.00    +0.096 C 
ATOM     10  C   UNL     1      -3.058   3.478 -25.316  0.00  0.00    -0.007 C 
ATOM     11  C   UNL     1      -2.151   3.508 -26.196  0.00  0.00    +0.009 C 
ATOM     12  C   UNL     1      -0.947   3.400 -25.868  0.00  0.00    +0.045 C 
ATOM     13  N   UNL     1      -3.325   3.635 -26.726  0.00  0.00    +0.239 N 
ATOM     14  H   UNL     1      -3.631   3.751 -27.692  0.00  0.00    +0.204 HD
ATOM     15  C   UNL     1      -3.689   3.776 -27.916  0.00  0.00    +0.191 C 
ATOM     16  C   UNL     1      -1.962   3.515 -26.382  0.00  0.00    +0.133 C 
ATOM     17  C   UNL     1      -1.652   3.359 -25.014  0.00  0.00    +0.071 C 
ATOM     18  C   UNL     1      -3.649   3.309 -23.241  0.00  0.00    +0.016 A 
ATOM     19  C   UNL     1      -0.629   3.259 -24.655  0.00  0.00    +0.144 C 
ATOM     20  C   UNL     1      -2.750   3.339 -24.110  0.00  0.00    +0.080 C 
ENDROOT
BRANCH   4  21
ATOM     21  O   UNL     1      -3.942   2.998 -19.933  0.00  0.00    -0.491 OA
ATOM     22  C   UNL     1      -3.087   3.745 -19.410  0.00  0.00    +0.277 C 
ENDBRANCH   4  21
BRANCH  19  23
ATOM     23  O   UNL     1       0.715   3.161 -24.520  0.00  0.00    -0.495 OA
ATOM     24  C   UNL     1       1.458   3.030 -25.565  0.00  0.00    +0.276 C 
ENDBRANCH  19  23
BRANCH   1  25
ATOM     25  C   UNL     1      -0.371   3.086 -23.078  0.00  0.00    +0.167 C 
BRANCH  25  26
ATOM     26  O   UNL     1       0.281   4.097 -22.749  0.00  0.00    -0.387 OA
ATOM     27  H   UNL     1       0.761   3.919 -21.926  0.00  0.00    +0.210 HD
ENDBRANCH  25  26
BRANCH  25  28
ATOM     28  C   UNL     1       0.068   1.949 -22.747  0.00  0.00    +0.036 C 
BRANCH  28  29
ATOM     29  C   UNL     1       0.750   1.764 -21.701  0.00  0.00    +0.002 C 
BRANCH  29  31
ATOM     30  C   UNL     1       2.952   1.922 -21.773  0.00  0.00    +0.004 C 
ATOM     31  C   UNL     1       1.906   1.228 -21.817  0.00  0.00    -0.003 C 
ENDBRANCH  29  31
ENDBRANCH  28  29
ENDBRANCH  25  28
ENDBRANCH   1  25
TORSDOF 7
ENDMDL
MODEL 2
REMARK VINA RESULT:    -8.957      1.979      4.281
REMARK INTER + INTRA:          -4.111
REMARK INTER:                 -11.685
REMARK INTRA:                   7.574
REMARK UNBOUND:                 8.249
REMARK  Name = CCCC[C@H](O)[C@]12Oc3c(OC)ccc4c3[C@@]13CCN(C)[C@@H](C4)C3=CC=C2OC    ZINC000253505564
REMARK  11 active torsions:
REMARK  status: ('A' for Active; 'I' for Inactive)
REMARK    1  A    between atoms: C_1  and  C_2
REMARK    2  A    between atoms: C_2  and  C_3
REMARK    3  A    between atoms: C_3  and  C_4
REMARK    4  A    between atoms: C_4  and  C_5
REMARK    5  A    between atoms: C_5  and  O_6
REMARK    6  A    between atoms: C_5  and  C_7
REMARK    7  A    between atoms: C_10  and  O_11
REMARK    8  A    between atoms: O_11  and  C_12
REMARK    9  A    between atoms: N_20  and  C_21
REMARK   10  A    between atoms: C_27  and  O_28
REMARK   11  A    between atoms: O_28  and  C_29
REMARK                            x       y       z     vdW  Elec       q    Type
REMARK                         _______ _______ _______ _____ _____    ______ ____
ROOT
ATOM      1  C   UNL     1      -1.231   2.882 -23.281  0.00  0.00    +0.206 C 
ATOM      2  O   UNL     1      -1.291   3.113 -24.774  0.00  0.00    -0.470 OA
ATOM      3  C   UNL     1      -2.669   3.398 -25.286  0.00  0.00    +0.168 A 
ATOM      4  C   UNL     1      -3.393   3.657 -26.294  0.00  0.00    +0.162 A 
ATOM      5  C   UNL     1      -4.638   3.824 -26.149  0.00  0.00    +0.050 A 
ATOM      6  C   UNL     1      -5.156   3.733 -25.012  0.00  0.00    +0.008 A 
ATOM      7  C   UNL     1      -4.444   3.477 -24.017  0.00  0.00    -0.034 A 
ATOM      8  C   UNL     1      -4.967   3.384 -22.861  0.00  0.00    +0.094 C 
ATOM      9  C   UNL     1      -4.257   3.128 -21.864  0.00  0.00    +0.096 C 
ATOM     10  C   UNL     1      -3.012   2.962 -22.014  0.00  0.00    -0.007 C 
ATOM     11  C   UNL     1      -2.290   2.704 -21.008  0.00  0.00    +0.009 C 
ATOM     12  C   UNL     1      -1.057   2.537 -21.140  0.00  0.00    +0.045 C 
ATOM     13  N   UNL     1      -3.534   2.842 -20.673  0.00  0.00    +0.239 N 
ATOM     14  H   UNL     1      -4.011   2.780 -19.774  0.00  0.00    +0.204 HD
ATOM     15  C   UNL     1      -4.108   2.763 -19.563  0.00  0.00    +0.191 C 
ATOM     16  C   UNL     1      -2.141   2.649 -20.795  0.00  0.00    +0.133 C 
ATOM     17  C   UNL     1      -1.585   2.758 -22.088  0.00  0.00    +0.071 C 
ATOM     18  C   UNL     1      -3.203   3.308 -24.142  0.00  0.00    +0.016 A 
ATOM     19  C   UNL     1      -0.521   2.625 -22.279  0.00  0.00    +0.144 C 
ATOM     20  C   UNL     1      -2.488   3.052 -23.148  0.00  0.00    +0.080 C 
ENDROOT
BRANCH   4  21
ATOM     21  O   UNL     1      -2.875   3.748 -27.432  0.00  0.00    -0.491 OA
ATOM     22  C   UNL     1      -3.508   3.368 -28.441  0.00  0.00    +0.277 C 
ENDBRANCH   4  21
BRANCH  19  23
ATOM     23  O   UNL     1       0.813   2.412 -22.200  0.00  0.00    -0.495 OA
ATOM     24  C   UNL     1       1.292   1.675 -21.257  0.00  0.00    +0.276 C 
ENDBRANCH  19  23
BRANCH   1  25
ATOM     25  C   UNL     1       0.023   2.767 -23.785  0.00  0.00    +0.167 C 
BRANCH  25  26
ATOM     26  O   UNL     1       0.478   1.639 -24.058  0.00  0.00    -0.387 OA
ATOM     27  H   UNL     1       1.263   1.466 -23.515  0.00  0.00    +0.210 HD
ENDBRANCH  25  26
BRANCH  25  28
ATOM     28  C   UNL     1       0.751   3.779 -23.988  0.00  0.00    +0.036 C 
BRANCH  28  29
ATOM     29  C   UNL     1       1.887   3.698 -24.533  0.00  0.00    +0.002 C 
BRANCH  29  31
ATOM     30  C   UNL     1       2.816   5.142 -23.144  0.00  0.00    +0.004 C 
ATOM     31  C   UNL     1       2.902   4.135 -23.889  0.00  0.00    -0.003 C 
ENDBRANCH  29  31
ENDBRANCH  28  29
ENDBRANCH  25  28
ENDBRANCH   1  25
TORSDOF 7
ENDMDL
MODEL 3
REMARK VINA RESULT:    -7.817      2.317      5.311
REMARK INTER + INTRA:          -2.538
REMARK INTER:                 -10.508
REMARK INTRA:                   7.969
REMARK UNBOUND:                 8.249
REMARK  Name = CCCC[C@H](O)[C@]12Oc3c(OC)ccc4c3[C@@]13CCN(C)[C@@H](C4)C3=CC=C2OC    ZINC000253505564
REMARK  11 active torsions:
REMARK  status: ('A' for Active; 'I' for Inactive)
REMARK    1  A    between atoms: C_1  and  C_2
REMARK    2  A    between atoms: C_2  and  C_3
REMARK    3  A    between atoms: C_3  and  C_4
REMARK    4  A    between atoms: C_4  and  C_5
REMARK    5  A    between atoms: C_5  and  O_6
REMARK    6  A    between atoms: C_5  and  C_7
REMARK    7  A    between atoms: C_10  and  O_11
REMARK    8  A    between atoms: O_11  and  C_12
REMARK    9  A    between atoms: N_20  and  C_21
REMARK   10  A    between atoms: C_27  and  O_28
REMARK   11  A    between atoms: O_28  and  C_29
REMARK                            x       y       z     vdW  Elec       q    Type
REMARK                         _______ _______ _______ _____ _____    ______ ____
ROOT
ATOM      1  C   UNL     1       0.128   2.778 -23.965  0.00  0.00    +0.206 C 
ATOM      2  O   UNL     1       1.627   2.587 -24.008  0.00  0.00    -0.470 OA
ATOM      3  C   UNL     1       2.201   2.025 -22.744  0.00  0.00    +0.168 A 
ATOM      4  C   UNL     1       3.243   1.647 -22.129  0.00  0.00    +0.162 A 
ATOM      5  C   UNL     1       3.152   1.208 -20.946  0.00  0.00    +0.050 A 
ATOM      6  C   UNL     1       2.034   1.148 -20.383  0.00  0.00    +0.008 A 
ATOM      7  C   UNL     1       1.005   1.521 -20.987  0.00  0.00    -0.034 A 
ATOM      8  C   UNL     1      -0.131   1.461 -20.418  0.00  0.00    +0.094 C 
ATOM      9  C   UNL     1      -1.161   1.833 -21.021  0.00  0.00    +0.096 C 
ATOM     10  C   UNL     1      -1.065   2.271 -22.204  0.00  0.00    -0.007 C 
ATOM     11  C   UNL     1      -2.105   2.648 -22.816  0.00  0.00    +0.009 C 
ATOM     12  C   UNL     1      -2.026   3.084 -23.987  0.00  0.00    +0.045 C 
ATOM     13  N   UNL     1      -2.386   2.232 -21.623  0.00  0.00    +0.239 N 
ATOM     14  H   UNL     1      -3.266   2.160 -21.113  0.00  0.00    +0.204 HD
ATOM     15  C   UNL     1      -3.474   2.148 -21.007  0.00  0.00    +0.191 C 
ATOM     16  C   UNL     1      -2.324   2.727 -22.942  0.00  0.00    +0.133 C 
ATOM     17  C   UNL     1      -1.052   2.784 -23.552  0.00  0.00    +0.071 C 
ATOM     18  C   UNL     1       1.077   1.960 -22.165  0.00  0.00    +0.016 A 
ATOM     19  C   UNL     1      -0.907   3.151 -24.567  0.00  0.00    +0.144 C 
ATOM     20  C   UNL     1       0.049   2.334 -22.772  0.00  0.00    +0.080 C 
ENDROOT
BRANCH   4  21
ATOM     21  O   UNL     1       4.360   1.707 -22.692  0.00  0.00    -0.491 OA
ATOM     22  C   UNL     1       4.982   2.791 -22.737  0.00  0.00    +0.277 C 
ENDBRANCH   4  21
BRANCH  19  23
ATOM     23  O   UNL     1      -1.045   3.647 -25.819  0.00  0.00    -0.495 OA
ATOM     24  C   UNL     1      -2.195   3.617 -26.400  0.00  0.00    +0.276 C 
ENDBRANCH  19  23
BRANCH   1  25
ATOM     25  C   UNL     1       0.578   3.179 -25.180  0.00  0.00    +0.167 C 
BRANCH  25  26
ATOM     26  O   UNL     1       0.654   2.355 -26.113  0.00  0.00    -0.387 OA
ATOM     27  H   UNL     1       1.161   2.740 -26.844  0.00  0.00    +0.210 HD
ENDBRANCH  25  26
BRANCH  25  28
ATOM     28  C   UNL     1       0.927   4.373 -25.397  0.00  0.00    +0.036 C 
BRANCH  28  29
ATOM     29  C   UNL     1       1.943   4.891 -24.856  0.00  0.00    +0.002 C 
BRANCH  29  31
ATOM     30  C   UNL     1       2.713   5.688 -22.946  0.00  0.00    +0.004 C 
ATOM     31  C   UNL     1       1.782   5.564 -23.780  0.00  0.00    -0.003 C 
ENDBRANCH  29  31
ENDBRANCH  28  29
ENDBRANCH  25  28
ENDBRANCH   1  25
TORSDOF 7
ENDMDL
MODEL 4
REMARK VINA RESULT:    -7.561      1.328      4.276
REMARK INTER + INTRA:          -2.184
REMARK INTER:                 -10.862
REMARK INTRA:                   8.678
REMARK UNBOUND:                 8.249
REMARK  Name = CCCC[C@H](O)[C@]12Oc3c(OC)ccc4c3[C@@]13CCN(C)[C@@H](C4)C3=CC=C2OC    ZINC000253505564
REMARK  11 active torsions:
REMARK  status: ('A' for Active; 'I' for Inactive)
REMARK    1  A    between atoms: C_1  and  C_2
REMARK    2  A    between atoms: C_2  and  C_3
REMARK    3  A    between atoms: C_3  and  C_4
REMARK    4  A    between atoms: C_4  and  C_5
REMARK    5  A    between atoms: C_5  and  O_6
REMARK    6  A    between atoms: C_5  and  C_7
REMARK    7  A    between atoms: C_10  and  O_11
REMARK    8  A    between atoms: O_11  and  C_12
REMARK    9  A    between atoms: N_20  and  C_21
REMARK   10  A    between atoms: C_27  and  O_28
REMARK   11  A    between atoms: O_28  and  C_29
REMARK                            x       y       z     vdW  Elec       q    Type
REMARK                         _______ _______ _______ _____ _____    ______ ____
ROOT
ATOM      1  C   UNL     1      -2.262   3.753 -22.713  0.00  0.00    +0.206 C 
ATOM      2  O   UNL     1      -0.838   4.012 -22.277  0.00  0.00    -0.470 OA
ATOM      3  C   UNL     1       0.134   4.106 -23.413  0.00  0.00    +0.168 A 
ATOM      4  C   UNL     1       1.338   4.284 -23.765  0.00  0.00    +0.162 A 
ATOM      5  C   UNL     1       1.645   4.264 -24.992  0.00  0.00    +0.050 A 
ATOM      6  C   UNL     1       0.760   4.070 -25.858  0.00  0.00    +0.008 A 
ATOM      7  C   UNL     1      -0.429   3.894 -25.512  0.00  0.00    -0.034 A 
ATOM      8  C   UNL     1      -1.329   3.696 -26.388  0.00  0.00    +0.094 C 
ATOM      9  C   UNL     1      -2.518   3.521 -26.045  0.00  0.00    +0.096 C 
ATOM     10  C   UNL     1      -2.820   3.541 -24.817  0.00  0.00    -0.007 C 
ATOM     11  C   UNL     1      -4.022   3.364 -24.466  0.00  0.00    +0.009 C 
ATOM     12  C   UNL     1      -4.337   3.381 -23.254  0.00  0.00    +0.045 C 
ATOM     13  N   UNL     1      -3.895   3.311 -25.753  0.00  0.00    +0.239 N 
ATOM     14  H   UNL     1      -4.570   3.158 -26.502  0.00  0.00    +0.204 HD
ATOM     15  C   UNL     1      -4.733   3.121 -26.664  0.00  0.00    +0.191 C 
ATOM     16  C   UNL     1      -4.275   3.326 -24.395  0.00  0.00    +0.133 C 
ATOM     17  C   UNL     1      -3.257   3.548 -23.442  0.00  0.00    +0.071 C 
ATOM     18  C   UNL     1      -0.752   3.910 -24.296  0.00  0.00    +0.016 A 
ATOM     19  C   UNL     1      -3.456   3.576 -22.371  0.00  0.00    +0.144 C 
ATOM     20  C   UNL     1      -1.941   3.735 -23.947  0.00  0.00    +0.080 C 
ENDROOT
BRANCH   4  21
ATOM     21  O   UNL     1       2.223   4.479 -22.900  0.00  0.00    -0.491 OA
ATOM     22  C   UNL     1       3.224   3.731 -22.847  0.00  0.00    +0.277 C 
ENDBRANCH   4  21
BRANCH  19  23
ATOM     23  O   UNL     1      -4.005   3.557 -21.134  0.00  0.00    -0.495 OA
ATOM     24  C   UNL     1      -5.092   2.897 -20.923  0.00  0.00    +0.276 C 
ENDBRANCH  19  23
BRANCH   1  25
ATOM     25  C   UNL     1      -2.235   3.835 -21.359  0.00  0.00    +0.167 C 
BRANCH  25  26
ATOM     26  O   UNL     1      -2.580   4.893 -20.797  0.00  0.00    -0.387 OA
ATOM     27  H   UNL     1      -2.033   5.034 -20.009  0.00  0.00    +0.210 HD
ENDBRANCH  25  26
BRANCH  25  28
ATOM     28  C   UNL     1      -1.866   2.862 -20.643  0.00  0.00    +0.036 C 
BRANCH  28  29
ATOM     29  C   UNL     1      -1.350   1.818 -21.131  0.00  0.00    +0.002 C 
BRANCH  29  31
ATOM     30  C   UNL     1       0.672   1.162 -21.730  0.00  0.00    +0.004 C 
ATOM     31  C   UNL     1      -0.131   1.553 -20.847  0.00  0.00    -0.003 C 
ENDBRANCH  29  31
ENDBRANCH  28  29
ENDBRANCH  25  28
ENDBRANCH   1  25
TORSDOF 7
ENDMDL
MODEL 5
REMARK VINA RESULT:    -7.489      5.772      8.735
REMARK INTER + INTRA:          -2.086
REMARK INTER:                  -9.442
REMARK INTRA:                   7.357
REMARK UNBOUND:                 8.249
REMARK  Name = CCCC[C@H](O)[C@]12Oc3c(OC)ccc4c3[C@@]13CCN(C)[C@@H](C4)C3=CC=C2OC    ZINC000253505564
REMARK  11 active torsions:
REMARK  status: ('A' for Active; 'I' for Inactive)
REMARK    1  A    between atoms: C_1  and  C_2
REMARK    2  A    between atoms: C_2  and  C_3
REMARK    3  A    between atoms: C_3  and  C_4
REMARK    4  A    between atoms: C_4  and  C_5
REMARK    5  A    between atoms: C_5  and  O_6
REMARK    6  A    between atoms: C_5  and  C_7
REMARK    7  A    between atoms: C_10  and  O_11
REMARK    8  A    between atoms: O_11  and  C_12
REMARK    9  A    between atoms: N_20  and  C_21
REMARK   10  A    between atoms: C_27  and  O_28
REMARK   11  A    between atoms: O_28  and  C_29
REMARK                            x       y       z     vdW  Elec       q    Type
REMARK                         _______ _______ _______ _____ _____    ______ ____
ROOT
ATOM      1  C   UNL     1       4.968   6.596 -22.174  0.00  0.00    +0.206 C 
ATOM      2  O   UNL     1       3.467   6.722 -22.293  0.00  0.00    -0.470 OA
ATOM      3  C   UNL     1       2.811   5.538 -22.935  0.00  0.00    +0.168 A 
ATOM      4  C   UNL     1       1.726   5.005 -23.318  0.00  0.00    +0.162 A 
ATOM      5  C   UNL     1       1.743   3.862 -23.861  0.00  0.00    +0.050 A 
ATOM      6  C   UNL     1       2.829   3.258 -24.019  0.00  0.00    +0.008 A 
ATOM      7  C   UNL     1       3.900   3.782 -23.642  0.00  0.00    -0.034 A 
ATOM      8  C   UNL     1       5.004   3.171 -23.801  0.00  0.00    +0.094 C 
ATOM      9  C   UNL     1       6.076   3.693 -23.424  0.00  0.00    +0.096 C 
ATOM     10  C   UNL     1       6.054   4.836 -22.883  0.00  0.00    -0.007 C 
ATOM     11  C   UNL     1       7.137   5.366 -22.501  0.00  0.00    +0.009 C 
ATOM     12  C   UNL     1       7.132   6.497 -21.963  0.00  0.00    +0.045 C 
ATOM     13  N   UNL     1       7.344   4.203 -23.030  0.00  0.00    +0.239 N 
ATOM     14  H   UNL     1       8.195   3.664 -23.185  0.00  0.00    +0.204 HD
ATOM     15  C   UNL     1       8.396   3.550 -23.215  0.00  0.00    +0.191 C 
ATOM     16  C   UNL     1       7.365   5.475 -22.421  0.00  0.00    +0.133 C 
ATOM     17  C   UNL     1       6.127   6.133 -22.256  0.00  0.00    +0.071 C 
ATOM     18  C   UNL     1       3.903   4.918 -23.100  0.00  0.00    +0.016 A 
ATOM     19  C   UNL     1       6.046   7.117 -21.797  0.00  0.00    +0.144 C 
ATOM     20  C   UNL     1       4.972   5.445 -22.722  0.00  0.00    +0.080 C 
ENDROOT
BRANCH   4  21
ATOM     21  O   UNL     1       0.640   5.610 -23.160  0.00  0.00    -0.491 OA
ATOM     22  C   UNL     1      -0.443   5.001 -23.304  0.00  0.00    +0.277 C 
ENDBRANCH   4  21
BRANCH  19  23
ATOM     23  O   UNL     1       6.263   8.314 -21.201  0.00  0.00    -0.495 OA
ATOM     24  C   UNL     1       7.461   8.667 -20.886  0.00  0.00    +0.276 C 
ENDBRANCH  19  23
BRANCH   1  25
ATOM     25  C   UNL     1       4.593   7.790 -21.650  0.00  0.00    +0.167 C 
BRANCH  25  26
ATOM     26  O   UNL     1       4.417   7.896 -20.420  0.00  0.00    -0.387 OA
ATOM     27  H   UNL     1       5.232   8.215 -20.002  0.00  0.00    +0.210 HD
ENDBRANCH  25  26
BRANCH  25  28
ATOM     28  C   UNL     1       4.415   8.807 -22.377  0.00  0.00    +0.036 C 
BRANCH  28  29
ATOM     29  C   UNL     1       3.846   9.851 -21.955  0.00  0.00    +0.002 C 
BRANCH  29  31
ATOM     30  C   UNL     1       3.276  11.946 -22.358  0.00  0.00    +0.004 C 
ATOM     31  C   UNL     1       3.723  10.842 -22.755  0.00  0.00    -0.003 C 
ENDBRANCH  29  31
ENDBRANCH  28  29
ENDBRANCH  25  28
ENDBRANCH   1  25
TORSDOF 7
ENDMDL
MODEL 6
REMARK VINA RESULT:    -7.427      1.381      4.539
REMARK INTER + INTRA:          -2.000
REMARK INTER:                 -10.288
REMARK INTRA:                   8.288
REMARK UNBOUND:                 8.249
REMARK  Name = CCCC[C@H](O)[C@]12Oc3c(OC)ccc4c3[C@@]13CCN(C)[C@@H](C4)C3=CC=C2OC    ZINC000253505564
REMARK  11 active torsions:
REMARK  status: ('A' for Active; 'I' for Inactive)
REMARK    1  A    between atoms: C_1  and  C_2
REMARK    2  A    between atoms: C_2  and  C_3
REMARK    3  A    between atoms: C_3  and  C_4
REMARK    4  A    between atoms: C_4  and  C_5
REMARK    5  A    between atoms: C_5  and  O_6
REMARK    6  A    between atoms: C_5  and  C_7
REMARK    7  A    between atoms: C_10  and  O_11
REMARK    8  A    between atoms: O_11  and  C_12
REMARK    9  A    between atoms: N_20  and  C_21
REMARK   10  A    between atoms: C_27  and  O_28
REMARK   11  A    between atoms: O_28  and  C_29
REMARK                            x       y       z     vdW  Elec       q    Type
REMARK                         _______ _______ _______ _____ _____    ______ ____
ROOT
ATOM      1  C   UNL     1      -2.847   2.678 -22.479  0.00  0.00    +0.206 C 
ATOM      2  O   UNL     1      -1.770   2.177 -21.543  0.00  0.00    -0.470 OA
ATOM      3  C   UNL     1      -0.413   2.098 -22.172  0.00  0.00    +0.168 A 
ATOM      4  C   UNL     1       0.811   1.806 -22.019  0.00  0.00    +0.162 A 
ATOM      5  C   UNL     1       1.616   1.940 -22.986  0.00  0.00    +0.050 A 
ATOM      6  C   UNL     1       1.205   2.360 -24.092  0.00  0.00    +0.008 A 
ATOM      7  C   UNL     1      -0.002   2.648 -24.245  0.00  0.00    -0.034 A 
ATOM      8  C   UNL     1      -0.422   3.075 -25.368  0.00  0.00    +0.094 C 
ATOM      9  C   UNL     1      -1.629   3.364 -25.523  0.00  0.00    +0.096 C 
ATOM     10  C   UNL     1      -2.430   3.228 -24.554  0.00  0.00    -0.007 C 
ATOM     11  C   UNL     1      -3.651   3.519 -24.707  0.00  0.00    +0.009 C 
ATOM     12  C   UNL     1      -4.456   3.391 -23.758  0.00  0.00    +0.045 C 
ATOM     13  N   UNL     1      -2.979   3.717 -25.796  0.00  0.00    +0.239 N 
ATOM     14  H   UNL     1      -3.254   4.054 -26.718  0.00  0.00    +0.204 HD
ATOM     15  C   UNL     1      -3.329   4.132 -26.925  0.00  0.00    +0.191 C 
ATOM     16  C   UNL     1      -3.906   3.581 -24.742  0.00  0.00    +0.133 C 
ATOM     17  C   UNL     1      -3.415   3.106 -23.507  0.00  0.00    +0.071 C 
ATOM     18  C   UNL     1      -0.817   2.521 -23.295  0.00  0.00    +0.016 A 
ATOM     19  C   UNL     1      -4.057   2.969 -22.637  0.00  0.00    +0.144 C 
ATOM     20  C   UNL     1      -2.025   2.809 -23.445  0.00  0.00    +0.080 C 
ENDROOT
BRANCH   4  21
ATOM     21  O   UNL     1       1.222   1.386 -20.913  0.00  0.00    -0.491 OA
ATOM     22  C   UNL     1       2.444   1.413 -20.647  0.00  0.00    +0.277 C 
ENDBRANCH   4  21
BRANCH  19  23
ATOM     23  O   UNL     1      -5.082   2.905 -21.755  0.00  0.00    -0.495 OA
ATOM     24  C   UNL     1      -6.292   3.082 -22.162  0.00  0.00    +0.276 C 
ENDBRANCH  19  23
BRANCH   1  25
ATOM     25  C   UNL     1      -3.410   2.423 -21.271  0.00  0.00    +0.167 C 
BRANCH  25  26
ATOM     26  O   UNL     1      -3.834   1.277 -21.018  0.00  0.00    -0.387 OA
ATOM     27  H   UNL     1      -3.357   0.917 -20.254  0.00  0.00    +0.210 HD
ENDBRANCH  25  26
BRANCH  25  28
ATOM     28  C   UNL     1      -3.518   3.318 -20.387  0.00  0.00    +0.036 C 
BRANCH  28  29
ATOM     29  C   UNL     1      -2.585   4.125 -20.122  0.00  0.00    +0.002 C 
BRANCH  29  31
ATOM     30  C   UNL     1      -1.542   5.596 -21.397  0.00  0.00    +0.004 C 
ATOM     31  C   UNL     1      -2.554   5.243 -20.743  0.00  0.00    -0.003 C 
ENDBRANCH  29  31
ENDBRANCH  28  29
ENDBRANCH  25  28
ENDBRANCH   1  25
TORSDOF 7
ENDMDL
MODEL 7
REMARK VINA RESULT:    -7.323      5.326      8.989
REMARK INTER + INTRA:          -1.857
REMARK INTER:                  -9.196
REMARK INTRA:                   7.339
REMARK UNBOUND:                 8.249
REMARK  Name = CCCC[C@H](O)[C@]12Oc3c(OC)ccc4c3[C@@]13CCN(C)[C@@H](C4)C3=CC=C2OC    ZINC000253505564
REMARK  11 active torsions:
REMARK  status: ('A' for Active; 'I' for Inactive)
REMARK    1  A    between atoms: C_1  and  C_2
REMARK    2  A    between atoms: C_2  and  C_3
REMARK    3  A    between atoms: C_3  and  C_4
REMARK    4  A    between atoms: C_4  and  C_5
REMARK    5  A    between atoms: C_5  and  O_6
REMARK    6  A    between atoms: C_5  and  C_7
REMARK    7  A    between atoms: C_10  and  O_11
REMARK    8  A    between atoms: O_11  and  C_12
REMARK    9  A    between atoms: N_20  and  C_21
REMARK   10  A    between atoms: C_27  and  O_28
REMARK   11  A    between atoms: O_28  and  C_29
REMARK                            x       y       z     vdW  Elec       q    Type
REMARK                         _______ _______ _______ _____ _____    ______ ____
ROOT
ATOM      1  C   UNL     1       4.736   4.602 -22.980  0.00  0.00    +0.206 C 
ATOM      2  O   UNL     1       4.045   5.789 -22.348  0.00  0.00    -0.470 OA
ATOM      3  C   UNL     1       4.977   6.900 -21.971  0.00  0.00    +0.168 A 
ATOM      4  C   UNL     1       5.098   8.055 -21.463  0.00  0.00    +0.162 A 
ATOM      5  C   UNL     1       6.243   8.588 -21.377  0.00  0.00    +0.050 A 
ATOM      6  C   UNL     1       7.254   7.975 -21.791  0.00  0.00    +0.008 A 
ATOM      7  C   UNL     1       7.136   6.835 -22.292  0.00  0.00    -0.034 A 
ATOM      8  C   UNL     1       8.161   6.211 -22.713  0.00  0.00    +0.094 C 
ATOM      9  C   UNL     1       8.045   5.071 -23.214  0.00  0.00    +0.096 C 
ATOM     10  C   UNL     1       6.899   4.542 -23.299  0.00  0.00    -0.007 C 
ATOM     11  C   UNL     1       6.778   3.390 -23.805  0.00  0.00    +0.009 C 
ATOM     12  C   UNL     1       5.651   2.854 -23.896  0.00  0.00    +0.045 C 
ATOM     13  N   UNL     1       8.015   3.774 -23.798  0.00  0.00    +0.239 N 
ATOM     14  H   UNL     1       8.872   3.325 -24.118  0.00  0.00    +0.204 HD
ATOM     15  C   UNL     1       9.061   3.212 -24.194  0.00  0.00    +0.191 C 
ATOM     16  C   UNL     1       6.756   3.148 -23.912  0.00  0.00    +0.133 C 
ATOM     17  C   UNL     1       5.634   3.862 -23.437  0.00  0.00    +0.071 C 
ATOM     18  C   UNL     1       6.005   6.290 -22.386  0.00  0.00    +0.016 A 
ATOM     19  C   UNL     1       4.623   3.459 -23.483  0.00  0.00    +0.144 C 
ATOM     20  C   UNL     1       5.884   5.150 -22.887  0.00  0.00    +0.080 C 
ENDROOT
BRANCH   4  21
ATOM     21  O   UNL     1       4.087   8.668 -21.049  0.00  0.00    -0.491 OA
ATOM     22  C   UNL     1       4.186   9.855 -20.669  0.00  0.00    +0.277 C 
ENDBRANCH   4  21
BRANCH  19  23
ATOM     23  O   UNL     1       3.514   2.706 -23.674  0.00  0.00    -0.495 OA
ATOM     24  C   UNL     1       3.595   1.595 -24.321  0.00  0.00    +0.276 C 
ENDBRANCH  19  23
BRANCH   1  25
ATOM     25  C   UNL     1       3.406   4.343 -22.917  0.00  0.00    +0.167 C 
BRANCH  25  26
ATOM     26  O   UNL     1       2.966   3.581 -22.034  0.00  0.00    -0.387 OA
ATOM     27  H   UNL     1       2.379   2.923 -22.437  0.00  0.00    +0.210 HD
ENDBRANCH  25  26
BRANCH  25  28
ATOM     28  C   UNL     1       2.592   4.855 -23.735  0.00  0.00    +0.036 C 
BRANCH  28  29
ATOM     29  C   UNL     1       1.349   4.897 -23.519  0.00  0.00    +0.002 C 
BRANCH  29  31
ATOM     30  C   UNL     1       0.999   4.098 -25.547  0.00  0.00    +0.004 C 
ATOM     31  C   UNL     1       0.558   4.492 -24.439  0.00  0.00    -0.003 C 
ENDBRANCH  29  31
ENDBRANCH  28  29
ENDBRANCH  25  28
ENDBRANCH   1  25
TORSDOF 7
ENDMDL
MODEL 8
REMARK VINA RESULT:    -7.285      4.354      7.991
REMARK INTER + INTRA:          -1.803
REMARK INTER:                  -9.200
REMARK INTRA:                   7.396
REMARK UNBOUND:                 8.249
REMARK  Name = CCCC[C@H](O)[C@]12Oc3c(OC)ccc4c3[C@@]13CCN(C)[C@@H](C4)C3=CC=C2OC    ZINC000253505564
REMARK  11 active torsions:
REMARK  status: ('A' for Active; 'I' for Inactive)
REMARK    1  A    between atoms: C_1  and  C_2
REMARK    2  A    between atoms: C_2  and  C_3
REMARK    3  A    between atoms: C_3  and  C_4
REMARK    4  A    between atoms: C_4  and  C_5
REMARK    5  A    between atoms: C_5  and  O_6
REMARK    6  A    between atoms: C_5  and  C_7
REMARK    7  A    between atoms: C_10  and  O_11
REMARK    8  A    between atoms: O_11  and  C_12
REMARK    9  A    between atoms: N_20  and  C_21
REMARK   10  A    between atoms: C_27  and  O_28
REMARK   11  A    between atoms: O_28  and  C_29
REMARK                            x       y       z     vdW  Elec       q    Type
REMARK                         _______ _______ _______ _____ _____    ______ ____
ROOT
ATOM      1  C   UNL     1       3.181   4.657 -23.329  0.00  0.00    +0.206 C 
ATOM      2  O   UNL     1       2.862   6.105 -23.033  0.00  0.00    -0.470 OA
ATOM      3  C   UNL     1       4.004   6.864 -22.430  0.00  0.00    +0.168 A 
ATOM      4  C   UNL     1       4.418   7.973 -21.977  0.00  0.00    +0.162 A 
ATOM      5  C   UNL     1       5.602   8.074 -21.544  0.00  0.00    +0.050 A 
ATOM      6  C   UNL     1       6.364   7.079 -21.562  0.00  0.00    +0.008 A 
ATOM      7  C   UNL     1       5.957   5.984 -22.008  0.00  0.00    -0.034 A 
ATOM      8  C   UNL     1       6.729   4.973 -22.027  0.00  0.00    +0.094 C 
ATOM      9  C   UNL     1       6.324   3.877 -22.472  0.00  0.00    +0.096 C 
ATOM     10  C   UNL     1       5.139   3.781 -22.904  0.00  0.00    -0.007 C 
ATOM     11  C   UNL     1       4.726   2.675 -23.356  0.00  0.00    +0.009 C 
ATOM     12  C   UNL     1       3.557   2.564 -23.787  0.00  0.00    +0.045 C 
ATOM     13  N   UNL     1       5.956   2.592 -22.958  0.00  0.00    +0.239 N 
ATOM     14  H   UNL     1       6.621   1.819 -22.947  0.00  0.00    +0.204 HD
ATOM     15  C   UNL     1       6.764   1.635 -22.950  0.00  0.00    +0.191 C 
ATOM     16  C   UNL     1       4.642   2.441 -23.450  0.00  0.00    +0.133 C 
ATOM     17  C   UNL     1       3.806   3.578 -23.417  0.00  0.00    +0.071 C 
ATOM     18  C   UNL     1       4.782   5.866 -22.443  0.00  0.00    +0.016 A 
ATOM     19  C   UNL     1       2.778   3.556 -23.775  0.00  0.00    +0.144 C 
ATOM     20  C   UNL     1       4.373   4.771 -22.889  0.00  0.00    +0.080 C 
ENDROOT
BRANCH   4  21
ATOM     21  O   UNL     1       3.656   8.968 -21.960  0.00  0.00    -0.491 OA
ATOM     22  C   UNL     1       4.047  10.065 -22.415  0.00  0.00    +0.277 C 
ENDBRANCH   4  21
BRANCH  19  23
ATOM     23  O   UNL     1       1.567   3.223 -24.283  0.00  0.00    -0.495 OA
ATOM     24  C   UNL     1       1.484   2.343 -25.221  0.00  0.00    +0.276 C 
ENDBRANCH  19  23
BRANCH   1  25
ATOM     25  C   UNL     1       1.899   4.900 -23.700  0.00  0.00    +0.167 C 
BRANCH  25  26
ATOM     26  O   UNL     1       1.645   5.203 -24.883  0.00  0.00    -0.387 OA
ATOM     27  H   UNL     1       1.355   4.412 -25.364  0.00  0.00    +0.210 HD
ENDBRANCH  25  26
BRANCH  25  28
ATOM     28  C   UNL     1       0.945   4.828 -22.875  0.00  0.00    +0.036 C 
BRANCH  28  29
ATOM     29  C   UNL     1      -0.183   5.350 -23.096  0.00  0.00    +0.002 C 
BRANCH  29  31
ATOM     30  C   UNL     1      -2.038   4.274 -23.621  0.00  0.00    +0.004 C 
ATOM     31  C   UNL     1      -1.230   4.698 -22.758  0.00  0.00    -0.003 C 
ENDBRANCH  29  31
ENDBRANCH  28  29
ENDBRANCH  25  28
ENDBRANCH   1  25
TORSDOF 7
ENDMDL
MODEL 9
REMARK VINA RESULT:    -7.251      2.258      4.614
REMARK INTER + INTRA:          -1.757
REMARK INTER:                 -10.006
REMARK INTRA:                   8.249
REMARK UNBOUND:                 8.249
REMARK  Name = CCCC[C@H](O)[C@]12Oc3c(OC)ccc4c3[C@@]13CCN(C)[C@@H](C4)C3=CC=C2OC    ZINC000253505564
REMARK  11 active torsions:
REMARK  status: ('A' for Active; 'I' for Inactive)
REMARK    1  A    between atoms: C_1  and  C_2
REMARK    2  A    between atoms: C_2  and  C_3
REMARK    3  A    between atoms: C_3  and  C_4
REMARK    4  A    between atoms: C_4  and  C_5
REMARK    5  A    between atoms: C_5  and  O_6
REMARK    6  A    between atoms: C_5  and  C_7
REMARK    7  A    between atoms: C_10  and  O_11
REMARK    8  A    between atoms: O_11  and  C_12
REMARK    9  A    between atoms: N_20  and  C_21
REMARK   10  A    between atoms: C_27  and  O_28
REMARK   11  A    between atoms: O_28  and  C_29
REMARK                            x       y       z     vdW  Elec       q    Type
REMARK                         _______ _______ _______ _____ _____    ______ ____
ROOT
ATOM      1  C   UNL     1       0.580   2.659 -24.037  0.00  0.00    +0.206 C 
ATOM      2  O   UNL     1      -0.481   3.238 -24.945  0.00  0.00    -0.470 OA
ATOM      3  C   UNL     1      -1.844   3.291 -24.324  0.00  0.00    +0.168 A 
ATOM      4  C   UNL     1      -3.062   3.609 -24.468  0.00  0.00    +0.162 A 
ATOM      5  C   UNL     1      -3.879   3.419 -23.521  0.00  0.00    +0.050 A 
ATOM      6  C   UNL     1      -3.484   2.918 -22.442  0.00  0.00    +0.008 A 
ATOM      7  C   UNL     1      -2.282   2.604 -22.298  0.00  0.00    -0.034 A 
ATOM      8  C   UNL     1      -1.879   2.095 -21.205  0.00  0.00    +0.094 C 
ATOM      9  C   UNL     1      -0.678   1.781 -21.059  0.00  0.00    +0.096 C 
ATOM     10  C   UNL     1       0.135   1.973 -22.009  0.00  0.00    -0.007 C 
ATOM     11  C   UNL     1       1.351   1.656 -21.865  0.00  0.00    +0.009 C 
ATOM     12  C   UNL     1       2.167   1.839 -22.795  0.00  0.00    +0.045 C 
ATOM     13  N   UNL     1       0.666   1.391 -20.798  0.00  0.00    +0.239 N 
ATOM     14  H   UNL     1       0.927   0.988 -19.899  0.00  0.00    +0.204 HD
ATOM     15  C   UNL     1       1.000   0.895 -19.698  0.00  0.00    +0.191 C 
ATOM     16  C   UNL     1       1.605   1.588 -21.832  0.00  0.00    +0.133 C 
ATOM     17  C   UNL     1       1.133   2.154 -23.035  0.00  0.00    +0.071 C 
ATOM     18  C   UNL     1      -1.456   2.786 -23.230  0.00  0.00    +0.016 A 
ATOM     19  C   UNL     1       1.784   2.343 -23.887  0.00  0.00    +0.144 C 
ATOM     20  C   UNL     1      -0.253   2.473 -23.089  0.00  0.00    +0.080 C 
ENDROOT
BRANCH   4  21
ATOM     21  O   UNL     1      -3.457   4.110 -25.547  0.00  0.00    -0.491 OA
ATOM     22  C   UNL     1      -3.634   3.382 -26.548  0.00  0.00    +0.277 C 
ENDBRANCH   4  21
BRANCH  19  23
ATOM     23  O   UNL     1       2.819   2.454 -24.753  0.00  0.00    -0.495 OA
ATOM     24  C   UNL     1       4.027   2.278 -24.339  0.00  0.00    +0.276 C 
ENDBRANCH  19  23
BRANCH   1  25
ATOM     25  C   UNL     1       1.158   2.991 -25.218  0.00  0.00    +0.167 C 
BRANCH  25  26
ATOM     26  O   UNL     1       1.325   2.116 -26.091  0.00  0.00    -0.387 OA
ATOM     27  H   UNL     1       2.201   2.223 -26.493  0.00  0.00    +0.210 HD
ENDBRANCH  25  26
BRANCH  25  28
ATOM     28  C   UNL     1       1.537   4.170 -25.463  0.00  0.00    +0.036 C 
BRANCH  28  29
ATOM     29  C   UNL     1       1.348   5.124 -24.658  0.00  0.00    +0.002 C 
BRANCH  29  31
ATOM     30  C   UNL     1       2.403   5.618 -22.782  0.00  0.00    +0.004 C 
ATOM     31  C   UNL     1       2.359   5.604 -24.037  0.00  0.00    -0.003 C 
ENDBRANCH  29  31
ENDBRANCH  28  29
ENDBRANCH  25  28
ENDBRANCH   1  25
TORSDOF 7
ENDMDL
