MODEL 1
REMARK VINA RESULT:    -9.676      0.000      0.000
REMARK INTER + INTRA:          -9.676
REMARK INTER:                  -9.676
REMARK INTRA:                   0.000
REMARK UNBOUND:                 0.000
REMARK  Name = C=C1C(=O)O[C@H]2[C@@H]3O[C@@]3(C)CCC=C(C)CC[C@H]12                   ZINC000253986902
REMARK  2 active torsions:
REMARK  status: ('A' for Active; 'I' for Inactive)
REMARK    1  A    between atoms: C_9  and  C_10
REMARK    2  A    between atoms: C_14  and  C_15
REMARK                            x       y       z     vdW  Elec       q    Type
REMARK                         _______ _______ _______ _____ _____    ______ ____
ROOT
ATOM      1  C   UNL     1      -4.829   3.739 -25.124  0.00  0.00    +0.020 C 
ATOM      2  C   UNL     1      -3.545   3.448 -25.061  0.00  0.00    +0.036 C 
ATOM      3  C   UNL     1      -2.685   3.517 -26.055  0.00  0.00    +0.335 C 
ATOM      4  O   UNL     1      -1.505   3.149 -25.604  0.00  0.00    -0.455 OA
ATOM      5  C   UNL     1      -1.637   2.851 -24.327  0.00  0.00    +0.216 C 
ATOM      6  C   UNL     1      -0.513   2.430 -23.621  0.00  0.00    +0.192 C 
ATOM      7  O   UNL     1       0.668   2.059 -23.160  0.00  0.00    -0.361 OA
ATOM      8  C   UNL     1      -0.379   2.078 -22.356  0.00  0.00    +0.097 C 
ATOM      9  C   UNL     1      -1.592   2.168 -21.690  0.00  0.00    +0.041 C 
ATOM     10  C   UNL     1      -2.735   2.532 -22.157  0.00  0.00    +0.030 C 
ATOM     11  C   UNL     1      -3.888   2.566 -21.323  0.00  0.00    -0.028 C 
ATOM     12  C   UNL     1      -4.897   2.943 -21.952  0.00  0.00    -0.077 C 
ATOM     13  C   UNL     1      -4.591   3.139 -22.976  0.00  0.00    +0.031 C 
ATOM     14  C   UNL     1      -3.322   2.881 -23.032  0.00  0.00    +0.016 C 
ATOM     15  C   UNL     1      -6.118   3.088 -21.496  0.00  0.00    +0.039 C 
ATOM     16  C   UNL     1       0.301   1.663 -21.300  0.00  0.00    +0.044 C 
ATOM     17  O   UNL     1      -2.958   3.892 -27.291  0.00  0.00    -0.245 OA
ATOM     18  C   UNL     1      -2.894   3.035 -23.992  0.00  0.00    +0.069 C 
ENDROOT
TORSDOF 0
ENDMDL
MODEL 2
REMARK VINA RESULT:    -9.331      1.967      4.207
REMARK INTER + INTRA:          -9.331
REMARK INTER:                  -9.331
REMARK INTRA:                   0.000
REMARK UNBOUND:                 0.000
REMARK  Name = C=C1C(=O)O[C@H]2[C@@H]3O[C@@]3(C)CCC=C(C)CC[C@H]12                   ZINC000253986902
REMARK  2 active torsions:
REMARK  status: ('A' for Active; 'I' for Inactive)
REMARK    1  A    between atoms: C_9  and  C_10
REMARK    2  A    between atoms: C_14  and  C_15
REMARK                            x       y       z     vdW  Elec       q    Type
REMARK                         _______ _______ _______ _____ _____    ______ ____
ROOT
ATOM      1  C   UNL     1      -0.060   3.652 -25.479  0.00  0.00    +0.020 C 
ATOM      2  C   UNL     1      -0.533   3.559 -24.252  0.00  0.00    +0.036 C 
ATOM      3  C   UNL     1       0.180   3.548 -23.146  0.00  0.00    +0.335 C 
ATOM      4  O   UNL     1      -0.644   3.443 -22.126  0.00  0.00    -0.455 OA
ATOM      5  C   UNL     1      -1.872   3.390 -22.604  0.00  0.00    +0.216 C 
ATOM      6  C   UNL     1      -2.932   3.276 -21.709  0.00  0.00    +0.192 C 
ATOM      7  O   UNL     1      -3.767   3.171 -20.691  0.00  0.00    -0.361 OA
ATOM      8  C   UNL     1      -4.231   3.205 -21.926  0.00  0.00    +0.097 C 
ATOM      9  C   UNL     1      -4.507   3.257 -23.285  0.00  0.00    +0.041 C 
ATOM     10  C   UNL     1      -3.677   3.360 -24.264  0.00  0.00    +0.030 C 
ATOM     11  C   UNL     1      -4.138   3.399 -25.610  0.00  0.00    -0.028 C 
ATOM     12  C   UNL     1      -3.191   3.501 -26.416  0.00  0.00    -0.077 C 
ATOM     13  C   UNL     1      -2.271   3.530 -25.838  0.00  0.00    +0.031 C 
ATOM     14  C   UNL     1      -2.620   3.444 -24.592  0.00  0.00    +0.016 C 
ATOM     15  C   UNL     1      -3.254   3.564 -27.724  0.00  0.00    +0.039 C 
ATOM     16  C   UNL     1      -5.498   3.105 -21.557  0.00  0.00    +0.044 C 
ATOM     17  O   UNL     1       1.496   3.628 -23.071  0.00  0.00    -0.245 OA
ATOM     18  C   UNL     1      -1.804   3.461 -23.914  0.00  0.00    +0.069 C 
ENDROOT
TORSDOF 0
ENDMDL
MODEL 3
REMARK VINA RESULT:    -9.171      2.059      3.543
REMARK INTER + INTRA:          -9.171
REMARK INTER:                  -9.171
REMARK INTRA:                   0.000
REMARK UNBOUND:                 0.000
REMARK  Name = C=C1C(=O)O[C@H]2[C@@H]3O[C@@]3(C)CCC=C(C)CC[C@H]12                   ZINC000253986902
REMARK  2 active torsions:
REMARK  status: ('A' for Active; 'I' for Inactive)
REMARK    1  A    between atoms: C_9  and  C_10
REMARK    2  A    between atoms: C_14  and  C_15
REMARK                            x       y       z     vdW  Elec       q    Type
REMARK                         _______ _______ _______ _____ _____    ______ ____
ROOT
ATOM      1  C   UNL     1      -5.311   3.710 -24.096  0.00  0.00    +0.020 C 
ATOM      2  C   UNL     1      -4.509   3.322 -23.124  0.00  0.00    +0.036 C 
ATOM      3  C   UNL     1      -4.853   3.116 -21.871  0.00  0.00    +0.335 C 
ATOM      4  O   UNL     1      -3.782   2.738 -21.206  0.00  0.00    -0.455 OA
ATOM      5  C   UNL     1      -2.772   2.711 -22.053  0.00  0.00    +0.216 C 
ATOM      6  C   UNL     1      -1.517   2.336 -21.581  0.00  0.00    +0.192 C 
ATOM      7  O   UNL     1      -0.436   1.958 -20.922  0.00  0.00    -0.361 OA
ATOM      8  C   UNL     1      -0.363   2.230 -22.212  0.00  0.00    +0.097 C 
ATOM      9  C   UNL     1      -0.502   2.559 -23.552  0.00  0.00    +0.041 C 
ATOM     10  C   UNL     1      -1.566   2.926 -24.177  0.00  0.00    +0.030 C 
ATOM     11  C   UNL     1      -1.528   3.228 -25.568  0.00  0.00    -0.028 C 
ATOM     12  C   UNL     1      -2.651   3.564 -25.994  0.00  0.00    -0.077 C 
ATOM     13  C   UNL     1      -3.344   3.526 -25.158  0.00  0.00    +0.031 C 
ATOM     14  C   UNL     1      -2.652   3.148 -24.129  0.00  0.00    +0.016 C 
ATOM     15  C   UNL     1      -2.974   3.907 -27.218  0.00  0.00    +0.039 C 
ATOM     16  C   UNL     1       0.932   1.971 -22.292  0.00  0.00    +0.044 C 
ATOM     17  O   UNL     1      -6.065   3.263 -21.366  0.00  0.00    -0.245 OA
ATOM     18  C   UNL     1      -3.219   3.070 -23.235  0.00  0.00    +0.069 C 
ENDROOT
TORSDOF 0
ENDMDL
MODEL 4
REMARK VINA RESULT:    -9.012      2.078      3.701
REMARK INTER + INTRA:          -9.012
REMARK INTER:                  -9.012
REMARK INTRA:                   0.000
REMARK UNBOUND:                 0.000
REMARK  Name = C=C1C(=O)O[C@H]2[C@@H]3O[C@@]3(C)CCC=C(C)CC[C@H]12                   ZINC000253986902
REMARK  2 active torsions:
REMARK  status: ('A' for Active; 'I' for Inactive)
REMARK    1  A    between atoms: C_9  and  C_10
REMARK    2  A    between atoms: C_14  and  C_15
REMARK                            x       y       z     vdW  Elec       q    Type
REMARK                         _______ _______ _______ _____ _____    ______ ____
ROOT
ATOM      1  C   UNL     1      -4.642   3.297 -22.316  0.00  0.00    +0.020 C 
ATOM      2  C   UNL     1      -3.341   3.393 -22.124  0.00  0.00    +0.036 C 
ATOM      3  C   UNL     1      -2.731   3.438 -20.959  0.00  0.00    +0.335 C 
ATOM      4  O   UNL     1      -1.436   3.535 -21.176  0.00  0.00    -0.455 OA
ATOM      5  C   UNL     1      -1.247   3.550 -22.481  0.00  0.00    +0.216 C 
ATOM      6  C   UNL     1       0.055   3.648 -22.964  0.00  0.00    +0.192 C 
ATOM      7  O   UNL     1       1.353   3.745 -23.191  0.00  0.00    -0.361 OA
ATOM      8  C   UNL     1       0.507   3.682 -24.203  0.00  0.00    +0.097 C 
ATOM      9  C   UNL     1      -0.539   3.605 -25.111  0.00  0.00    +0.041 C 
ATOM     10  C   UNL     1      -1.800   3.510 -24.869  0.00  0.00    +0.030 C 
ATOM     11  C   UNL     1      -2.743   3.441 -25.933  0.00  0.00    -0.028 C 
ATOM     12  C   UNL     1      -3.912   3.353 -25.504  0.00  0.00    -0.077 C 
ATOM     13  C   UNL     1      -3.863   3.356 -24.418  0.00  0.00    +0.031 C 
ATOM     14  C   UNL     1      -2.607   3.450 -24.110  0.00  0.00    +0.016 C 
ATOM     15  C   UNL     1      -5.018   3.271 -26.202  0.00  0.00    +0.039 C 
ATOM     16  C   UNL     1       1.453   3.753 -25.125  0.00  0.00    +0.044 C 
ATOM     17  O   UNL     1      -3.315   3.394 -19.776  0.00  0.00    -0.245 OA
ATOM     18  C   UNL     1      -2.420   3.463 -23.065  0.00  0.00    +0.069 C 
ENDROOT
TORSDOF 0
ENDMDL
MODEL 5
REMARK VINA RESULT:    -8.867      0.966      3.845
REMARK INTER + INTRA:          -8.867
REMARK INTER:                  -8.867
REMARK INTRA:                   0.000
REMARK UNBOUND:                 0.000
REMARK  Name = C=C1C(=O)O[C@H]2[C@@H]3O[C@@]3(C)CCC=C(C)CC[C@H]12                   ZINC000253986902
REMARK  2 active torsions:
REMARK  status: ('A' for Active; 'I' for Inactive)
REMARK    1  A    between atoms: C_9  and  C_10
REMARK    2  A    between atoms: C_14  and  C_15
REMARK                            x       y       z     vdW  Elec       q    Type
REMARK                         _______ _______ _______ _____ _____    ______ ____
ROOT
ATOM      1  C   UNL     1      -0.381   1.906 -21.073  0.00  0.00    +0.020 C 
ATOM      2  C   UNL     1      -0.394   2.224 -22.353  0.00  0.00    +0.036 C 
ATOM      3  C   UNL     1       0.641   2.207 -23.165  0.00  0.00    +0.335 C 
ATOM      4  O   UNL     1       0.234   2.586 -24.358  0.00  0.00    -0.455 OA
ATOM      5  C   UNL     1      -1.058   2.838 -24.281  0.00  0.00    +0.216 C 
ATOM      6  C   UNL     1      -1.725   3.260 -25.428  0.00  0.00    +0.192 C 
ATOM      7  O   UNL     1      -2.143   3.642 -26.622  0.00  0.00    -0.361 OA
ATOM      8  C   UNL     1      -2.993   3.572 -25.614  0.00  0.00    +0.097 C 
ATOM      9  C   UNL     1      -3.713   3.432 -24.437  0.00  0.00    +0.041 C 
ATOM     10  C   UNL     1      -3.287   3.058 -23.281  0.00  0.00    +0.030 C 
ATOM     11  C   UNL     1      -4.173   2.970 -22.170  0.00  0.00    -0.028 C 
ATOM     12  C   UNL     1      -3.579   2.592 -21.140  0.00  0.00    -0.077 C 
ATOM     13  C   UNL     1      -2.535   2.437 -21.401  0.00  0.00    +0.031 C 
ATOM     14  C   UNL     1      -2.429   2.726 -22.661  0.00  0.00    +0.016 C 
ATOM     15  C   UNL     1      -4.087   2.404 -19.946  0.00  0.00    +0.039 C 
ATOM     16  C   UNL     1      -4.030   3.967 -26.335  0.00  0.00    +0.044 C 
ATOM     17  O   UNL     1       1.876   1.869 -22.841  0.00  0.00    -0.245 OA
ATOM     18  C   UNL     1      -1.446   2.615 -23.046  0.00  0.00    +0.069 C 
ENDROOT
TORSDOF 0
ENDMDL
MODEL 6
REMARK VINA RESULT:    -8.817      1.826      4.534
REMARK INTER + INTRA:          -8.817
REMARK INTER:                  -8.817
REMARK INTRA:                   0.000
REMARK UNBOUND:                 0.000
REMARK  Name = C=C1C(=O)O[C@H]2[C@@H]3O[C@@]3(C)CCC=C(C)CC[C@H]12                   ZINC000253986902
REMARK  2 active torsions:
REMARK  status: ('A' for Active; 'I' for Inactive)
REMARK    1  A    between atoms: C_9  and  C_10
REMARK    2  A    between atoms: C_14  and  C_15
REMARK                            x       y       z     vdW  Elec       q    Type
REMARK                         _______ _______ _______ _____ _____    ______ ____
ROOT
ATOM      1  C   UNL     1       2.382   2.960 -24.153  0.00  0.00    +0.020 C 
ATOM      2  C   UNL     1       1.093   3.221 -24.245  0.00  0.00    +0.036 C 
ATOM      3  C   UNL     1       0.499   3.847 -25.237  0.00  0.00    +0.335 C 
ATOM      4  O   UNL     1      -0.788   3.917 -24.969  0.00  0.00    -0.455 OA
ATOM      5  C   UNL     1      -0.988   3.330 -23.805  0.00  0.00    +0.216 C 
ATOM      6  C   UNL     1      -2.284   3.276 -23.301  0.00  0.00    +0.192 C 
ATOM      7  O   UNL     1      -3.574   3.340 -23.022  0.00  0.00    -0.361 OA
ATOM      8  C   UNL     1      -2.744   2.755 -22.179  0.00  0.00    +0.097 C 
ATOM      9  C   UNL     1      -1.715   2.191 -21.439  0.00  0.00    +0.041 C 
ATOM     10  C   UNL     1      -0.461   2.138 -21.728  0.00  0.00    +0.030 C 
ATOM     11  C   UNL     1       0.465   1.515 -20.844  0.00  0.00    -0.028 C 
ATOM     12  C   UNL     1       1.628   1.562 -21.294  0.00  0.00    -0.077 C 
ATOM     13  C   UNL     1       1.590   2.077 -22.250  0.00  0.00    +0.031 C 
ATOM     14  C   UNL     1       0.347   2.387 -22.447  0.00  0.00    +0.016 C 
ATOM     15  C   UNL     1       2.720   1.089 -20.743  0.00  0.00    +0.039 C 
ATOM     16  C   UNL     1      -3.692   2.448 -21.308  0.00  0.00    +0.044 C 
ATOM     17  O   UNL     1       1.090   4.325 -26.318  0.00  0.00    -0.245 OA
ATOM     18  C   UNL     1       0.171   2.902 -23.359  0.00  0.00    +0.069 C 
ENDROOT
TORSDOF 0
ENDMDL
MODEL 7
REMARK VINA RESULT:    -8.649      1.692      3.743
REMARK INTER + INTRA:          -8.649
REMARK INTER:                  -8.649
REMARK INTRA:                   0.000
REMARK UNBOUND:                 0.000
REMARK  Name = C=C1C(=O)O[C@H]2[C@@H]3O[C@@]3(C)CCC=C(C)CC[C@H]12                   ZINC000253986902
REMARK  2 active torsions:
REMARK  status: ('A' for Active; 'I' for Inactive)
REMARK    1  A    between atoms: C_9  and  C_10
REMARK    2  A    between atoms: C_14  and  C_15
REMARK                            x       y       z     vdW  Elec       q    Type
REMARK                         _______ _______ _______ _____ _____    ______ ____
ROOT
ATOM      1  C   UNL     1      -0.831   3.419 -25.820  0.00  0.00    +0.020 C 
ATOM      2  C   UNL     1      -2.027   3.428 -25.266  0.00  0.00    +0.036 C 
ATOM      3  C   UNL     1      -3.160   3.709 -25.873  0.00  0.00    +0.335 C 
ATOM      4  O   UNL     1      -4.134   3.614 -24.994  0.00  0.00    -0.455 OA
ATOM      5  C   UNL     1      -3.600   3.271 -23.838  0.00  0.00    +0.216 C 
ATOM      6  C   UNL     1      -4.438   3.106 -22.739  0.00  0.00    +0.192 C 
ATOM      7  O   UNL     1      -5.409   3.008 -21.848  0.00  0.00    -0.361 OA
ATOM      8  C   UNL     1      -4.159   2.773 -21.493  0.00  0.00    +0.097 C 
ATOM      9  C   UNL     1      -2.797   2.572 -21.330  0.00  0.00    +0.041 C 
ATOM     10  C   UNL     1      -1.864   2.673 -22.212  0.00  0.00    +0.030 C 
ATOM     11  C   UNL     1      -0.504   2.428 -21.867  0.00  0.00    -0.028 C 
ATOM     12  C   UNL     1       0.250   2.575 -22.850  0.00  0.00    -0.077 C 
ATOM     13  C   UNL     1      -0.368   2.853 -23.700  0.00  0.00    +0.031 C 
ATOM     14  C   UNL     1      -1.588   2.894 -23.264  0.00  0.00    +0.016 C 
ATOM     15  C   UNL     1       1.553   2.429 -22.889  0.00  0.00    +0.039 C 
ATOM     16  C   UNL     1      -4.465   2.506 -20.234  0.00  0.00    +0.044 C 
ATOM     17  O   UNL     1      -3.297   4.033 -27.147  0.00  0.00    -0.245 OA
ATOM     18  C   UNL     1      -2.301   3.157 -24.005  0.00  0.00    +0.069 C 
ENDROOT
TORSDOF 0
ENDMDL
MODEL 8
REMARK VINA RESULT:    -8.484      2.440      3.824
REMARK INTER + INTRA:          -8.484
REMARK INTER:                  -8.484
REMARK INTRA:                   0.000
REMARK UNBOUND:                 0.000
REMARK  Name = C=C1C(=O)O[C@H]2[C@@H]3O[C@@]3(C)CCC=C(C)CC[C@H]12                   ZINC000253986902
REMARK  2 active torsions:
REMARK  status: ('A' for Active; 'I' for Inactive)
REMARK    1  A    between atoms: C_9  and  C_10
REMARK    2  A    between atoms: C_14  and  C_15
REMARK                            x       y       z     vdW  Elec       q    Type
REMARK                         _______ _______ _______ _____ _____    ______ ____
ROOT
ATOM      1  C   UNL     1      -0.886   3.834 -24.471  0.00  0.00    +0.020 C 
ATOM      2  C   UNL     1       0.369   3.441 -24.382  0.00  0.00    +0.036 C 
ATOM      3  C   UNL     1       1.327   3.705 -25.245  0.00  0.00    +0.335 C 
ATOM      4  O   UNL     1       2.436   3.145 -24.814  0.00  0.00    -0.455 OA
ATOM      5  C   UNL     1       2.162   2.532 -23.679  0.00  0.00    +0.216 C 
ATOM      6  C   UNL     1       3.187   1.857 -23.022  0.00  0.00    +0.192 C 
ATOM      7  O   UNL     1       4.296   1.291 -22.580  0.00  0.00    -0.361 OA
ATOM      8  C   UNL     1       3.176   1.176 -21.891  0.00  0.00    +0.097 C 
ATOM      9  C   UNL     1       1.908   1.177 -21.329  0.00  0.00    +0.041 C 
ATOM     10  C   UNL     1       0.837   1.737 -21.775  0.00  0.00    +0.030 C 
ATOM     11  C   UNL     1      -0.390   1.636 -21.061  0.00  0.00    -0.028 C 
ATOM     12  C   UNL     1      -1.311   2.239 -21.647  0.00  0.00    -0.077 C 
ATOM     13  C   UNL     1      -0.895   2.674 -22.552  0.00  0.00    +0.031 C 
ATOM     14  C   UNL     1       0.360   2.346 -22.569  0.00  0.00    +0.016 C 
ATOM     15  C   UNL     1      -2.563   2.350 -21.272  0.00  0.00    +0.039 C 
ATOM     16  C   UNL     1       3.725   0.448 -20.933  0.00  0.00    +0.044 C 
ATOM     17  O   UNL     1       1.198   4.411 -26.354  0.00  0.00    -0.245 OA
ATOM     18  C   UNL     1       0.889   2.714 -23.413  0.00  0.00    +0.069 C 
ENDROOT
TORSDOF 0
ENDMDL
MODEL 9
REMARK VINA RESULT:    -7.461      5.127      7.418
REMARK INTER + INTRA:          -7.461
REMARK INTER:                  -7.461
REMARK INTRA:                   0.000
REMARK UNBOUND:                 0.000
REMARK  Name = C=C1C(=O)O[C@H]2[C@@H]3O[C@@]3(C)CCC=C(C)CC[C@H]12                   ZINC000253986902
REMARK  2 active torsions:
REMARK  status: ('A' for Active; 'I' for Inactive)
REMARK    1  A    between atoms: C_9  and  C_10
REMARK    2  A    between atoms: C_14  and  C_15
REMARK                            x       y       z     vdW  Elec       q    Type
REMARK                         _______ _______ _______ _____ _____    ______ ____
ROOT
ATOM      1  C   UNL     1       1.619   1.467 -21.851  0.00  0.00    +0.020 C 
ATOM      2  C   UNL     1       2.920   1.643 -21.728  0.00  0.00    +0.036 C 
ATOM      3  C   UNL     1       3.758   0.827 -21.125  0.00  0.00    +0.335 C 
ATOM      4  O   UNL     1       4.966   1.342 -21.210  0.00  0.00    -0.455 OA
ATOM      5  C   UNL     1       4.873   2.480 -21.868  0.00  0.00    +0.216 C 
ATOM      6  C   UNL     1       6.032   3.220 -22.088  0.00  0.00    +0.192 C 
ATOM      7  O   UNL     1       7.241   3.744 -22.178  0.00  0.00    -0.361 OA
ATOM      8  C   UNL     1       6.207   4.371 -22.708  0.00  0.00    +0.097 C 
ATOM      9  C   UNL     1       5.002   4.860 -23.190  0.00  0.00    +0.041 C 
ATOM     10  C   UNL     1       3.831   4.332 -23.092  0.00  0.00    +0.030 C 
ATOM     11  C   UNL     1       2.691   4.977 -23.650  0.00  0.00    -0.028 C 
ATOM     12  C   UNL     1       1.650   4.317 -23.455  0.00  0.00    -0.077 C 
ATOM     13  C   UNL     1       1.928   3.423 -22.903  0.00  0.00    +0.031 C 
ATOM     14  C   UNL     1       3.210   3.490 -22.722  0.00  0.00    +0.016 C 
ATOM     15  C   UNL     1       0.430   4.615 -23.832  0.00  0.00    +0.039 C 
ATOM     16  C   UNL     1       6.928   5.385 -23.158  0.00  0.00    +0.044 C 
ATOM     17  O   UNL     1       3.443  -0.312 -20.536  0.00  0.00    -0.245 OA
ATOM     18  C   UNL     1       3.612   2.666 -22.188  0.00  0.00    +0.069 C 
ENDROOT
TORSDOF 0
ENDMDL
