MODEL 1
REMARK VINA RESULT:   -10.989      0.000      0.000
REMARK INTER + INTRA:          -8.483
REMARK INTER:                 -11.837
REMARK INTRA:                   3.354
REMARK UNBOUND:                 3.470
REMARK  Name = ZINC000003947415
REMARK  4 active torsions:
REMARK  status: ('A' for Active; 'I' for Inactive)
REMARK    1  A    between atoms: C_1  and  C_2
REMARK    2  A    between atoms: C_2  and  C_3
REMARK    3  A    between atoms: C_9  and  C_10
REMARK    4  A    between atoms: C_13  and  O_14
REMARK                            x       y       z     vdW  Elec       q    Type
REMARK                         _______ _______ _______ _____ _____    ______ ____
ROOT
ATOM      1  C   UNL     1      -5.586   4.047 -24.084  0.00  0.00    +0.017 C 
ATOM      2  C   UNL     1      -4.435   3.630 -23.648  0.00  0.00    +0.011 C 
ATOM      3  C   UNL     1      -5.173   3.468 -22.593  0.00  0.00    +0.013 C 
ATOM      4  C   UNL     1      -4.647   2.992 -21.509  0.00  0.00    +0.002 C 
ATOM      5  C   UNL     1      -3.384   2.679 -21.479  0.00  0.00    +0.011 C 
ATOM      6  C   UNL     1      -2.649   2.842 -22.536  0.00  0.00    -0.003 C 
ATOM      7  C   UNL     1      -1.387   2.529 -22.507  0.00  0.00    -0.035 A 
ATOM      8  C   UNL     1      -0.863   2.053 -21.421  0.00  0.00    +0.049 A 
ATOM      9  C   UNL     1       0.398   1.742 -21.398  0.00  0.00    +0.117 A 
ATOM     10  C   UNL     1       1.133   1.906 -22.456  0.00  0.00    +0.045 A 
ATOM     11  C   UNL     1       0.604   2.381 -23.538  0.00  0.00    +0.007 A 
ATOM     12  C   UNL     1      -0.658   2.694 -23.566  0.00  0.00    -0.043 A 
ATOM     13  C   UNL     1      -1.184   3.170 -24.650  0.00  0.00    +0.036 C 
ATOM     14  C   UNL     1      -2.443   3.481 -24.675  0.00  0.00    +0.010 C 
ATOM     15  C   UNL     1      -2.124   2.365 -21.447  0.00  0.00    +0.016 C 
ATOM     16  C   UNL     1      -3.172   3.318 -23.623  0.00  0.00    +0.011 C 
ENDROOT
BRANCH   2  17
ATOM     17  C   UNL     1      -4.129   3.963 -24.911  0.00  0.00    +0.048 C 
ATOM     18  O   UNL     1      -3.746   5.167 -25.217  0.00  0.00    -0.549 OA
ATOM     19  O   UNL     1      -4.215   3.068 -25.849  0.00  0.00    -0.549 OA
ENDBRANCH   2  17
BRANCH   9  20
ATOM     20  O   UNL     1       0.927   1.265 -20.311  0.00  0.00    -0.507 OA
ATOM     21  H   UNL     1       0.402   0.774 -19.710  0.00  0.00    +0.292 HD
ENDBRANCH   9  20
TORSDOF 2
ENDMDL
MODEL 2
REMARK VINA RESULT:   -10.809      2.138      3.351
REMARK INTER + INTRA:          -8.287
REMARK INTER:                 -11.684
REMARK INTRA:                   3.396
REMARK UNBOUND:                 3.470
REMARK  Name = ZINC000003947415
REMARK  4 active torsions:
REMARK  status: ('A' for Active; 'I' for Inactive)
REMARK    1  A    between atoms: C_1  and  C_2
REMARK    2  A    between atoms: C_2  and  C_3
REMARK    3  A    between atoms: C_9  and  C_10
REMARK    4  A    between atoms: C_13  and  O_14
REMARK                            x       y       z     vdW  Elec       q    Type
REMARK                         _______ _______ _______ _____ _____    ______ ____
ROOT
ATOM      1  C   UNL     1      -5.690   3.357 -22.115  0.00  0.00    +0.017 C 
ATOM      2  C   UNL     1      -4.490   3.389 -22.616  0.00  0.00    +0.011 C 
ATOM      3  C   UNL     1      -5.198   3.743 -23.645  0.00  0.00    +0.013 C 
ATOM      4  C   UNL     1      -4.608   4.005 -24.768  0.00  0.00    +0.002 C 
ATOM      5  C   UNL     1      -3.314   3.914 -24.864  0.00  0.00    +0.011 C 
ATOM      6  C   UNL     1      -2.610   3.560 -23.833  0.00  0.00    -0.003 C 
ATOM      7  C   UNL     1      -1.316   3.469 -23.927  0.00  0.00    -0.035 A 
ATOM      8  C   UNL     1      -0.728   3.732 -25.052  0.00  0.00    +0.049 A 
ATOM      9  C   UNL     1       0.563   3.639 -25.140  0.00  0.00    +0.117 A 
ATOM     10  C   UNL     1       1.267   3.285 -24.108  0.00  0.00    +0.045 A 
ATOM     11  C   UNL     1       0.676   3.024 -22.986  0.00  0.00    +0.007 A 
ATOM     12  C   UNL     1      -0.618   3.115 -22.894  0.00  0.00    -0.043 A 
ATOM     13  C   UNL     1      -1.208   2.853 -21.770  0.00  0.00    +0.036 C 
ATOM     14  C   UNL     1      -2.498   2.945 -21.680  0.00  0.00    +0.010 C 
ATOM     15  C   UNL     1      -2.022   3.824 -24.962  0.00  0.00    +0.016 C 
ATOM     16  C   UNL     1      -3.196   3.297 -22.707  0.00  0.00    +0.011 C 
ENDROOT
BRANCH   2  17
ATOM     17  C   UNL     1      -4.236   3.011 -21.354  0.00  0.00    +0.048 C 
ATOM     18  O   UNL     1      -4.310   1.763 -20.996  0.00  0.00    -0.549 OA
ATOM     19  O   UNL     1      -3.908   3.905 -20.471  0.00  0.00    -0.549 OA
ENDBRANCH   2  17
BRANCH   9  20
ATOM     20  O   UNL     1       1.156   3.902 -26.268  0.00  0.00    -0.507 OA
ATOM     21  H   UNL     1       1.867   4.511 -26.293  0.00  0.00    +0.292 HD
ENDBRANCH   9  20
TORSDOF 2
ENDMDL
MODEL 3
REMARK VINA RESULT:   -10.136      1.400      5.223
REMARK INTER + INTRA:          -7.556
REMARK INTER:                 -10.907
REMARK INTRA:                   3.351
REMARK UNBOUND:                 3.470
REMARK  Name = ZINC000003947415
REMARK  4 active torsions:
REMARK  status: ('A' for Active; 'I' for Inactive)
REMARK    1  A    between atoms: C_1  and  C_2
REMARK    2  A    between atoms: C_2  and  C_3
REMARK    3  A    between atoms: C_9  and  C_10
REMARK    4  A    between atoms: C_13  and  O_14
REMARK                            x       y       z     vdW  Elec       q    Type
REMARK                         _______ _______ _______ _____ _____    ______ ____
ROOT
ATOM      1  C   UNL     1       2.233   2.578 -24.400  0.00  0.00    +0.017 C 
ATOM      2  C   UNL     1       0.997   2.689 -24.014  0.00  0.00    +0.011 C 
ATOM      3  C   UNL     1       0.947   3.267 -25.176  0.00  0.00    +0.013 C 
ATOM      4  C   UNL     1      -0.177   3.748 -25.604  0.00  0.00    +0.002 C 
ATOM      5  C   UNL     1      -1.250   3.652 -24.875  0.00  0.00    +0.011 C 
ATOM      6  C   UNL     1      -1.196   3.073 -23.714  0.00  0.00    -0.003 C 
ATOM      7  C   UNL     1      -2.268   2.977 -22.984  0.00  0.00    -0.035 A 
ATOM      8  C   UNL     1      -3.392   3.459 -23.415  0.00  0.00    +0.049 A 
ATOM      9  C   UNL     1      -4.458   3.360 -22.682  0.00  0.00    +0.117 A 
ATOM     10  C   UNL     1      -4.404   2.781 -21.521  0.00  0.00    +0.045 A 
ATOM     11  C   UNL     1      -3.279   2.301 -21.094  0.00  0.00    +0.007 A 
ATOM     12  C   UNL     1      -2.209   2.398 -21.825  0.00  0.00    -0.043 A 
ATOM     13  C   UNL     1      -1.085   1.917 -21.397  0.00  0.00    +0.036 C 
ATOM     14  C   UNL     1      -0.018   2.015 -22.127  0.00  0.00    +0.010 C 
ATOM     15  C   UNL     1      -2.322   3.557 -24.148  0.00  0.00    +0.016 C 
ATOM     16  C   UNL     1      -0.074   2.591 -23.281  0.00  0.00    +0.011 C 
ENDROOT
BRANCH   2  17
ATOM     17  C   UNL     1       1.538   2.048 -22.968  0.00  0.00    +0.048 C 
ATOM     18  O   UNL     1       1.520   0.750 -22.888  0.00  0.00    -0.549 OA
ATOM     19  O   UNL     1       2.093   2.733 -22.013  0.00  0.00    -0.549 OA
ENDBRANCH   2  17
BRANCH   9  20
ATOM     20  O   UNL     1      -5.586   3.842 -23.112  0.00  0.00    -0.507 OA
ATOM     21  H   UNL     1      -5.902   3.609 -23.962  0.00  0.00    +0.292 HD
ENDBRANCH   9  20
TORSDOF 2
ENDMDL
MODEL 4
REMARK VINA RESULT:    -9.440      1.528      5.921
REMARK INTER + INTRA:          -6.798
REMARK INTER:                 -10.169
REMARK INTRA:                   3.371
REMARK UNBOUND:                 3.470
REMARK  Name = ZINC000003947415
REMARK  4 active torsions:
REMARK  status: ('A' for Active; 'I' for Inactive)
REMARK    1  A    between atoms: C_1  and  C_2
REMARK    2  A    between atoms: C_2  and  C_3
REMARK    3  A    between atoms: C_9  and  C_10
REMARK    4  A    between atoms: C_13  and  O_14
REMARK                            x       y       z     vdW  Elec       q    Type
REMARK                         _______ _______ _______ _____ _____    ______ ____
ROOT
ATOM      1  C   UNL     1       3.771   2.017 -22.095  0.00  0.00    +0.017 C 
ATOM      2  C   UNL     1       2.551   2.362 -22.384  0.00  0.00    +0.011 C 
ATOM      3  C   UNL     1       3.224   3.268 -23.025  0.00  0.00    +0.013 C 
ATOM      4  C   UNL     1       2.594   4.174 -23.705  0.00  0.00    +0.002 C 
ATOM      5  C   UNL     1       1.294   4.174 -23.744  0.00  0.00    +0.011 C 
ATOM      6  C   UNL     1       0.625   3.267 -23.102  0.00  0.00    -0.003 C 
ATOM      7  C   UNL     1      -0.676   3.267 -23.140  0.00  0.00    -0.035 A 
ATOM      8  C   UNL     1      -1.304   4.173 -23.821  0.00  0.00    +0.049 A 
ATOM      9  C   UNL     1      -2.602   4.167 -23.856  0.00  0.00    +0.117 A 
ATOM     10  C   UNL     1      -3.271   3.259 -23.212  0.00  0.00    +0.045 A 
ATOM     11  C   UNL     1      -2.639   2.356 -22.534  0.00  0.00    +0.007 A 
ATOM     12  C   UNL     1      -1.339   2.357 -22.496  0.00  0.00    -0.043 A 
ATOM     13  C   UNL     1      -0.709   1.452 -21.817  0.00  0.00    +0.036 C 
ATOM     14  C   UNL     1       0.588   1.456 -21.781  0.00  0.00    +0.010 C 
ATOM     15  C   UNL     1      -0.005   4.177 -23.785  0.00  0.00    +0.016 C 
ATOM     16  C   UNL     1       1.251   2.359 -22.420  0.00  0.00    +0.011 C 
ENDROOT
BRANCH   2  17
ATOM     17  C   UNL     1       2.340   1.290 -21.607  0.00  0.00    +0.048 C 
ATOM     18  O   UNL     1       2.110   1.414 -20.333  0.00  0.00    -0.549 OA
ATOM     19  O   UNL     1       2.365   0.102 -22.133  0.00  0.00    -0.549 OA
ENDBRANCH   2  17
BRANCH   9  20
ATOM     20  O   UNL     1      -3.235   5.076 -24.538  0.00  0.00    -0.507 OA
ATOM     21  H   UNL     1      -3.080   5.984 -24.366  0.00  0.00    +0.292 HD
ENDBRANCH   9  20
TORSDOF 2
ENDMDL
MODEL 5
REMARK VINA RESULT:    -9.333      2.033      3.352
REMARK INTER + INTRA:          -6.682
REMARK INTER:                 -10.023
REMARK INTRA:                   3.341
REMARK UNBOUND:                 3.470
REMARK  Name = ZINC000003947415
REMARK  4 active torsions:
REMARK  status: ('A' for Active; 'I' for Inactive)
REMARK    1  A    between atoms: C_1  and  C_2
REMARK    2  A    between atoms: C_2  and  C_3
REMARK    3  A    between atoms: C_9  and  C_10
REMARK    4  A    between atoms: C_13  and  O_14
REMARK                            x       y       z     vdW  Elec       q    Type
REMARK                         _______ _______ _______ _____ _____    ______ ____
ROOT
ATOM      1  C   UNL     1      -4.124   3.696 -22.628  0.00  0.00    +0.017 C 
ATOM      2  C   UNL     1      -2.886   3.333 -22.794  0.00  0.00    +0.011 C 
ATOM      3  C   UNL     1      -3.156   3.838 -23.960  0.00  0.00    +0.013 C 
ATOM      4  C   UNL     1      -2.243   3.853 -24.878  0.00  0.00    +0.002 C 
ATOM      5  C   UNL     1      -1.062   3.364 -24.635  0.00  0.00    +0.011 C 
ATOM      6  C   UNL     1      -0.797   2.860 -23.468  0.00  0.00    -0.003 C 
ATOM      7  C   UNL     1       0.384   2.371 -23.224  0.00  0.00    -0.035 A 
ATOM      8  C   UNL     1       1.296   2.387 -24.145  0.00  0.00    +0.049 A 
ATOM      9  C   UNL     1       2.472   1.898 -23.894  0.00  0.00    +0.117 A 
ATOM     10  C   UNL     1       2.737   1.393 -22.727  0.00  0.00    +0.045 A 
ATOM     11  C   UNL     1       1.823   1.380 -21.810  0.00  0.00    +0.007 A 
ATOM     12  C   UNL     1       0.644   1.869 -22.057  0.00  0.00    -0.043 A 
ATOM     13  C   UNL     1      -0.270   1.854 -21.138  0.00  0.00    +0.036 C 
ATOM     14  C   UNL     1      -1.445   2.343 -21.386  0.00  0.00    +0.010 C 
ATOM     15  C   UNL     1       0.117   2.877 -24.393  0.00  0.00    +0.016 C 
ATOM     16  C   UNL     1      -1.707   2.843 -22.546  0.00  0.00    +0.011 C 
ENDROOT
BRANCH   2  17
ATOM     17  C   UNL     1      -3.099   2.955 -21.525  0.00  0.00    +0.048 C 
ATOM     18  O   UNL     1      -2.892   3.772 -20.535  0.00  0.00    -0.549 OA
ATOM     19  O   UNL     1      -3.518   1.752 -21.276  0.00  0.00    -0.549 OA
ENDBRANCH   2  17
BRANCH   9  20
ATOM     20  O   UNL     1       3.389   1.912 -24.816  0.00  0.00    -0.507 OA
ATOM     21  H   UNL     1       4.196   1.458 -24.681  0.00  0.00    +0.292 HD
ENDBRANCH   9  20
TORSDOF 2
ENDMDL
