MODEL 1
REMARK VINA RESULT:   -10.289      0.000      0.000
REMARK INTER + INTRA:         -10.289
REMARK INTER:                 -10.289
REMARK INTRA:                   0.000
REMARK UNBOUND:                 0.000
REMARK  Name = ZINC000000338150
REMARK  0 active torsions:
REMARK  status: ('A' for Active; 'I' for Inactive)
REMARK                            x       y       z     vdW  Elec       q    Type
REMARK                         _______ _______ _______ _____ _____    ______ ____
ROOT
ATOM      1  C   UNL     1       0.143   1.939 -21.421  0.00  0.00    +0.008 A 
ATOM      2  C   UNL     1       1.161   1.955 -22.229  0.00  0.00    +0.050 A 
ATOM      3  C   UNL     1       1.001   2.309 -23.470  0.00  0.00    +0.167 A 
ATOM      4  C   UNL     1      -0.179   2.647 -23.902  0.00  0.00    +0.174 A 
ATOM      5  O   UNL     1      -0.073   2.954 -25.160  0.00  0.00    -0.452 OA
ATOM      6  C   UNL     1       1.172   2.806 -25.507  0.00  0.00    +0.466 C 
ATOM      7  C   UNL     1      -1.196   2.631 -23.093  0.00  0.00    +0.035 A 
ATOM      8  C   UNL     1      -2.375   2.969 -23.525  0.00  0.00    +0.040 A 
ATOM      9  C   UNL     1      -3.393   2.953 -22.716  0.00  0.00    +0.015 A 
ATOM     10  C   UNL     1      -4.572   3.291 -23.148  0.00  0.00    -0.030 A 
ATOM     11  C   UNL     1      -4.732   3.645 -24.389  0.00  0.00    +0.054 A 
ATOM     12  C   UNL     1      -3.715   3.661 -25.197  0.00  0.00    +0.167 A 
ATOM     13  O   UNL     1      -3.609   3.968 -26.455  0.00  0.00    -0.453 OA
ATOM     14  C   UNL     1      -2.364   3.820 -26.802  0.00  0.00    +0.466 C 
ATOM     15  O   UNL     1      -1.701   3.421 -25.757  0.00  0.00    -0.452 OA
ATOM     16  C   UNL     1      -5.590   3.275 -22.339  0.00  0.00    +0.086 C 
ATOM     17  C   UNL     1      -5.428   2.922 -21.098  0.00  0.00    +0.134 C 
ATOM     18  N   UNL     1      -4.249   2.584 -20.667  0.00  0.00    +0.233 N 
ATOM     19  H   UNL     1      -4.356   1.594 -20.444  0.00  0.00    +0.202 HD
ATOM     20  H   UNL     1      -4.025   3.216 -19.898  0.00  0.00    +0.202 HD
ATOM     21  C   UNL     1      -3.231   2.599 -21.475  0.00  0.00    +0.099 C 
ATOM     22  C   UNL     1      -2.052   2.262 -21.044  0.00  0.00    +0.095 C 
ATOM     23  C   UNL     1      -2.537   3.323 -24.765  0.00  0.00    +0.174 A 
ATOM     24  O   UNL     1       1.835   2.407 -24.463  0.00  0.00    -0.453 OA
ATOM     25  C   UNL     1      -1.035   2.277 -21.852  0.00  0.00    -0.030 A 
ENDROOT
TORSDOF 0
ENDMDL
MODEL 2
REMARK VINA RESULT:    -9.674      1.828      4.858
REMARK INTER + INTRA:          -9.674
REMARK INTER:                  -9.674
REMARK INTRA:                   0.000
REMARK UNBOUND:                 0.000
REMARK  Name = ZINC000000338150
REMARK  0 active torsions:
REMARK  status: ('A' for Active; 'I' for Inactive)
REMARK                            x       y       z     vdW  Elec       q    Type
REMARK                         _______ _______ _______ _____ _____    ______ ____
ROOT
ATOM      1  C   UNL     1      -2.508   2.122 -21.020  0.00  0.00    +0.008 A 
ATOM      2  C   UNL     1      -3.472   2.620 -21.735  0.00  0.00    +0.050 A 
ATOM      3  C   UNL     1      -3.219   3.131 -22.904  0.00  0.00    +0.167 A 
ATOM      4  C   UNL     1      -2.000   3.143 -23.357  0.00  0.00    +0.174 A 
ATOM      5  O   UNL     1      -2.012   3.700 -24.531  0.00  0.00    -0.452 OA
ATOM      6  C   UNL     1      -3.239   4.034 -24.804  0.00  0.00    +0.466 C 
ATOM      7  C   UNL     1      -1.036   2.644 -22.641  0.00  0.00    +0.035 A 
ATOM      8  C   UNL     1       0.183   2.656 -23.094  0.00  0.00    +0.040 A 
ATOM      9  C   UNL     1       1.147   2.157 -22.378  0.00  0.00    +0.015 A 
ATOM     10  C   UNL     1       2.366   2.169 -22.831  0.00  0.00    -0.030 A 
ATOM     11  C   UNL     1       2.620   2.679 -24.000  0.00  0.00    +0.054 A 
ATOM     12  C   UNL     1       1.656   3.178 -24.715  0.00  0.00    +0.167 A 
ATOM     13  O   UNL     1       1.643   3.735 -25.889  0.00  0.00    -0.453 OA
ATOM     14  C   UNL     1       0.416   4.068 -26.162  0.00  0.00    +0.466 C 
ATOM     15  O   UNL     1      -0.329   3.717 -25.157  0.00  0.00    -0.452 OA
ATOM     16  C   UNL     1       3.330   1.670 -22.115  0.00  0.00    +0.086 C 
ATOM     17  C   UNL     1       3.075   1.160 -20.947  0.00  0.00    +0.134 C 
ATOM     18  N   UNL     1       1.857   1.148 -20.495  0.00  0.00    +0.233 N 
ATOM     19  H   UNL     1       1.899   1.774 -19.690  0.00  0.00    +0.202 HD
ATOM     20  H   UNL     1       1.618   0.172 -20.318  0.00  0.00    +0.202 HD
ATOM     21  C   UNL     1       0.893   1.647 -21.210  0.00  0.00    +0.099 C 
ATOM     22  C   UNL     1      -0.326   1.635 -20.758  0.00  0.00    +0.095 C 
ATOM     23  C   UNL     1       0.438   3.166 -24.262  0.00  0.00    +0.174 A 
ATOM     24  O   UNL     1      -3.984   3.682 -23.799  0.00  0.00    -0.453 OA
ATOM     25  C   UNL     1      -1.290   2.134 -21.473  0.00  0.00    -0.030 A 
ENDROOT
TORSDOF 0
ENDMDL
MODEL 3
REMARK VINA RESULT:    -8.974      2.511      3.860
REMARK INTER + INTRA:          -8.974
REMARK INTER:                  -8.974
REMARK INTRA:                   0.000
REMARK UNBOUND:                 0.000
REMARK  Name = ZINC000000338150
REMARK  0 active torsions:
REMARK  status: ('A' for Active; 'I' for Inactive)
REMARK                            x       y       z     vdW  Elec       q    Type
REMARK                         _______ _______ _______ _____ _____    ______ ____
ROOT
ATOM      1  C   UNL     1       1.436   2.405 -24.361  0.00  0.00    +0.008 A 
ATOM      2  C   UNL     1       1.969   2.004 -23.245  0.00  0.00    +0.050 A 
ATOM      3  C   UNL     1       1.236   1.897 -22.177  0.00  0.00    +0.167 A 
ATOM      4  C   UNL     1      -0.030   2.192 -22.225  0.00  0.00    +0.174 A 
ATOM      5  O   UNL     1      -0.532   2.004 -21.041  0.00  0.00    -0.452 OA
ATOM      6  C   UNL     1       0.423   1.594 -20.260  0.00  0.00    +0.466 C 
ATOM      7  C   UNL     1      -0.562   2.592 -23.342  0.00  0.00    +0.035 A 
ATOM      8  C   UNL     1      -1.828   2.887 -23.390  0.00  0.00    +0.040 A 
ATOM      9  C   UNL     1      -2.359   3.288 -24.507  0.00  0.00    +0.015 A 
ATOM     10  C   UNL     1      -3.625   3.582 -24.555  0.00  0.00    -0.030 A 
ATOM     11  C   UNL     1      -4.358   3.475 -23.487  0.00  0.00    +0.054 A 
ATOM     12  C   UNL     1      -3.826   3.074 -22.371  0.00  0.00    +0.167 A 
ATOM     13  O   UNL     1      -4.328   2.887 -21.187  0.00  0.00    -0.453 OA
ATOM     14  C   UNL     1      -3.373   2.476 -20.406  0.00  0.00    +0.466 C 
ATOM     15  O   UNL     1      -2.281   2.411 -21.108  0.00  0.00    -0.452 OA
ATOM     16  C   UNL     1      -4.157   3.983 -25.672  0.00  0.00    +0.086 C 
ATOM     17  C   UNL     1      -3.423   4.089 -26.740  0.00  0.00    +0.134 C 
ATOM     18  N   UNL     1      -2.158   3.795 -26.691  0.00  0.00    +0.233 N 
ATOM     19  H   UNL     1      -1.702   4.692 -26.859  0.00  0.00    +0.202 HD
ATOM     20  H   UNL     1      -2.001   3.054 -27.375  0.00  0.00    +0.202 HD
ATOM     21  C   UNL     1      -1.626   3.394 -25.575  0.00  0.00    +0.099 C 
ATOM     22  C   UNL     1      -0.360   3.100 -25.526  0.00  0.00    +0.095 C 
ATOM     23  C   UNL     1      -2.562   2.780 -22.322  0.00  0.00    +0.174 A 
ATOM     24  O   UNL     1       1.515   1.528 -20.962  0.00  0.00    -0.453 OA
ATOM     25  C   UNL     1       0.172   2.699 -24.410  0.00  0.00    -0.030 A 
ENDROOT
TORSDOF 0
ENDMDL
MODEL 4
REMARK VINA RESULT:    -8.936      2.513      5.713
REMARK INTER + INTRA:          -8.936
REMARK INTER:                  -8.936
REMARK INTRA:                   0.000
REMARK UNBOUND:                 0.000
REMARK  Name = ZINC000000338150
REMARK  0 active torsions:
REMARK  status: ('A' for Active; 'I' for Inactive)
REMARK                            x       y       z     vdW  Elec       q    Type
REMARK                         _______ _______ _______ _____ _____    ______ ____
ROOT
ATOM      1  C   UNL     1      -3.552   3.861 -26.354  0.00  0.00    +0.008 A 
ATOM      2  C   UNL     1      -4.731   3.967 -25.819  0.00  0.00    +0.050 A 
ATOM      3  C   UNL     1      -4.889   3.760 -24.545  0.00  0.00    +0.167 A 
ATOM      4  C   UNL     1      -3.865   3.446 -23.807  0.00  0.00    +0.174 A 
ATOM      5  O   UNL     1      -4.282   3.294 -22.585  0.00  0.00    -0.452 OA
ATOM      6  C   UNL     1      -5.564   3.513 -22.568  0.00  0.00    +0.466 C 
ATOM      7  C   UNL     1      -2.685   3.341 -24.343  0.00  0.00    +0.035 A 
ATOM      8  C   UNL     1      -1.662   3.027 -23.604  0.00  0.00    +0.040 A 
ATOM      9  C   UNL     1      -0.482   2.921 -24.140  0.00  0.00    +0.015 A 
ATOM     10  C   UNL     1       0.542   2.608 -23.402  0.00  0.00    -0.030 A 
ATOM     11  C   UNL     1       0.385   2.401 -22.128  0.00  0.00    +0.054 A 
ATOM     12  C   UNL     1      -0.795   2.507 -21.593  0.00  0.00    +0.167 A 
ATOM     13  O   UNL     1      -1.212   2.354 -20.371  0.00  0.00    -0.453 OA
ATOM     14  C   UNL     1      -2.494   2.573 -20.354  0.00  0.00    +0.466 C 
ATOM     15  O   UNL     1      -2.868   2.861 -21.565  0.00  0.00    -0.452 OA
ATOM     16  C   UNL     1       1.721   2.502 -23.938  0.00  0.00    +0.086 C 
ATOM     17  C   UNL     1       1.878   2.710 -25.212  0.00  0.00    +0.134 C 
ATOM     18  N   UNL     1       0.854   3.023 -25.949  0.00  0.00    +0.233 N 
ATOM     19  H   UNL     1       0.758   2.219 -26.571  0.00  0.00    +0.202 HD
ATOM     20  H   UNL     1       1.065   3.924 -26.378  0.00  0.00    +0.202 HD
ATOM     21  C   UNL     1      -0.326   3.129 -25.414  0.00  0.00    +0.099 C 
ATOM     22  C   UNL     1      -1.349   3.442 -26.152  0.00  0.00    +0.095 C 
ATOM     23  C   UNL     1      -1.818   2.820 -22.330  0.00  0.00    +0.174 A 
ATOM     24  O   UNL     1      -5.938   3.801 -23.779  0.00  0.00    -0.453 OA
ATOM     25  C   UNL     1      -2.529   3.548 -25.617  0.00  0.00    -0.030 A 
ENDROOT
TORSDOF 0
ENDMDL
MODEL 5
REMARK VINA RESULT:    -8.912      2.466      5.368
REMARK INTER + INTRA:          -8.912
REMARK INTER:                  -8.912
REMARK INTRA:                   0.000
REMARK UNBOUND:                 0.000
REMARK  Name = ZINC000000338150
REMARK  0 active torsions:
REMARK  status: ('A' for Active; 'I' for Inactive)
REMARK                            x       y       z     vdW  Elec       q    Type
REMARK                         _______ _______ _______ _____ _____    ______ ____
ROOT
ATOM      1  C   UNL     1      -2.032   3.728 -26.642  0.00  0.00    +0.008 A 
ATOM      2  C   UNL     1      -3.299   4.015 -26.690  0.00  0.00    +0.050 A 
ATOM      3  C   UNL     1      -4.028   3.924 -25.617  0.00  0.00    +0.167 A 
ATOM      4  C   UNL     1      -3.488   3.545 -24.496  0.00  0.00    +0.174 A 
ATOM      5  O   UNL     1      -4.417   3.535 -23.586  0.00  0.00    -0.452 OA
ATOM      6  C   UNL     1      -5.530   3.908 -24.144  0.00  0.00    +0.466 C 
ATOM      7  C   UNL     1      -2.221   3.258 -24.449  0.00  0.00    +0.035 A 
ATOM      8  C   UNL     1      -1.682   2.880 -23.327  0.00  0.00    +0.040 A 
ATOM      9  C   UNL     1      -0.414   2.593 -23.280  0.00  0.00    +0.015 A 
ATOM     10  C   UNL     1       0.125   2.215 -22.159  0.00  0.00    -0.030 A 
ATOM     11  C   UNL     1      -0.603   2.123 -21.086  0.00  0.00    +0.054 A 
ATOM     12  C   UNL     1      -1.870   2.410 -21.134  0.00  0.00    +0.167 A 
ATOM     13  O   UNL     1      -2.798   2.400 -20.224  0.00  0.00    -0.453 OA
ATOM     14  C   UNL     1      -3.912   2.773 -20.783  0.00  0.00    +0.466 C 
ATOM     15  O   UNL     1      -3.672   3.013 -22.037  0.00  0.00    -0.452 OA
ATOM     16  C   UNL     1       1.392   1.928 -22.112  0.00  0.00    +0.086 C 
ATOM     17  C   UNL     1       2.120   2.019 -23.185  0.00  0.00    +0.134 C 
ATOM     18  N   UNL     1       1.580   2.398 -24.306  0.00  0.00    +0.233 N 
ATOM     19  H   UNL     1       1.655   1.568 -24.894  0.00  0.00    +0.202 HD
ATOM     20  H   UNL     1       2.083   3.233 -24.607  0.00  0.00    +0.202 HD
ATOM     21  C   UNL     1       0.313   2.685 -24.354  0.00  0.00    +0.099 C 
ATOM     22  C   UNL     1      -0.227   3.063 -25.474  0.00  0.00    +0.095 C 
ATOM     23  C   UNL     1      -2.409   2.788 -22.254  0.00  0.00    +0.174 A 
ATOM     24  O   UNL     1      -5.290   4.148 -25.399  0.00  0.00    -0.453 OA
ATOM     25  C   UNL     1      -1.493   3.350 -25.522  0.00  0.00    -0.030 A 
ENDROOT
TORSDOF 0
ENDMDL
MODEL 6
REMARK VINA RESULT:    -8.565      1.523      2.697
REMARK INTER + INTRA:          -8.565
REMARK INTER:                  -8.565
REMARK INTRA:                   0.000
REMARK UNBOUND:                 0.000
REMARK  Name = ZINC000000338150
REMARK  0 active torsions:
REMARK  status: ('A' for Active; 'I' for Inactive)
REMARK                            x       y       z     vdW  Elec       q    Type
REMARK                         _______ _______ _______ _____ _____    ______ ____
ROOT
ATOM      1  C   UNL     1       1.678   1.205 -20.421  0.00  0.00    +0.008 A 
ATOM      2  C   UNL     1       2.913   1.249 -20.823  0.00  0.00    +0.050 A 
ATOM      3  C   UNL     1       3.205   1.785 -21.971  0.00  0.00    +0.167 A 
ATOM      4  C   UNL     1       2.260   2.277 -22.718  0.00  0.00    +0.174 A 
ATOM      5  O   UNL     1       2.806   2.747 -23.799  0.00  0.00    -0.452 OA
ATOM      6  C   UNL     1       4.088   2.547 -23.722  0.00  0.00    +0.466 C 
ATOM      7  C   UNL     1       1.024   2.232 -22.315  0.00  0.00    +0.035 A 
ATOM      8  C   UNL     1       0.080   2.724 -23.061  0.00  0.00    +0.040 A 
ATOM      9  C   UNL     1      -1.156   2.680 -22.658  0.00  0.00    +0.015 A 
ATOM     10  C   UNL     1      -2.101   3.172 -23.404  0.00  0.00    -0.030 A 
ATOM     11  C   UNL     1      -1.809   3.707 -24.553  0.00  0.00    +0.054 A 
ATOM     12  C   UNL     1      -0.574   3.751 -24.955  0.00  0.00    +0.167 A 
ATOM     13  O   UNL     1      -0.028   4.222 -26.036  0.00  0.00    -0.453 OA
ATOM     14  C   UNL     1       1.254   4.021 -25.959  0.00  0.00    +0.466 C 
ATOM     15  O   UNL     1       1.501   3.427 -24.830  0.00  0.00    -0.452 OA
ATOM     16  C   UNL     1      -3.336   3.127 -23.002  0.00  0.00    +0.086 C 
ATOM     17  C   UNL     1      -3.627   2.591 -21.853  0.00  0.00    +0.134 C 
ATOM     18  N   UNL     1      -2.681   2.100 -21.108  0.00  0.00    +0.233 N 
ATOM     19  H   UNL     1      -2.888   1.101 -21.095  0.00  0.00    +0.202 HD
ATOM     20  H   UNL     1      -2.720   2.598 -20.218  0.00  0.00    +0.202 HD
ATOM     21  C   UNL     1      -1.446   2.144 -21.510  0.00  0.00    +0.099 C 
ATOM     22  C   UNL     1      -0.501   1.652 -20.765  0.00  0.00    +0.095 C 
ATOM     23  C   UNL     1       0.370   3.260 -24.209  0.00  0.00    +0.174 A 
ATOM     24  O   UNL     1       4.335   1.952 -22.593  0.00  0.00    -0.453 OA
ATOM     25  C   UNL     1       0.734   1.697 -21.166  0.00  0.00    -0.030 A 
ENDROOT
TORSDOF 0
ENDMDL
MODEL 7
REMARK VINA RESULT:    -8.337      3.671      6.912
REMARK INTER + INTRA:          -8.337
REMARK INTER:                  -8.337
REMARK INTRA:                   0.000
REMARK UNBOUND:                 0.000
REMARK  Name = ZINC000000338150
REMARK  0 active torsions:
REMARK  status: ('A' for Active; 'I' for Inactive)
REMARK                            x       y       z     vdW  Elec       q    Type
REMARK                         _______ _______ _______ _____ _____    ______ ____
ROOT
ATOM      1  C   UNL     1       0.283   5.641 -23.283  0.00  0.00    +0.008 A 
ATOM      2  C   UNL     1      -0.804   4.929 -23.310  0.00  0.00    +0.050 A 
ATOM      3  C   UNL     1      -0.739   3.637 -23.172  0.00  0.00    +0.167 A 
ATOM      4  C   UNL     1       0.413   3.058 -23.008  0.00  0.00    +0.174 A 
ATOM      5  O   UNL     1       0.209   1.780 -22.896  0.00  0.00    -0.452 OA
ATOM      6  C   UNL     1      -1.070   1.567 -22.991  0.00  0.00    +0.466 C 
ATOM      7  C   UNL     1       1.500   3.771 -22.981  0.00  0.00    +0.035 A 
ATOM      8  C   UNL     1       2.653   3.192 -22.816  0.00  0.00    +0.040 A 
ATOM      9  C   UNL     1       3.740   3.905 -22.790  0.00  0.00    +0.015 A 
ATOM     10  C   UNL     1       4.893   3.326 -22.625  0.00  0.00    -0.030 A 
ATOM     11  C   UNL     1       4.958   2.035 -22.488  0.00  0.00    +0.054 A 
ATOM     12  C   UNL     1       3.871   1.323 -22.515  0.00  0.00    +0.167 A 
ATOM     13  O   UNL     1       3.667   0.045 -22.403  0.00  0.00    -0.453 OA
ATOM     14  C   UNL     1       2.387  -0.168 -22.498  0.00  0.00    +0.466 C 
ATOM     15  O   UNL     1       1.801   0.980 -22.669  0.00  0.00    -0.452 OA
ATOM     16  C   UNL     1       5.980   4.039 -22.599  0.00  0.00    +0.086 C 
ATOM     17  C   UNL     1       5.914   5.330 -22.737  0.00  0.00    +0.134 C 
ATOM     18  N   UNL     1       4.762   5.908 -22.901  0.00  0.00    +0.233 N 
ATOM     19  H   UNL     1       4.820   6.283 -23.848  0.00  0.00    +0.202 HD
ATOM     20  H   UNL     1       4.657   6.578 -22.138  0.00  0.00    +0.202 HD
ATOM     21  C   UNL     1       3.675   5.196 -22.928  0.00  0.00    +0.099 C 
ATOM     22  C   UNL     1       2.522   5.774 -23.092  0.00  0.00    +0.095 C 
ATOM     23  C   UNL     1       2.719   1.901 -22.679  0.00  0.00    +0.174 A 
ATOM     24  O   UNL     1      -1.656   2.715 -23.162  0.00  0.00    -0.453 OA
ATOM     25  C   UNL     1       1.435   5.062 -23.119  0.00  0.00    -0.030 A 
ENDROOT
TORSDOF 0
ENDMDL
MODEL 8
REMARK VINA RESULT:    -7.816      3.663      5.787
REMARK INTER + INTRA:          -7.816
REMARK INTER:                  -7.816
REMARK INTRA:                   0.000
REMARK UNBOUND:                 0.000
REMARK  Name = ZINC000000338150
REMARK  0 active torsions:
REMARK  status: ('A' for Active; 'I' for Inactive)
REMARK                            x       y       z     vdW  Elec       q    Type
REMARK                         _______ _______ _______ _____ _____    ______ ____
ROOT
ATOM      1  C   UNL     1       4.524   6.038 -22.889  0.00  0.00    +0.008 A 
ATOM      2  C   UNL     1       5.673   5.471 -22.672  0.00  0.00    +0.050 A 
ATOM      3  C   UNL     1       5.740   4.185 -22.493  0.00  0.00    +0.167 A 
ATOM      4  C   UNL     1       4.657   3.466 -22.531  0.00  0.00    +0.174 A 
ATOM      5  O   UNL     1       4.989   2.226 -22.326  0.00  0.00    -0.452 OA
ATOM      6  C   UNL     1       6.278   2.178 -22.161  0.00  0.00    +0.466 C 
ATOM      7  C   UNL     1       3.508   4.034 -22.748  0.00  0.00    +0.035 A 
ATOM      8  C   UNL     1       2.424   3.315 -22.786  0.00  0.00    +0.040 A 
ATOM      9  C   UNL     1       1.275   3.883 -23.002  0.00  0.00    +0.015 A 
ATOM     10  C   UNL     1       0.192   3.165 -23.040  0.00  0.00    -0.030 A 
ATOM     11  C   UNL     1       0.259   1.879 -22.861  0.00  0.00    +0.054 A 
ATOM     12  C   UNL     1       1.408   1.311 -22.645  0.00  0.00    +0.167 A 
ATOM     13  O   UNL     1       1.741   0.072 -22.439  0.00  0.00    -0.453 OA
ATOM     14  C   UNL     1       3.030   0.024 -22.274  0.00  0.00    +0.466 C 
ATOM     15  O   UNL     1       3.493   1.234 -22.378  0.00  0.00    -0.452 OA
ATOM     16  C   UNL     1      -0.957   3.733 -23.257  0.00  0.00    +0.086 C 
ATOM     17  C   UNL     1      -1.023   5.019 -23.436  0.00  0.00    +0.134 C 
ATOM     18  N   UNL     1       0.060   5.737 -23.398  0.00  0.00    +0.233 N 
ATOM     19  H   UNL     1      -0.073   6.319 -22.571  0.00  0.00    +0.202 HD
ATOM     20  H   UNL     1       0.130   6.210 -24.298  0.00  0.00    +0.202 HD
ATOM     21  C   UNL     1       1.209   5.169 -23.181  0.00  0.00    +0.099 C 
ATOM     22  C   UNL     1       2.292   5.887 -23.143  0.00  0.00    +0.095 C 
ATOM     23  C   UNL     1       2.491   2.029 -22.607  0.00  0.00    +0.174 A 
ATOM     24  O   UNL     1       6.742   3.388 -22.264  0.00  0.00    -0.453 OA
ATOM     25  C   UNL     1       3.442   5.320 -22.926  0.00  0.00    -0.030 A 
ENDROOT
TORSDOF 0
ENDMDL
MODEL 9
REMARK VINA RESULT:    -7.625      3.376      5.172
REMARK INTER + INTRA:          -7.625
REMARK INTER:                  -7.625
REMARK INTRA:                   0.000
REMARK UNBOUND:                 0.000
REMARK  Name = ZINC000000338150
REMARK  0 active torsions:
REMARK  status: ('A' for Active; 'I' for Inactive)
REMARK                            x       y       z     vdW  Elec       q    Type
REMARK                         _______ _______ _______ _____ _____    ______ ____
ROOT
ATOM      1  C   UNL     1       3.166   0.214 -21.603  0.00  0.00    +0.008 A 
ATOM      2  C   UNL     1       4.410   0.449 -21.310  0.00  0.00    +0.050 A 
ATOM      3  C   UNL     1       4.899   1.644 -21.461  0.00  0.00    +0.167 A 
ATOM      4  C   UNL     1       4.142   2.604 -21.906  0.00  0.00    +0.174 A 
ATOM      5  O   UNL     1       4.859   3.686 -21.966  0.00  0.00    -0.452 OA
ATOM      6  C   UNL     1       6.060   3.396 -21.558  0.00  0.00    +0.466 C 
ATOM      7  C   UNL     1       2.898   2.368 -22.199  0.00  0.00    +0.035 A 
ATOM      8  C   UNL     1       2.141   3.328 -22.644  0.00  0.00    +0.040 A 
ATOM      9  C   UNL     1       0.897   3.091 -22.937  0.00  0.00    +0.015 A 
ATOM     10  C   UNL     1       0.140   4.051 -23.382  0.00  0.00    -0.030 A 
ATOM     11  C   UNL     1       0.629   5.246 -23.533  0.00  0.00    +0.054 A 
ATOM     12  C   UNL     1       1.873   5.482 -23.240  0.00  0.00    +0.167 A 
ATOM     13  O   UNL     1       2.590   6.564 -23.299  0.00  0.00    -0.453 OA
ATOM     14  C   UNL     1       3.791   6.274 -22.892  0.00  0.00    +0.466 C 
ATOM     15  O   UNL     1       3.815   5.012 -22.580  0.00  0.00    -0.452 OA
ATOM     16  C   UNL     1      -1.104   3.815 -23.675  0.00  0.00    +0.086 C 
ATOM     17  C   UNL     1      -1.592   2.619 -23.523  0.00  0.00    +0.134 C 
ATOM     18  N   UNL     1      -0.835   1.660 -23.078  0.00  0.00    +0.233 N 
ATOM     19  H   UNL     1      -0.772   1.024 -23.873  0.00  0.00    +0.202 HD
ATOM     20  H   UNL     1      -1.276   1.307 -22.229  0.00  0.00    +0.202 HD
ATOM     21  C   UNL     1       0.409   1.896 -22.785  0.00  0.00    +0.099 C 
ATOM     22  C   UNL     1       1.166   0.937 -22.341  0.00  0.00    +0.095 C 
ATOM     23  C   UNL     1       2.629   4.523 -22.795  0.00  0.00    +0.174 A 
ATOM     24  O   UNL     1       6.084   2.134 -21.246  0.00  0.00    -0.453 OA
ATOM     25  C   UNL     1       2.410   1.172 -22.047  0.00  0.00    -0.030 A 
ENDROOT
TORSDOF 0
ENDMDL
