MODEL 1
REMARK VINA RESULT:    -6.682      0.000      0.000
REMARK INTER + INTRA:          -8.065
REMARK INTER:                  -7.610
REMARK INTRA:                  -0.455
REMARK UNBOUND:                -0.406
REMARK  Name = ZINC000001587602
REMARK  3 active torsions:
REMARK  status: ('A' for Active; 'I' for Inactive)
REMARK    1  A    between atoms: C_2  and  C_4
REMARK    2  A    between atoms: C_8  and  O_9
REMARK    3  A    between atoms: C_10  and  C_11
REMARK                            x       y       z     vdW  Elec       q    Type
REMARK                         _______ _______ _______ _____ _____    ______ ____
ROOT
ATOM      1  C   UNL     1      -2.991   2.931 -22.137  0.00  0.00    +0.155 A 
ATOM      2  C   UNL     1      -1.771   2.531 -22.345  0.00  0.00    +0.102 A 
ATOM      3  C   UNL     1      -1.268   2.577 -23.542  0.00  0.00    +0.227 A 
ATOM      4  C   UNL     1      -1.984   3.022 -24.532  0.00  0.00    +0.209 A 
ATOM      5  C   UNL     1      -3.204   3.422 -24.324  0.00  0.00    +0.196 A 
ATOM      6  O   UNL     1      -0.049   2.177 -23.751  0.00  0.00    -0.284 OA
ATOM      7  O   UNL     1      -3.707   3.376 -23.126  0.00  0.00    -0.449 OA
ENDROOT
BRANCH   1   9
ATOM      8  O   UNL     1      -3.019   3.652 -20.004  0.00  0.00    -0.542 OA
ATOM      9  C   UNL     1      -3.494   2.885 -20.939  0.00  0.00    +0.107 C 
ATOM     10  O   UNL     1      -4.474   2.072 -20.677  0.00  0.00    -0.542 OA
ENDBRANCH   1   9
BRANCH   5  11
ATOM     11  C   UNL     1      -3.919   3.867 -25.313  0.00  0.00    +0.111 C 
ATOM     12  O   UNL     1      -4.055   5.147 -25.494  0.00  0.00    -0.541 OA
ATOM     13  O   UNL     1      -4.499   3.032 -26.123  0.00  0.00    -0.541 OA
ENDBRANCH   5  11
BRANCH   4  14
ATOM     14  O   UNL     1      -1.481   3.068 -25.730  0.00  0.00    -0.501 OA
ATOM     15  H   UNL     1      -1.901   3.577 -26.395  0.00  0.00    +0.292 HD
ENDBRANCH   4  14
TORSDOF 3
ENDMDL
MODEL 2
REMARK VINA RESULT:    -6.569      1.273      3.201
REMARK INTER + INTRA:          -7.935
REMARK INTER:                  -7.434
REMARK INTRA:                  -0.501
REMARK UNBOUND:                -0.406
REMARK  Name = ZINC000001587602
REMARK  3 active torsions:
REMARK  status: ('A' for Active; 'I' for Inactive)
REMARK    1  A    between atoms: C_2  and  C_4
REMARK    2  A    between atoms: C_8  and  O_9
REMARK    3  A    between atoms: C_10  and  C_11
REMARK                            x       y       z     vdW  Elec       q    Type
REMARK                         _______ _______ _______ _____ _____    ______ ____
ROOT
ATOM      1  C   UNL     1      -3.632   3.383 -23.214  0.00  0.00    +0.155 A 
ATOM      2  C   UNL     1      -3.965   3.568 -24.458  0.00  0.00    +0.102 A 
ATOM      3  C   UNL     1      -3.053   3.557 -25.383  0.00  0.00    +0.227 A 
ATOM      4  C   UNL     1      -1.808   3.361 -25.066  0.00  0.00    +0.209 A 
ATOM      5  C   UNL     1      -1.475   3.175 -23.823  0.00  0.00    +0.196 A 
ATOM      6  O   UNL     1      -3.385   3.742 -26.626  0.00  0.00    -0.284 OA
ATOM      7  O   UNL     1      -2.387   3.186 -22.897  0.00  0.00    -0.449 OA
ENDROOT
BRANCH   1   9
ATOM      8  O   UNL     1      -5.800   3.482 -22.614  0.00  0.00    -0.542 OA
ATOM      9  C   UNL     1      -4.545   3.394 -22.289  0.00  0.00    +0.107 C 
ATOM     10  O   UNL     1      -4.201   3.316 -21.037  0.00  0.00    -0.542 OA
ENDBRANCH   1   9
BRANCH   5  11
ATOM     11  C   UNL     1      -0.229   2.979 -23.506  0.00  0.00    +0.111 C 
ATOM     12  O   UNL     1       0.531   3.988 -23.203  0.00  0.00    -0.541 OA
ATOM     13  O   UNL     1       0.255   1.773 -23.493  0.00  0.00    -0.541 OA
ENDBRANCH   5  11
BRANCH   4  14
ATOM     14  O   UNL     1      -0.894   3.349 -25.992  0.00  0.00    -0.501 OA
ATOM     15  H   UNL     1      -0.152   3.917 -25.923  0.00  0.00    +0.292 HD
ENDBRANCH   4  14
TORSDOF 3
ENDMDL
MODEL 3
REMARK VINA RESULT:    -6.556      1.074      3.229
REMARK INTER + INTRA:          -7.920
REMARK INTER:                  -7.427
REMARK INTRA:                  -0.492
REMARK UNBOUND:                -0.406
REMARK  Name = ZINC000001587602
REMARK  3 active torsions:
REMARK  status: ('A' for Active; 'I' for Inactive)
REMARK    1  A    between atoms: C_2  and  C_4
REMARK    2  A    between atoms: C_8  and  O_9
REMARK    3  A    between atoms: C_10  and  C_11
REMARK                            x       y       z     vdW  Elec       q    Type
REMARK                         _______ _______ _______ _____ _____    ______ ____
ROOT
ATOM      1  C   UNL     1      -1.890   2.562 -23.114  0.00  0.00    +0.155 A 
ATOM      2  C   UNL     1      -2.492   2.476 -21.964  0.00  0.00    +0.102 A 
ATOM      3  C   UNL     1      -3.722   2.876 -21.843  0.00  0.00    +0.227 A 
ATOM      4  C   UNL     1      -4.351   3.363 -22.871  0.00  0.00    +0.209 A 
ATOM      5  C   UNL     1      -3.750   3.449 -24.020  0.00  0.00    +0.196 A 
ATOM      6  O   UNL     1      -4.324   2.789 -20.694  0.00  0.00    -0.284 OA
ATOM      7  O   UNL     1      -2.520   3.049 -24.141  0.00  0.00    -0.449 OA
ENDROOT
BRANCH   1   9
ATOM      8  O   UNL     1      -0.235   1.147 -22.544  0.00  0.00    -0.542 OA
ATOM      9  C   UNL     1      -0.659   2.162 -23.235  0.00  0.00    +0.107 C 
ATOM     10  O   UNL     1       0.147   2.778 -24.048  0.00  0.00    -0.542 OA
ENDBRANCH   1   9
BRANCH   5  11
ATOM     11  C   UNL     1      -4.380   3.936 -25.048  0.00  0.00    +0.111 C 
ATOM     12  O   UNL     1      -4.264   5.196 -25.345  0.00  0.00    -0.541 OA
ATOM     13  O   UNL     1      -5.126   3.162 -25.779  0.00  0.00    -0.541 OA
ENDBRANCH   5  11
BRANCH   4  14
ATOM     14  O   UNL     1      -5.583   3.763 -22.750  0.00  0.00    -0.501 OA
ATOM     15  H   UNL     1      -5.984   3.792 -21.904  0.00  0.00    +0.292 HD
ENDBRANCH   4  14
TORSDOF 3
ENDMDL
MODEL 4
REMARK VINA RESULT:    -6.505      0.748      3.941
REMARK INTER + INTRA:          -7.862
REMARK INTER:                  -7.457
REMARK INTRA:                  -0.405
REMARK UNBOUND:                -0.406
REMARK  Name = ZINC000001587602
REMARK  3 active torsions:
REMARK  status: ('A' for Active; 'I' for Inactive)
REMARK    1  A    between atoms: C_2  and  C_4
REMARK    2  A    between atoms: C_8  and  O_9
REMARK    3  A    between atoms: C_10  and  C_11
REMARK                            x       y       z     vdW  Elec       q    Type
REMARK                         _______ _______ _______ _____ _____    ______ ____
ROOT
ATOM      1  C   UNL     1      -3.270   3.300 -24.309  0.00  0.00    +0.155 A 
ATOM      2  C   UNL     1      -2.050   2.892 -24.503  0.00  0.00    +0.102 A 
ATOM      3  C   UNL     1      -1.336   2.476 -23.500  0.00  0.00    +0.227 A 
ATOM      4  C   UNL     1      -1.841   2.468 -22.302  0.00  0.00    +0.209 A 
ATOM      5  C   UNL     1      -3.060   2.876 -22.107  0.00  0.00    +0.196 A 
ATOM      6  O   UNL     1      -0.118   2.068 -23.694  0.00  0.00    -0.284 OA
ATOM      7  O   UNL     1      -3.774   3.291 -23.110  0.00  0.00    -0.449 OA
ENDROOT
BRANCH   1   9
ATOM      8  O   UNL     1      -4.165   2.946 -26.344  0.00  0.00    -0.542 OA
ATOM      9  C   UNL     1      -3.984   3.715 -25.312  0.00  0.00    +0.107 C 
ATOM     10  O   UNL     1      -4.518   4.900 -25.283  0.00  0.00    -0.542 OA
ENDBRANCH   1   9
BRANCH   5  11
ATOM     11  C   UNL     1      -3.564   2.868 -20.909  0.00  0.00    +0.111 C 
ATOM     12  O   UNL     1      -3.100   3.675 -20.003  0.00  0.00    -0.541 OA
ATOM     13  O   UNL     1      -4.534   2.052 -20.618  0.00  0.00    -0.541 OA
ENDBRANCH   5  11
BRANCH   4  14
ATOM     14  O   UNL     1      -1.127   2.052 -21.298  0.00  0.00    -0.501 OA
ATOM     15  H   UNL     1      -0.939   2.631 -20.586  0.00  0.00    +0.292 HD
ENDBRANCH   4  14
TORSDOF 3
ENDMDL
MODEL 5
REMARK VINA RESULT:    -6.308      1.111      4.202
REMARK INTER + INTRA:          -7.636
REMARK INTER:                  -7.259
REMARK INTRA:                  -0.377
REMARK UNBOUND:                -0.406
REMARK  Name = ZINC000001587602
REMARK  3 active torsions:
REMARK  status: ('A' for Active; 'I' for Inactive)
REMARK    1  A    between atoms: C_2  and  C_4
REMARK    2  A    between atoms: C_8  and  O_9
REMARK    3  A    between atoms: C_10  and  C_11
REMARK                            x       y       z     vdW  Elec       q    Type
REMARK                         _______ _______ _______ _____ _____    ______ ____
ROOT
ATOM      1  C   UNL     1      -1.823   3.127 -23.968  0.00  0.00    +0.155 A 
ATOM      2  C   UNL     1      -2.539   3.659 -24.914  0.00  0.00    +0.102 A 
ATOM      3  C   UNL     1      -3.788   3.949 -24.700  0.00  0.00    +0.227 A 
ATOM      4  C   UNL     1      -4.321   3.708 -23.539  0.00  0.00    +0.209 A 
ATOM      5  C   UNL     1      -3.605   3.176 -22.593  0.00  0.00    +0.196 A 
ATOM      6  O   UNL     1      -4.503   4.481 -25.645  0.00  0.00    -0.284 OA
ATOM      7  O   UNL     1      -2.357   2.886 -22.807  0.00  0.00    -0.449 OA
ENDROOT
BRANCH   1   9
ATOM      8  O   UNL     1       0.098   3.487 -25.084  0.00  0.00    -0.542 OA
ATOM      9  C   UNL     1      -0.575   2.837 -24.182  0.00  0.00    +0.107 C 
ATOM     10  O   UNL     1       0.001   1.897 -23.494  0.00  0.00    -0.542 OA
ENDBRANCH   1   9
BRANCH   5  11
ATOM     11  C   UNL     1      -4.139   2.934 -21.432  0.00  0.00    +0.111 C 
ATOM     12  O   UNL     1      -5.200   2.189 -21.347  0.00  0.00    -0.541 OA
ATOM     13  O   UNL     1      -3.612   3.439 -20.357  0.00  0.00    -0.541 OA
ENDBRANCH   5  11
BRANCH   4  14
ATOM     14  O   UNL     1      -5.570   3.998 -23.324  0.00  0.00    -0.501 OA
ATOM     15  H   UNL     1      -6.199   3.311 -23.219  0.00  0.00    +0.292 HD
ENDBRANCH   4  14
TORSDOF 3
ENDMDL
MODEL 6
REMARK VINA RESULT:    -6.268      1.578      4.092
REMARK INTER + INTRA:          -7.591
REMARK INTER:                  -7.178
REMARK INTRA:                  -0.412
REMARK UNBOUND:                -0.406
REMARK  Name = ZINC000001587602
REMARK  3 active torsions:
REMARK  status: ('A' for Active; 'I' for Inactive)
REMARK    1  A    between atoms: C_2  and  C_4
REMARK    2  A    between atoms: C_8  and  O_9
REMARK    3  A    between atoms: C_10  and  C_11
REMARK                            x       y       z     vdW  Elec       q    Type
REMARK                         _______ _______ _______ _____ _____    ______ ____
ROOT
ATOM      1  C   UNL     1      -0.462   1.979 -22.250  0.00  0.00    +0.155 A 
ATOM      2  C   UNL     1      -0.724   2.286 -23.486  0.00  0.00    +0.102 A 
ATOM      3  C   UNL     1      -1.883   2.781 -23.801  0.00  0.00    +0.227 A 
ATOM      4  C   UNL     1      -2.781   2.969 -22.881  0.00  0.00    +0.209 A 
ATOM      5  C   UNL     1      -2.520   2.662 -21.645  0.00  0.00    +0.196 A 
ATOM      6  O   UNL     1      -2.145   3.088 -25.037  0.00  0.00    -0.284 OA
ATOM      7  O   UNL     1      -1.361   2.167 -21.329  0.00  0.00    -0.449 OA
ENDROOT
BRANCH   1   9
ATOM      8  O   UNL     1       1.529   1.130 -22.868  0.00  0.00    -0.542 OA
ATOM      9  C   UNL     1       0.697   1.484 -21.934  0.00  0.00    +0.107 C 
ATOM     10  O   UNL     1       1.025   1.342 -20.684  0.00  0.00    -0.542 OA
ENDBRANCH   1   9
BRANCH   5  11
ATOM     11  C   UNL     1      -3.419   2.851 -20.725  0.00  0.00    +0.111 C 
ATOM     12  O   UNL     1      -4.525   2.168 -20.746  0.00  0.00    -0.541 OA
ATOM     13  O   UNL     1      -3.212   3.722 -19.782  0.00  0.00    -0.541 OA
ENDBRANCH   5  11
BRANCH   4  14
ATOM     14  O   UNL     1      -3.942   3.465 -23.196  0.00  0.00    -0.501 OA
ATOM     15  H   UNL     1      -4.726   3.027 -22.929  0.00  0.00    +0.292 HD
ENDBRANCH   4  14
TORSDOF 3
ENDMDL
MODEL 7
REMARK VINA RESULT:    -6.208      3.569      5.175
REMARK INTER + INTRA:          -7.522
REMARK INTER:                  -7.035
REMARK INTRA:                  -0.487
REMARK UNBOUND:                -0.406
REMARK  Name = ZINC000001587602
REMARK  3 active torsions:
REMARK  status: ('A' for Active; 'I' for Inactive)
REMARK    1  A    between atoms: C_2  and  C_4
REMARK    2  A    between atoms: C_8  and  O_9
REMARK    3  A    between atoms: C_10  and  C_11
REMARK                            x       y       z     vdW  Elec       q    Type
REMARK                         _______ _______ _______ _____ _____    ______ ____
ROOT
ATOM      1  C   UNL     1       2.318   1.982 -22.547  0.00  0.00    +0.155 A 
ATOM      2  C   UNL     1       3.256   2.883 -22.556  0.00  0.00    +0.102 A 
ATOM      3  C   UNL     1       2.987   4.097 -22.935  0.00  0.00    +0.227 A 
ATOM      4  C   UNL     1       1.781   4.409 -23.306  0.00  0.00    +0.209 A 
ATOM      5  C   UNL     1       0.843   3.509 -23.297  0.00  0.00    +0.196 A 
ATOM      6  O   UNL     1       3.924   4.997 -22.945  0.00  0.00    -0.284 OA
ATOM      7  O   UNL     1       1.112   2.296 -22.917  0.00  0.00    -0.449 OA
ENDROOT
BRANCH   1   9
ATOM      8  O   UNL     1       3.018   0.545 -20.962  0.00  0.00    -0.542 OA
ATOM      9  C   UNL     1       2.586   0.768 -22.167  0.00  0.00    +0.107 C 
ATOM     10  O   UNL     1       2.422  -0.222 -22.993  0.00  0.00    -0.542 OA
ENDBRANCH   1   9
BRANCH   5  11
ATOM     11  C   UNL     1      -0.363   3.823 -23.668  0.00  0.00    +0.111 C 
ATOM     12  O   UNL     1      -1.222   4.249 -22.791  0.00  0.00    -0.541 OA
ATOM     13  O   UNL     1      -0.708   3.711 -24.916  0.00  0.00    -0.541 OA
ENDBRANCH   5  11
BRANCH   4  14
ATOM     14  O   UNL     1       1.512   5.624 -23.686  0.00  0.00    -0.501 OA
ATOM     15  H   UNL     1       0.953   5.771 -24.424  0.00  0.00    +0.292 HD
ENDBRANCH   4  14
TORSDOF 3
ENDMDL
MODEL 8
REMARK VINA RESULT:    -6.148      3.242      5.130
REMARK INTER + INTRA:          -7.452
REMARK INTER:                  -7.046
REMARK INTRA:                  -0.406
REMARK UNBOUND:                -0.406
REMARK  Name = ZINC000001587602
REMARK  3 active torsions:
REMARK  status: ('A' for Active; 'I' for Inactive)
REMARK    1  A    between atoms: C_2  and  C_4
REMARK    2  A    between atoms: C_8  and  O_9
REMARK    3  A    between atoms: C_10  and  C_11
REMARK                            x       y       z     vdW  Elec       q    Type
REMARK                         _______ _______ _______ _____ _____    ______ ____
ROOT
ATOM      1  C   UNL     1       2.092   1.754 -21.928  0.00  0.00    +0.155 A 
ATOM      2  C   UNL     1       0.904   1.506 -21.459  0.00  0.00    +0.102 A 
ATOM      3  C   UNL     1      -0.146   1.761 -22.182  0.00  0.00    +0.227 A 
ATOM      4  C   UNL     1      -0.008   2.263 -23.373  0.00  0.00    +0.209 A 
ATOM      5  C   UNL     1       1.179   2.512 -23.841  0.00  0.00    +0.196 A 
ATOM      6  O   UNL     1      -1.332   1.513 -21.714  0.00  0.00    -0.284 OA
ATOM      7  O   UNL     1       2.228   2.257 -23.119  0.00  0.00    -0.449 OA
ENDROOT
BRANCH   1   9
ATOM      8  O   UNL     1       4.043   2.418 -21.021  0.00  0.00    -0.542 OA
ATOM      9  C   UNL     1       3.142   1.500 -21.205  0.00  0.00    +0.107 C 
ATOM     10  O   UNL     1       3.291   0.326 -20.667  0.00  0.00    -0.542 OA
ENDBRANCH   1   9
BRANCH   5  11
ATOM     11  C   UNL     1       1.315   3.014 -25.032  0.00  0.00    +0.111 C 
ATOM     12  O   UNL     1       0.923   4.229 -25.274  0.00  0.00    -0.541 OA
ATOM     13  O   UNL     1       1.844   2.301 -25.982  0.00  0.00    -0.541 OA
ENDBRANCH   5  11
BRANCH   4  14
ATOM     14  O   UNL     1      -1.059   2.518 -24.096  0.00  0.00    -0.501 OA
ATOM     15  H   UNL     1      -1.351   1.896 -24.733  0.00  0.00    +0.292 HD
ENDBRANCH   4  14
TORSDOF 3
ENDMDL
MODEL 9
REMARK VINA RESULT:    -6.124      2.537      4.945
REMARK INTER + INTRA:          -7.426
REMARK INTER:                  -6.944
REMARK INTRA:                  -0.482
REMARK UNBOUND:                -0.406
REMARK  Name = ZINC000001587602
REMARK  3 active torsions:
REMARK  status: ('A' for Active; 'I' for Inactive)
REMARK    1  A    between atoms: C_2  and  C_4
REMARK    2  A    between atoms: C_8  and  O_9
REMARK    3  A    between atoms: C_10  and  C_11
REMARK                            x       y       z     vdW  Elec       q    Type
REMARK                         _______ _______ _______ _____ _____    ______ ____
ROOT
ATOM      1  C   UNL     1      -0.901   2.829 -23.536  0.00  0.00    +0.155 A 
ATOM      2  C   UNL     1      -0.350   3.961 -23.863  0.00  0.00    +0.102 A 
ATOM      3  C   UNL     1       0.914   4.158 -23.634  0.00  0.00    +0.227 A 
ATOM      4  C   UNL     1       1.628   3.223 -23.079  0.00  0.00    +0.209 A 
ATOM      5  C   UNL     1       1.077   2.092 -22.752  0.00  0.00    +0.196 A 
ATOM      6  O   UNL     1       1.466   5.288 -23.961  0.00  0.00    -0.284 OA
ATOM      7  O   UNL     1      -0.187   1.895 -22.981  0.00  0.00    -0.449 OA
ENDROOT
BRANCH   1   9
ATOM      8  O   UNL     1      -2.597   2.529 -24.986  0.00  0.00    -0.542 OA
ATOM      9  C   UNL     1      -2.165   2.632 -23.765  0.00  0.00    +0.107 C 
ATOM     10  O   UNL     1      -2.998   2.537 -22.771  0.00  0.00    -0.542 OA
ENDBRANCH   1   9
BRANCH   5  11
ATOM     11  C   UNL     1       1.791   1.158 -22.197  0.00  0.00    +0.111 C 
ATOM     12  O   UNL     1       1.956   1.146 -20.909  0.00  0.00    -0.541 OA
ATOM     13  O   UNL     1       2.340   0.237 -22.932  0.00  0.00    -0.541 OA
ENDBRANCH   5  11
BRANCH   4  14
ATOM     14  O   UNL     1       2.893   3.420 -22.850  0.00  0.00    -0.501 OA
ATOM     15  H   UNL     1       3.329   2.930 -22.182  0.00  0.00    +0.292 HD
ENDBRANCH   4  14
TORSDOF 3
ENDMDL
