MODEL 1
REMARK VINA RESULT:    -9.146      0.000      0.000
REMARK INTER + INTRA:         -10.827
REMARK INTER:                 -10.923
REMARK INTRA:                   0.096
REMARK UNBOUND:                 0.458
REMARK  Name = ZINC000013380840
REMARK  7 active torsions:
REMARK  status: ('A' for Active; 'I' for Inactive)
REMARK    1  A    between atoms: C_1  and  O_2
REMARK    2  A    between atoms: O_2  and  C_3
REMARK    3  A    between atoms: C_9  and  O_10
REMARK    4  A    between atoms: O_10  and  C_11
REMARK    5  A    between atoms: C_11  and  C_12
REMARK    6  A    between atoms: C_14  and  C_15
REMARK    7  A    between atoms: C_14  and  C_16
REMARK                            x       y       z     vdW  Elec       q    Type
REMARK                         _______ _______ _______ _____ _____    ______ ____
ROOT
ATOM      1  C   UNL     1       3.043   2.887 -23.287  0.00  0.00    +0.142 A 
ATOM      2  C   UNL     1       3.068   2.097 -22.255  0.00  0.00    +0.066 A 
ATOM      3  C   UNL     1       4.035   1.712 -21.476  0.00  0.00    +0.053 A 
ATOM      4  C   UNL     1       3.539   0.910 -20.580  0.00  0.00    +0.196 A 
ATOM      5  O   UNL     1       2.264   0.800 -20.807  0.00  0.00    -0.459 OA
ATOM      6  C   UNL     1       1.973   1.532 -21.841  0.00  0.00    +0.183 A 
ATOM      7  C   UNL     1       0.854   1.759 -22.459  0.00  0.00    +0.207 A 
ATOM      8  C   UNL     1       0.826   2.549 -23.491  0.00  0.00    +0.188 A 
ATOM      9  O   UNL     1      -0.294   2.774 -24.108  0.00  0.00    -0.418 OA
ATOM     10  C   UNL     1      -0.323   3.565 -25.140  0.00  0.00    +0.337 A 
ATOM     11  C   UNL     1       0.774   4.129 -25.553  0.00  0.00    +0.093 A 
ATOM     12  C   UNL     1       1.895   3.904 -24.937  0.00  0.00    +0.022 A 
ATOM     13  O   UNL     1      -1.443   3.790 -25.757  0.00  0.00    -0.245 OA
ATOM     14  C   UNL     1       1.922   3.113 -23.904  0.00  0.00    +0.064 A 
ENDROOT
BRANCH   1  16
ATOM     15  C   UNL     1       4.575   4.528 -23.117  0.00  0.00    +0.277 C 
ATOM     16  O   UNL     1       4.139   3.451 -23.700  0.00  0.00    -0.494 OA
ENDBRANCH   1  16
BRANCH   7  17
ATOM     17  O   UNL     1      -0.244   1.194 -22.046  0.00  0.00    -0.482 OA
BRANCH  17  18
ATOM     18  C   UNL     1      -1.009   1.807 -21.191  0.00  0.00    +0.263 C 
BRANCH  18  19
ATOM     19  C   UNL     1      -2.161   2.281 -21.571  0.00  0.00    +0.188 C 
ATOM     20  O   UNL     1      -3.096   2.378 -22.470  0.00  0.00    -0.362 OA
ATOM     21  C   UNL     1      -3.213   3.000 -21.332  0.00  0.00    +0.094 C 
ATOM     22  C   UNL     1      -2.932   3.423 -20.136  0.00  0.00    +0.044 C 
ATOM     23  C   UNL     1      -4.367   3.574 -21.509  0.00  0.00    +0.044 C 
ENDBRANCH  18  19
ENDBRANCH  17  18
ENDBRANCH   7  17
TORSDOF 4
ENDMDL
MODEL 2
REMARK VINA RESULT:    -9.011      1.724      5.253
REMARK INTER + INTRA:         -10.661
REMARK INTER:                 -10.733
REMARK INTRA:                   0.072
REMARK UNBOUND:                 0.458
REMARK  Name = ZINC000013380840
REMARK  7 active torsions:
REMARK  status: ('A' for Active; 'I' for Inactive)
REMARK    1  A    between atoms: C_1  and  O_2
REMARK    2  A    between atoms: O_2  and  C_3
REMARK    3  A    between atoms: C_9  and  O_10
REMARK    4  A    between atoms: O_10  and  C_11
REMARK    5  A    between atoms: C_11  and  C_12
REMARK    6  A    between atoms: C_14  and  C_15
REMARK    7  A    between atoms: C_14  and  C_16
REMARK                            x       y       z     vdW  Elec       q    Type
REMARK                         _______ _______ _______ _____ _____    ______ ____
ROOT
ATOM      1  C   UNL     1      -2.604   2.622 -21.848  0.00  0.00    +0.142 A 
ATOM      2  C   UNL     1      -1.377   2.192 -21.842  0.00  0.00    +0.066 A 
ATOM      3  C   UNL     1      -0.643   1.666 -20.906  0.00  0.00    +0.053 A 
ATOM      4  C   UNL     1       0.527   1.402 -21.408  0.00  0.00    +0.196 A 
ATOM      5  O   UNL     1       0.515   1.765 -22.656  0.00  0.00    -0.459 OA
ATOM      6  C   UNL     1      -0.660   2.253 -22.924  0.00  0.00    +0.183 A 
ATOM      7  C   UNL     1      -1.171   2.744 -24.012  0.00  0.00    +0.207 A 
ATOM      8  C   UNL     1      -2.397   3.175 -24.021  0.00  0.00    +0.188 A 
ATOM      9  O   UNL     1      -2.905   3.666 -25.111  0.00  0.00    -0.418 OA
ATOM     10  C   UNL     1      -4.133   4.097 -25.121  0.00  0.00    +0.337 A 
ATOM     11  C   UNL     1      -4.848   4.036 -24.037  0.00  0.00    +0.093 A 
ATOM     12  C   UNL     1      -4.340   3.545 -22.946  0.00  0.00    +0.022 A 
ATOM     13  O   UNL     1      -4.641   4.588 -26.210  0.00  0.00    -0.245 OA
ATOM     14  C   UNL     1      -3.113   3.114 -22.938  0.00  0.00    +0.064 A 
ENDROOT
BRANCH   1  16
ATOM     15  C   UNL     1      -3.255   3.518 -19.888  0.00  0.00    +0.277 C 
ATOM     16  O   UNL     1      -3.319   2.561 -20.765  0.00  0.00    -0.494 OA
ENDBRANCH   1  16
BRANCH   7  17
ATOM     17  O   UNL     1      -0.454   2.806 -25.097  0.00  0.00    -0.482 OA
BRANCH  17  18
ATOM     18  C   UNL     1       0.336   3.818 -25.299  0.00  0.00    +0.263 C 
BRANCH  18  19
ATOM     19  C   UNL     1       1.515   3.845 -24.748  0.00  0.00    +0.188 C 
ATOM     20  O   UNL     1       2.727   3.379 -24.660  0.00  0.00    -0.362 OA
ATOM     21  C   UNL     1       2.341   4.352 -23.886  0.00  0.00    +0.094 C 
ATOM     22  C   UNL     1       1.579   5.257 -23.347  0.00  0.00    +0.044 C 
ATOM     23  C   UNL     1       3.435   4.547 -23.209  0.00  0.00    +0.044 C 
ENDBRANCH  18  19
ENDBRANCH  17  18
ENDBRANCH   7  17
TORSDOF 4
ENDMDL
MODEL 3
REMARK VINA RESULT:    -8.995      2.152      6.000
REMARK INTER + INTRA:         -10.641
REMARK INTER:                 -10.728
REMARK INTRA:                   0.087
REMARK UNBOUND:                 0.458
REMARK  Name = ZINC000013380840
REMARK  7 active torsions:
REMARK  status: ('A' for Active; 'I' for Inactive)
REMARK    1  A    between atoms: C_1  and  O_2
REMARK    2  A    between atoms: O_2  and  C_3
REMARK    3  A    between atoms: C_9  and  O_10
REMARK    4  A    between atoms: O_10  and  C_11
REMARK    5  A    between atoms: C_11  and  C_12
REMARK    6  A    between atoms: C_14  and  C_15
REMARK    7  A    between atoms: C_14  and  C_16
REMARK                            x       y       z     vdW  Elec       q    Type
REMARK                         _______ _______ _______ _____ _____    ______ ____
ROOT
ATOM      1  C   UNL     1      -4.676   3.579 -22.746  0.00  0.00    +0.142 A 
ATOM      2  C   UNL     1      -3.819   3.621 -21.770  0.00  0.00    +0.066 A 
ATOM      3  C   UNL     1      -3.970   3.653 -20.479  0.00  0.00    +0.053 A 
ATOM      4  C   UNL     1      -2.790   3.689 -19.933  0.00  0.00    +0.196 A 
ATOM      5  O   UNL     1      -1.909   3.679 -20.890  0.00  0.00    -0.459 OA
ATOM      6  C   UNL     1      -2.544   3.637 -22.023  0.00  0.00    +0.183 A 
ATOM      7  C   UNL     1      -2.128   3.611 -23.253  0.00  0.00    +0.207 A 
ATOM      8  C   UNL     1      -2.983   3.569 -24.231  0.00  0.00    +0.188 A 
ATOM      9  O   UNL     1      -2.564   3.544 -25.460  0.00  0.00    -0.418 OA
ATOM     10  C   UNL     1      -3.420   3.502 -26.440  0.00  0.00    +0.337 A 
ATOM     11  C   UNL     1      -4.695   3.485 -26.184  0.00  0.00    +0.093 A 
ATOM     12  C   UNL     1      -5.114   3.511 -24.955  0.00  0.00    +0.022 A 
ATOM     13  O   UNL     1      -3.001   3.476 -27.668  0.00  0.00    -0.245 OA
ATOM     14  C   UNL     1      -4.257   3.553 -23.977  0.00  0.00    +0.064 A 
ENDROOT
BRANCH   1  16
ATOM     15  C   UNL     1      -6.460   2.600 -21.782  0.00  0.00    +0.277 C 
ATOM     16  O   UNL     1      -5.950   3.563 -22.492  0.00  0.00    -0.494 OA
ENDBRANCH   1  16
BRANCH   7  17
ATOM     17  O   UNL     1      -0.852   3.627 -23.509  0.00  0.00    -0.482 OA
BRANCH  17  18
ATOM     18  C   UNL     1      -0.209   2.511 -23.686  0.00  0.00    +0.263 C 
BRANCH  18  19
ATOM     19  C   UNL     1       0.887   2.277 -23.024  0.00  0.00    +0.188 C 
ATOM     20  O   UNL     1       2.183   2.343 -22.935  0.00  0.00    -0.362 OA
ATOM     21  C   UNL     1       1.486   1.810 -21.973  0.00  0.00    +0.094 C 
ATOM     22  C   UNL     1       0.460   1.389 -21.295  0.00  0.00    +0.044 C 
ATOM     23  C   UNL     1       2.445   1.488 -21.154  0.00  0.00    +0.044 C 
ENDBRANCH  18  19
ENDBRANCH  17  18
ENDBRANCH   7  17
TORSDOF 4
ENDMDL
MODEL 4
REMARK VINA RESULT:    -8.898      1.580      6.222
REMARK INTER + INTRA:         -10.521
REMARK INTER:                 -10.817
REMARK INTRA:                   0.296
REMARK UNBOUND:                 0.458
REMARK  Name = ZINC000013380840
REMARK  7 active torsions:
REMARK  status: ('A' for Active; 'I' for Inactive)
REMARK    1  A    between atoms: C_1  and  O_2
REMARK    2  A    between atoms: O_2  and  C_3
REMARK    3  A    between atoms: C_9  and  O_10
REMARK    4  A    between atoms: O_10  and  C_11
REMARK    5  A    between atoms: C_11  and  C_12
REMARK    6  A    between atoms: C_14  and  C_15
REMARK    7  A    between atoms: C_14  and  C_16
REMARK                            x       y       z     vdW  Elec       q    Type
REMARK                         _______ _______ _______ _____ _____    ______ ____
ROOT
ATOM      1  C   UNL     1      -2.831   2.764 -22.867  0.00  0.00    +0.142 A 
ATOM      2  C   UNL     1      -3.028   3.275 -24.046  0.00  0.00    +0.066 A 
ATOM      3  C   UNL     1      -4.087   3.769 -24.616  0.00  0.00    +0.053 A 
ATOM      4  C   UNL     1      -3.762   4.153 -25.814  0.00  0.00    +0.196 A 
ATOM      5  O   UNL     1      -2.499   3.895 -25.986  0.00  0.00    -0.459 OA
ATOM      6  C   UNL     1      -2.046   3.353 -24.895  0.00  0.00    +0.183 A 
ATOM      7  C   UNL     1      -0.867   2.921 -24.562  0.00  0.00    +0.207 A 
ATOM      8  C   UNL     1      -0.668   2.410 -23.383  0.00  0.00    +0.188 A 
ATOM      9  O   UNL     1       0.512   1.978 -23.054  0.00  0.00    -0.418 OA
ATOM     10  C   UNL     1       0.713   1.467 -21.874  0.00  0.00    +0.337 A 
ATOM     11  C   UNL     1      -0.271   1.389 -21.027  0.00  0.00    +0.093 A 
ATOM     12  C   UNL     1      -1.451   1.821 -21.357  0.00  0.00    +0.022 A 
ATOM     13  O   UNL     1       1.892   1.035 -21.545  0.00  0.00    -0.245 OA
ATOM     14  C   UNL     1      -1.650   2.332 -22.537  0.00  0.00    +0.064 A 
ENDROOT
BRANCH   1  16
ATOM     15  C   UNL     1      -4.069   3.684 -21.227  0.00  0.00    +0.277 C 
ATOM     16  O   UNL     1      -3.813   2.686 -22.020  0.00  0.00    -0.494 OA
ENDBRANCH   1  16
BRANCH   7  17
ATOM     17  O   UNL     1       0.117   2.999 -25.410  0.00  0.00    -0.482 OA
BRANCH  17  18
ATOM     18  C   UNL     1       0.952   3.994 -25.349  0.00  0.00    +0.263 C 
BRANCH  18  19
ATOM     19  C   UNL     1       2.060   3.875 -24.677  0.00  0.00    +0.188 C 
ATOM     20  O   UNL     1       3.170   3.238 -24.442  0.00  0.00    -0.362 OA
ATOM     21  C   UNL     1       2.866   4.300 -23.754  0.00  0.00    +0.094 C 
ATOM     22  C   UNL     1       2.203   5.338 -23.336  0.00  0.00    +0.044 C 
ATOM     23  C   UNL     1       3.904   4.366 -22.973  0.00  0.00    +0.044 C 
ENDBRANCH  18  19
ENDBRANCH  17  18
ENDBRANCH   7  17
TORSDOF 4
ENDMDL
MODEL 5
REMARK VINA RESULT:    -8.783      1.645      5.625
REMARK INTER + INTRA:         -10.379
REMARK INTER:                 -10.333
REMARK INTRA:                  -0.046
REMARK UNBOUND:                 0.458
REMARK  Name = ZINC000013380840
REMARK  7 active torsions:
REMARK  status: ('A' for Active; 'I' for Inactive)
REMARK    1  A    between atoms: C_1  and  O_2
REMARK    2  A    between atoms: O_2  and  C_3
REMARK    3  A    between atoms: C_9  and  O_10
REMARK    4  A    between atoms: O_10  and  C_11
REMARK    5  A    between atoms: C_11  and  C_12
REMARK    6  A    between atoms: C_14  and  C_15
REMARK    7  A    between atoms: C_14  and  C_16
REMARK                            x       y       z     vdW  Elec       q    Type
REMARK                         _______ _______ _______ _____ _____    ______ ____
ROOT
ATOM      1  C   UNL     1      -2.177   3.722 -24.672  0.00  0.00    +0.142 A 
ATOM      2  C   UNL     1      -0.887   3.634 -24.806  0.00  0.00    +0.066 A 
ATOM      3  C   UNL     1      -0.094   3.917 -25.797  0.00  0.00    +0.053 A 
ATOM      4  C   UNL     1       1.125   3.650 -25.430  0.00  0.00    +0.196 A 
ATOM      5  O   UNL     1       1.083   3.201 -24.210  0.00  0.00    -0.459 OA
ATOM      6  C   UNL     1      -0.158   3.191 -23.826  0.00  0.00    +0.183 A 
ATOM      7  C   UNL     1      -0.721   2.837 -22.710  0.00  0.00    +0.207 A 
ATOM      8  C   UNL     1      -2.011   2.924 -22.572  0.00  0.00    +0.188 A 
ATOM      9  O   UNL     1      -2.571   2.569 -21.455  0.00  0.00    -0.418 OA
ATOM     10  C   UNL     1      -3.862   2.656 -21.317  0.00  0.00    +0.337 A 
ATOM     11  C   UNL     1      -4.589   3.100 -22.300  0.00  0.00    +0.093 A 
ATOM     12  C   UNL     1      -4.029   3.455 -23.417  0.00  0.00    +0.022 A 
ATOM     13  O   UNL     1      -4.421   2.302 -20.200  0.00  0.00    -0.245 OA
ATOM     14  C   UNL     1      -2.738   3.367 -23.554  0.00  0.00    +0.064 A 
ENDROOT
BRANCH   1  16
ATOM     15  C   UNL     1      -3.297   3.353 -26.589  0.00  0.00    +0.277 C 
ATOM     16  O   UNL     1      -2.905   4.165 -25.653  0.00  0.00    -0.494 OA
ENDBRANCH   1  16
BRANCH   7  17
ATOM     17  O   UNL     1       0.007   2.394 -21.726  0.00  0.00    -0.482 OA
BRANCH  17  18
ATOM     18  C   UNL     1       0.607   1.244 -21.827  0.00  0.00    +0.263 C 
BRANCH  18  19
ATOM     19  C   UNL     1       1.833   1.110 -21.411  0.00  0.00    +0.188 C 
ATOM     20  O   UNL     1       2.706   1.164 -20.448  0.00  0.00    -0.362 OA
ATOM     21  C   UNL     1       3.075   0.825 -21.650  0.00  0.00    +0.094 C 
ATOM     22  C   UNL     1       3.005   0.553 -22.919  0.00  0.00    +0.044 C 
ATOM     23  C   UNL     1       4.346   0.635 -21.449  0.00  0.00    +0.044 C 
ENDBRANCH  18  19
ENDBRANCH  17  18
ENDBRANCH   7  17
TORSDOF 4
ENDMDL
MODEL 6
REMARK VINA RESULT:    -8.698      1.787      5.647
REMARK INTER + INTRA:         -10.274
REMARK INTER:                 -10.545
REMARK INTRA:                   0.270
REMARK UNBOUND:                 0.458
REMARK  Name = ZINC000013380840
REMARK  7 active torsions:
REMARK  status: ('A' for Active; 'I' for Inactive)
REMARK    1  A    between atoms: C_1  and  O_2
REMARK    2  A    between atoms: O_2  and  C_3
REMARK    3  A    between atoms: C_9  and  O_10
REMARK    4  A    between atoms: O_10  and  C_11
REMARK    5  A    between atoms: C_11  and  C_12
REMARK    6  A    between atoms: C_14  and  C_15
REMARK    7  A    between atoms: C_14  and  C_16
REMARK                            x       y       z     vdW  Elec       q    Type
REMARK                         _______ _______ _______ _____ _____    ______ ____
ROOT
ATOM      1  C   UNL     1      -3.437   3.608 -24.342  0.00  0.00    +0.142 A 
ATOM      2  C   UNL     1      -3.957   3.375 -23.173  0.00  0.00    +0.066 A 
ATOM      3  C   UNL     1      -5.188   3.373 -22.753  0.00  0.00    +0.053 A 
ATOM      4  C   UNL     1      -5.184   3.076 -21.487  0.00  0.00    +0.196 A 
ATOM      5  O   UNL     1      -3.948   2.895 -21.125  0.00  0.00    -0.459 OA
ATOM      6  C   UNL     1      -3.192   3.079 -22.166  0.00  0.00    +0.183 A 
ATOM      7  C   UNL     1      -1.904   3.016 -22.328  0.00  0.00    +0.207 A 
ATOM      8  C   UNL     1      -1.381   3.249 -23.495  0.00  0.00    +0.188 A 
ATOM      9  O   UNL     1      -0.094   3.185 -23.654  0.00  0.00    -0.418 OA
ATOM     10  C   UNL     1       0.431   3.418 -24.822  0.00  0.00    +0.337 A 
ATOM     11  C   UNL     1      -0.337   3.714 -25.829  0.00  0.00    +0.093 A 
ATOM     12  C   UNL     1      -1.626   3.777 -25.670  0.00  0.00    +0.022 A 
ATOM     13  O   UNL     1       1.718   3.354 -24.981  0.00  0.00    -0.245 OA
ATOM     14  C   UNL     1      -2.148   3.544 -24.501  0.00  0.00    +0.064 A 
ENDROOT
BRANCH   1  16
ATOM     15  C   UNL     1      -4.549   2.981 -26.196  0.00  0.00    +0.277 C 
ATOM     16  O   UNL     1      -4.204   3.904 -25.348  0.00  0.00    -0.494 OA
ENDBRANCH   1  16
BRANCH   7  17
ATOM     17  O   UNL     1      -1.136   2.720 -21.320  0.00  0.00    -0.482 OA
BRANCH  17  18
ATOM     18  C   UNL     1      -0.549   1.561 -21.267  0.00  0.00    +0.263 C 
BRANCH  18  19
ATOM     19  C   UNL     1       0.662   1.464 -20.799  0.00  0.00    +0.188 C 
ATOM     20  O   UNL     1       1.482   1.482 -19.789  0.00  0.00    -0.362 OA
ATOM     21  C   UNL     1       1.930   1.278 -20.994  0.00  0.00    +0.094 C 
ATOM     22  C   UNL     1       1.940   1.120 -22.285  0.00  0.00    +0.044 C 
ATOM     23  C   UNL     1       3.200   1.147 -20.742  0.00  0.00    +0.044 C 
ENDBRANCH  18  19
ENDBRANCH  17  18
ENDBRANCH   7  17
TORSDOF 4
ENDMDL
MODEL 7
REMARK VINA RESULT:    -8.564      1.555      4.171
REMARK INTER + INTRA:         -10.109
REMARK INTER:                 -10.303
REMARK INTRA:                   0.194
REMARK UNBOUND:                 0.458
REMARK  Name = ZINC000013380840
REMARK  7 active torsions:
REMARK  status: ('A' for Active; 'I' for Inactive)
REMARK    1  A    between atoms: C_1  and  O_2
REMARK    2  A    between atoms: O_2  and  C_3
REMARK    3  A    between atoms: C_9  and  O_10
REMARK    4  A    between atoms: O_10  and  C_11
REMARK    5  A    between atoms: C_11  and  C_12
REMARK    6  A    between atoms: C_14  and  C_15
REMARK    7  A    between atoms: C_14  and  C_16
REMARK                            x       y       z     vdW  Elec       q    Type
REMARK                         _______ _______ _______ _____ _____    ______ ____
ROOT
ATOM      1  C   UNL     1       0.766   2.871 -24.192  0.00  0.00    +0.142 A 
ATOM      2  C   UNL     1      -0.483   3.012 -24.522  0.00  0.00    +0.066 A 
ATOM      3  C   UNL     1      -1.054   3.423 -25.616  0.00  0.00    +0.053 A 
ATOM      4  C   UNL     1      -2.342   3.380 -25.442  0.00  0.00    +0.196 A 
ATOM      5  O   UNL     1      -2.567   2.942 -24.238  0.00  0.00    -0.459 OA
ATOM      6  C   UNL     1      -1.419   2.715 -23.671  0.00  0.00    +0.183 A 
ATOM      7  C   UNL     1      -1.105   2.276 -22.490  0.00  0.00    +0.207 A 
ATOM      8  C   UNL     1       0.144   2.134 -22.157  0.00  0.00    +0.188 A 
ATOM      9  O   UNL     1       0.456   1.694 -20.976  0.00  0.00    -0.418 OA
ATOM     10  C   UNL     1       1.705   1.552 -20.642  0.00  0.00    +0.337 A 
ATOM     11  C   UNL     1       2.640   1.850 -21.495  0.00  0.00    +0.093 A 
ATOM     12  C   UNL     1       2.329   2.289 -22.678  0.00  0.00    +0.022 A 
ATOM     13  O   UNL     1       2.017   1.113 -19.461  0.00  0.00    -0.245 OA
ATOM     14  C   UNL     1       1.079   2.431 -23.009  0.00  0.00    +0.064 A 
ENDROOT
BRANCH   1  16
ATOM     15  C   UNL     1       2.148   2.263 -25.863  0.00  0.00    +0.277 C 
ATOM     16  O   UNL     1       1.701   3.169 -25.044  0.00  0.00    -0.494 OA
ENDBRANCH   1  16
BRANCH   7  17
ATOM     17  O   UNL     1      -2.041   1.977 -21.636  0.00  0.00    -0.482 OA
BRANCH  17  18
ATOM     18  C   UNL     1      -2.901   2.882 -21.270  0.00  0.00    +0.263 C 
BRANCH  18  19
ATOM     19  C   UNL     1      -4.167   2.589 -21.207  0.00  0.00    +0.188 C 
ATOM     20  O   UNL     1      -5.139   1.904 -20.679  0.00  0.00    -0.362 OA
ATOM     21  C   UNL     1      -5.383   2.765 -21.624  0.00  0.00    +0.094 C 
ATOM     22  C   UNL     1      -5.182   3.673 -22.532  0.00  0.00    +0.044 C 
ATOM     23  C   UNL     1      -6.672   2.626 -21.725  0.00  0.00    +0.044 C 
ENDBRANCH  18  19
ENDBRANCH  17  18
ENDBRANCH   7  17
TORSDOF 4
ENDMDL
MODEL 8
REMARK VINA RESULT:    -8.129      0.767      3.713
REMARK INTER + INTRA:          -9.572
REMARK INTER:                  -9.803
REMARK INTRA:                   0.232
REMARK UNBOUND:                 0.458
REMARK  Name = ZINC000013380840
REMARK  7 active torsions:
REMARK  status: ('A' for Active; 'I' for Inactive)
REMARK    1  A    between atoms: C_1  and  O_2
REMARK    2  A    between atoms: O_2  and  C_3
REMARK    3  A    between atoms: C_9  and  O_10
REMARK    4  A    between atoms: O_10  and  C_11
REMARK    5  A    between atoms: C_11  and  C_12
REMARK    6  A    between atoms: C_14  and  C_15
REMARK    7  A    between atoms: C_14  and  C_16
REMARK                            x       y       z     vdW  Elec       q    Type
REMARK                         _______ _______ _______ _____ _____    ______ ____
ROOT
ATOM      1  C   UNL     1       3.147   3.534 -23.279  0.00  0.00    +0.142 A 
ATOM      2  C   UNL     1       1.963   3.765 -23.764  0.00  0.00    +0.066 A 
ATOM      3  C   UNL     1       1.527   4.652 -24.610  0.00  0.00    +0.053 A 
ATOM      4  C   UNL     1       0.250   4.464 -24.771  0.00  0.00    +0.196 A 
ATOM      5  O   UNL     1      -0.102   3.460 -24.024  0.00  0.00    -0.459 OA
ATOM      6  C   UNL     1       0.955   3.029 -23.403  0.00  0.00    +0.183 A 
ATOM      7  C   UNL     1       1.132   2.061 -22.554  0.00  0.00    +0.207 A 
ATOM      8  C   UNL     1       2.315   1.828 -22.067  0.00  0.00    +0.188 A 
ATOM      9  O   UNL     1       2.489   0.860 -21.219  0.00  0.00    -0.418 OA
ATOM     10  C   UNL     1       3.672   0.626 -20.731  0.00  0.00    +0.337 A 
ATOM     11  C   UNL     1       4.678   1.364 -21.094  0.00  0.00    +0.093 A 
ATOM     12  C   UNL     1       4.505   2.333 -21.942  0.00  0.00    +0.022 A 
ATOM     13  O   UNL     1       3.845  -0.342 -19.882  0.00  0.00    -0.245 OA
ATOM     14  C   UNL     1       3.321   2.565 -22.430  0.00  0.00    +0.064 A 
ENDROOT
BRANCH   1  16
ATOM     15  C   UNL     1       4.525   5.274 -22.903  0.00  0.00    +0.277 C 
ATOM     16  O   UNL     1       4.154   4.271 -23.641  0.00  0.00    -0.494 OA
ENDBRANCH   1  16
BRANCH   7  17
ATOM     17  O   UNL     1       0.124   1.323 -22.191  0.00  0.00    -0.482 OA
BRANCH  17  18
ATOM     18  C   UNL     1      -0.743   1.780 -21.336  0.00  0.00    +0.263 C 
BRANCH  18  19
ATOM     19  C   UNL     1      -1.910   2.187 -21.746  0.00  0.00    +0.188 C 
ATOM     20  O   UNL     1      -2.836   2.210 -22.660  0.00  0.00    -0.362 OA
ATOM     21  C   UNL     1      -2.997   2.864 -21.546  0.00  0.00    +0.094 C 
ATOM     22  C   UNL     1      -2.753   3.340 -20.361  0.00  0.00    +0.044 C 
ATOM     23  C   UNL     1      -4.174   3.378 -21.756  0.00  0.00    +0.044 C 
ENDBRANCH  18  19
ENDBRANCH  17  18
ENDBRANCH   7  17
TORSDOF 4
ENDMDL
MODEL 9
REMARK VINA RESULT:    -7.850      2.040      4.193
REMARK INTER + INTRA:          -9.227
REMARK INTER:                  -9.685
REMARK INTRA:                   0.458
REMARK UNBOUND:                 0.458
REMARK  Name = ZINC000013380840
REMARK  7 active torsions:
REMARK  status: ('A' for Active; 'I' for Inactive)
REMARK    1  A    between atoms: C_1  and  O_2
REMARK    2  A    between atoms: O_2  and  C_3
REMARK    3  A    between atoms: C_9  and  O_10
REMARK    4  A    between atoms: O_10  and  C_11
REMARK    5  A    between atoms: C_11  and  C_12
REMARK    6  A    between atoms: C_14  and  C_15
REMARK    7  A    between atoms: C_14  and  C_16
REMARK                            x       y       z     vdW  Elec       q    Type
REMARK                         _______ _______ _______ _____ _____    ______ ____
ROOT
ATOM      1  C   UNL     1       0.598   1.894 -22.364  0.00  0.00    +0.142 A 
ATOM      2  C   UNL     1       1.201   2.132 -23.491  0.00  0.00    +0.066 A 
ATOM      3  C   UNL     1       2.358   1.762 -23.955  0.00  0.00    +0.053 A 
ATOM      4  C   UNL     1       2.500   2.269 -25.144  0.00  0.00    +0.196 A 
ATOM      5  O   UNL     1       1.428   2.954 -25.414  0.00  0.00    -0.459 OA
ATOM      6  C   UNL     1       0.627   2.870 -24.394  0.00  0.00    +0.183 A 
ATOM      7  C   UNL     1      -0.551   3.368 -24.170  0.00  0.00    +0.207 A 
ATOM      8  C   UNL     1      -1.157   3.131 -23.044  0.00  0.00    +0.188 A 
ATOM      9  O   UNL     1      -2.335   3.631 -22.822  0.00  0.00    -0.418 OA
ATOM     10  C   UNL     1      -2.942   3.394 -21.696  0.00  0.00    +0.337 A 
ATOM     11  C   UNL     1      -2.366   2.656 -20.794  0.00  0.00    +0.093 A 
ATOM     12  C   UNL     1      -1.187   2.156 -21.015  0.00  0.00    +0.022 A 
ATOM     13  O   UNL     1      -4.120   3.894 -21.475  0.00  0.00    -0.245 OA
ATOM     14  C   UNL     1      -0.582   2.394 -22.142  0.00  0.00    +0.064 A 
ENDROOT
BRANCH   1  16
ATOM     15  C   UNL     1       2.228   1.593 -20.842  0.00  0.00    +0.277 C 
ATOM     16  O   UNL     1       1.173   1.156 -21.463  0.00  0.00    -0.494 OA
ENDBRANCH   1  16
BRANCH   7  17
ATOM     17  O   UNL     1      -1.128   4.107 -25.073  0.00  0.00    -0.482 OA
BRANCH  17  18
ATOM     18  C   UNL     1      -1.739   3.550 -26.077  0.00  0.00    +0.263 C 
BRANCH  18  19
ATOM     19  C   UNL     1      -3.007   3.269 -25.993  0.00  0.00    +0.188 C 
ATOM     20  O   UNL     1      -3.988   2.432 -26.165  0.00  0.00    -0.362 OA
ATOM     21  C   UNL     1      -4.217   3.617 -25.678  0.00  0.00    +0.094 C 
ATOM     22  C   UNL     1      -4.000   4.826 -25.250  0.00  0.00    +0.044 C 
ATOM     23  C   UNL     1      -5.505   3.546 -25.512  0.00  0.00    +0.044 C 
ENDBRANCH  18  19
ENDBRANCH  17  18
ENDBRANCH   7  17
TORSDOF 4
ENDMDL
