MODEL 1
REMARK VINA RESULT:   -13.190      0.000      0.000
REMARK INTER + INTRA:          -9.662
REMARK INTER:                 -12.834
REMARK INTRA:                   3.172
REMARK UNBOUND:                 4.299
REMARK  Name = ZINC000004104853
REMARK  4 active torsions:
REMARK  status: ('A' for Active; 'I' for Inactive)
REMARK    1  A    between atoms: C_1  and  C_2
REMARK    2  A    between atoms: C_2  and  C_4
REMARK    3  A    between atoms: C_16  and  C_17
REMARK    4  A    between atoms: C_21  and  C_22
REMARK                            x       y       z     vdW  Elec       q    Type
REMARK                         _______ _______ _______ _____ _____    ______ ____
ROOT
ATOM      1  C   UNL     1       1.848   2.179 -22.968  0.00  0.00    +0.061 C 
ATOM      2  C   UNL     1       2.017   2.706 -24.145  0.00  0.00    +0.012 C 
ATOM      3  C   UNL     1       0.861   3.125 -24.567  0.00  0.00    +0.005 C 
ATOM      4  C   UNL     1      -0.022   2.857 -23.650  0.00  0.00    -0.001 C 
ATOM      5  C   UNL     1      -1.302   3.071 -23.589  0.00  0.00    -0.004 C 
ATOM      6  C   UNL     1      -1.913   3.656 -24.577  0.00  0.00    +0.004 C 
ATOM      7  C   UNL     1      -3.194   3.870 -24.515  0.00  0.00    +0.004 C 
ATOM      8  C   UNL     1      -3.864   3.498 -23.465  0.00  0.00    -0.005 C 
ATOM      9  C   UNL     1      -5.145   3.712 -23.403  0.00  0.00    +0.004 C 
ATOM     10  C   UNL     1      -5.817   3.341 -22.353  0.00  0.00    +0.000 C 
ATOM     11  C   UNL     1      -5.206   2.756 -21.365  0.00  0.00    +0.001 C 
ATOM     12  C   UNL     1      -3.925   2.542 -21.427  0.00  0.00    +0.007 C 
ATOM     13  C   UNL     1      -3.255   2.914 -22.477  0.00  0.00    -0.026 C 
ATOM     14  C   UNL     1      -2.644   2.329 -21.490  0.00  0.00    +0.012 C 
ATOM     15  C   UNL     1      -1.974   2.700 -22.540  0.00  0.00    -0.001 C 
ATOM     16  C   UNL     1      -1.363   2.115 -21.552  0.00  0.00    +0.005 C 
ATOM     17  C   UNL     1      -0.083   1.901 -21.613  0.00  0.00    +0.008 C 
ATOM     18  C   UNL     1       0.588   2.273 -22.663  0.00  0.00    -0.019 C 
ATOM     19  C   UNL     1       1.312   1.701 -21.748  0.00  0.00    +0.012 C 
ENDROOT
BRANCH   1  21
ATOM     20  C   UNL     1       3.068   0.390 -22.350  0.00  0.00    +0.086 C 
ATOM     21  C   UNL     1       2.776   1.651 -22.228  0.00  0.00    +0.134 C 
ATOM     22  O   UNL     1       3.415   2.385 -21.364  0.00  0.00    -0.297 OA
ENDBRANCH   1  21
TORSDOF 1
ENDMDL
MODEL 2
REMARK VINA RESULT:   -12.720      1.090      2.525
REMARK INTER + INTRA:          -9.165
REMARK INTER:                 -12.340
REMARK INTRA:                   3.175
REMARK UNBOUND:                 4.299
REMARK  Name = ZINC000004104853
REMARK  4 active torsions:
REMARK  status: ('A' for Active; 'I' for Inactive)
REMARK    1  A    between atoms: C_1  and  C_2
REMARK    2  A    between atoms: C_2  and  C_4
REMARK    3  A    between atoms: C_16  and  C_17
REMARK    4  A    between atoms: C_21  and  C_22
REMARK                            x       y       z     vdW  Elec       q    Type
REMARK                         _______ _______ _______ _____ _____    ______ ____
ROOT
ATOM      1  C   UNL     1       1.941   2.028 -23.002  0.00  0.00    +0.061 C 
ATOM      2  C   UNL     1       1.898   1.516 -21.807  0.00  0.00    +0.012 C 
ATOM      3  C   UNL     1       0.673   1.598 -21.380  0.00  0.00    +0.005 C 
ATOM      4  C   UNL     1      -0.041   2.159 -22.310  0.00  0.00    -0.001 C 
ATOM      5  C   UNL     1      -1.303   2.463 -22.372  0.00  0.00    -0.004 C 
ATOM      6  C   UNL     1      -2.086   2.197 -21.369  0.00  0.00    +0.004 C 
ATOM      7  C   UNL     1      -3.349   2.500 -21.432  0.00  0.00    +0.004 C 
ATOM      8  C   UNL     1      -3.828   3.070 -22.498  0.00  0.00    -0.005 C 
ATOM      9  C   UNL     1      -5.091   3.374 -22.561  0.00  0.00    +0.004 C 
ATOM     10  C   UNL     1      -5.570   3.943 -23.627  0.00  0.00    +0.000 C 
ATOM     11  C   UNL     1      -4.787   4.209 -24.630  0.00  0.00    +0.001 C 
ATOM     12  C   UNL     1      -3.524   3.906 -24.567  0.00  0.00    +0.007 C 
ATOM     13  C   UNL     1      -3.045   3.336 -23.501  0.00  0.00    -0.026 C 
ATOM     14  C   UNL     1      -2.261   3.602 -24.503  0.00  0.00    +0.012 C 
ATOM     15  C   UNL     1      -1.783   3.032 -23.437  0.00  0.00    -0.001 C 
ATOM     16  C   UNL     1      -0.999   3.298 -24.440  0.00  0.00    +0.005 C 
ATOM     17  C   UNL     1       0.263   2.995 -24.378  0.00  0.00    +0.008 C 
ATOM     18  C   UNL     1       0.742   2.425 -23.312  0.00  0.00    -0.019 C 
ATOM     19  C   UNL     1       1.626   2.637 -24.241  0.00  0.00    +0.012 C 
ENDROOT
BRANCH   1  21
ATOM     20  C   UNL     1       3.796   3.142 -23.625  0.00  0.00    +0.086 C 
ATOM     21  C   UNL     1       2.996   2.125 -23.754  0.00  0.00    +0.134 C 
ATOM     22  O   UNL     1       3.253   1.204 -24.636  0.00  0.00    -0.297 OA
ENDBRANCH   1  21
TORSDOF 1
ENDMDL
MODEL 3
REMARK VINA RESULT:   -11.880      2.133      6.094
REMARK INTER + INTRA:          -8.275
REMARK INTER:                 -11.456
REMARK INTRA:                   3.181
REMARK UNBOUND:                 4.299
REMARK  Name = ZINC000004104853
REMARK  4 active torsions:
REMARK  status: ('A' for Active; 'I' for Inactive)
REMARK    1  A    between atoms: C_1  and  C_2
REMARK    2  A    between atoms: C_2  and  C_4
REMARK    3  A    between atoms: C_16  and  C_17
REMARK    4  A    between atoms: C_21  and  C_22
REMARK                            x       y       z     vdW  Elec       q    Type
REMARK                         _______ _______ _______ _____ _____    ______ ____
ROOT
ATOM      1  C   UNL     1      -3.529   3.453 -24.027  0.00  0.00    +0.061 C 
ATOM      2  C   UNL     1      -4.083   3.124 -22.898  0.00  0.00    +0.012 C 
ATOM      3  C   UNL     1      -3.156   2.655 -22.117  0.00  0.00    +0.005 C 
ATOM      4  C   UNL     1      -2.029   2.693 -22.764  0.00  0.00    -0.001 C 
ATOM      5  C   UNL     1      -0.823   2.342 -22.429  0.00  0.00    -0.004 C 
ATOM      6  C   UNL     1      -0.593   1.848 -21.249  0.00  0.00    +0.004 C 
ATOM      7  C   UNL     1       0.614   1.497 -20.915  0.00  0.00    +0.004 C 
ATOM      8  C   UNL     1       1.590   1.640 -21.762  0.00  0.00    -0.005 C 
ATOM      9  C   UNL     1       2.797   1.289 -21.428  0.00  0.00    +0.004 C 
ATOM     10  C   UNL     1       3.773   1.431 -22.274  0.00  0.00    +0.000 C 
ATOM     11  C   UNL     1       3.543   1.925 -23.454  0.00  0.00    +0.001 C 
ATOM     12  C   UNL     1       2.336   2.276 -23.788  0.00  0.00    +0.007 C 
ATOM     13  C   UNL     1       1.360   2.133 -22.942  0.00  0.00    -0.026 C 
ATOM     14  C   UNL     1       1.130   2.627 -24.122  0.00  0.00    +0.012 C 
ATOM     15  C   UNL     1       0.154   2.484 -23.275  0.00  0.00    -0.001 C 
ATOM     16  C   UNL     1      -0.077   2.978 -24.456  0.00  0.00    +0.005 C 
ATOM     17  C   UNL     1      -1.282   3.329 -24.791  0.00  0.00    +0.008 C 
ATOM     18  C   UNL     1      -2.259   3.186 -23.944  0.00  0.00    -0.019 C 
ATOM     19  C   UNL     1      -2.619   3.689 -25.087  0.00  0.00    +0.012 C 
ENDROOT
BRANCH   1  21
ATOM     20  C   UNL     1      -4.682   3.177 -25.942  0.00  0.00    +0.086 C 
ATOM     21  C   UNL     1      -4.137   3.959 -25.058  0.00  0.00    +0.134 C 
ATOM     22  O   UNL     1      -4.200   5.250 -25.206  0.00  0.00    -0.297 OA
ENDBRANCH   1  21
TORSDOF 1
ENDMDL
MODEL 4
REMARK VINA RESULT:   -11.843      1.821      5.671
REMARK INTER + INTRA:          -8.236
REMARK INTER:                 -11.423
REMARK INTRA:                   3.188
REMARK UNBOUND:                 4.299
REMARK  Name = ZINC000004104853
REMARK  4 active torsions:
REMARK  status: ('A' for Active; 'I' for Inactive)
REMARK    1  A    between atoms: C_1  and  C_2
REMARK    2  A    between atoms: C_2  and  C_4
REMARK    3  A    between atoms: C_16  and  C_17
REMARK    4  A    between atoms: C_21  and  C_22
REMARK                            x       y       z     vdW  Elec       q    Type
REMARK                         _______ _______ _______ _____ _____    ______ ____
ROOT
ATOM      1  C   UNL     1      -3.256   3.479 -22.513  0.00  0.00    +0.061 C 
ATOM      2  C   UNL     1      -3.333   4.000 -23.702  0.00  0.00    +0.012 C 
ATOM      3  C   UNL     1      -2.193   3.814 -24.297  0.00  0.00    +0.005 C 
ATOM      4  C   UNL     1      -1.411   3.178 -23.476  0.00  0.00    -0.001 C 
ATOM      5  C   UNL     1      -0.185   2.761 -23.591  0.00  0.00    -0.004 C 
ATOM      6  C   UNL     1       0.472   2.968 -24.694  0.00  0.00    +0.004 C 
ATOM      7  C   UNL     1       1.698   2.551 -24.808  0.00  0.00    +0.004 C 
ATOM      8  C   UNL     1       2.267   1.927 -23.820  0.00  0.00    -0.005 C 
ATOM      9  C   UNL     1       3.493   1.509 -23.934  0.00  0.00    +0.004 C 
ATOM     10  C   UNL     1       4.063   0.885 -22.947  0.00  0.00    +0.000 C 
ATOM     11  C   UNL     1       3.405   0.678 -21.844  0.00  0.00    +0.001 C 
ATOM     12  C   UNL     1       2.179   1.095 -21.730  0.00  0.00    +0.007 C 
ATOM     13  C   UNL     1       1.611   1.719 -22.718  0.00  0.00    -0.026 C 
ATOM     14  C   UNL     1       0.953   1.512 -21.615  0.00  0.00    +0.012 C 
ATOM     15  C   UNL     1       0.384   2.137 -22.603  0.00  0.00    -0.001 C 
ATOM     16  C   UNL     1      -0.273   1.929 -21.501  0.00  0.00    +0.005 C 
ATOM     17  C   UNL     1      -1.498   2.346 -21.386  0.00  0.00    +0.008 C 
ATOM     18  C   UNL     1      -2.067   2.971 -22.374  0.00  0.00    -0.019 C 
ATOM     19  C   UNL     1      -2.829   2.827 -21.330  0.00  0.00    +0.012 C 
ENDROOT
BRANCH   1  21
ATOM     20  C   UNL     1      -5.187   2.626 -21.727  0.00  0.00    +0.086 C 
ATOM     21  C   UNL     1      -4.201   3.467 -21.621  0.00  0.00    +0.134 C 
ATOM     22  O   UNL     1      -4.160   4.298 -20.621  0.00  0.00    -0.297 OA
ENDBRANCH   1  21
TORSDOF 1
ENDMDL
MODEL 5
REMARK VINA RESULT:   -11.287      1.800      3.486
REMARK INTER + INTRA:          -7.648
REMARK INTER:                 -10.826
REMARK INTRA:                   3.178
REMARK UNBOUND:                 4.299
REMARK  Name = ZINC000004104853
REMARK  4 active torsions:
REMARK  status: ('A' for Active; 'I' for Inactive)
REMARK    1  A    between atoms: C_1  and  C_2
REMARK    2  A    between atoms: C_2  and  C_4
REMARK    3  A    between atoms: C_16  and  C_17
REMARK    4  A    between atoms: C_21  and  C_22
REMARK                            x       y       z     vdW  Elec       q    Type
REMARK                         _______ _______ _______ _____ _____    ______ ____
ROOT
ATOM      1  C   UNL     1       4.287   3.111 -22.412  0.00  0.00    +0.061 C 
ATOM      2  C   UNL     1       4.275   2.059 -21.647  0.00  0.00    +0.012 C 
ATOM      3  C   UNL     1       3.042   1.671 -21.517  0.00  0.00    +0.005 C 
ATOM      4  C   UNL     1       2.291   2.483 -22.200  0.00  0.00    -0.001 C 
ATOM      5  C   UNL     1       1.006   2.526 -22.390  0.00  0.00    -0.004 C 
ATOM      6  C   UNL     1       0.236   1.636 -21.836  0.00  0.00    +0.004 C 
ATOM      7  C   UNL     1      -1.049   1.679 -22.026  0.00  0.00    +0.004 C 
ATOM      8  C   UNL     1      -1.565   2.613 -22.770  0.00  0.00    -0.005 C 
ATOM      9  C   UNL     1      -2.850   2.656 -22.960  0.00  0.00    +0.004 C 
ATOM     10  C   UNL     1      -3.367   3.589 -23.703  0.00  0.00    +0.000 C 
ATOM     11  C   UNL     1      -2.598   4.479 -24.256  0.00  0.00    +0.001 C 
ATOM     12  C   UNL     1      -1.312   4.436 -24.066  0.00  0.00    +0.007 C 
ATOM     13  C   UNL     1      -0.796   3.502 -23.323  0.00  0.00    -0.026 C 
ATOM     14  C   UNL     1      -0.027   4.392 -23.876  0.00  0.00    +0.012 C 
ATOM     15  C   UNL     1       0.489   3.459 -23.133  0.00  0.00    -0.001 C 
ATOM     16  C   UNL     1       1.259   4.349 -23.686  0.00  0.00    +0.005 C 
ATOM     17  C   UNL     1       2.544   4.306 -23.497  0.00  0.00    +0.008 C 
ATOM     18  C   UNL     1       3.060   3.372 -22.753  0.00  0.00    -0.019 C 
ATOM     19  C   UNL     1       3.933   4.198 -23.247  0.00  0.00    +0.012 C 
ENDROOT
BRANCH   1  21
ATOM     20  C   UNL     1       6.071   3.366 -23.762  0.00  0.00    +0.086 C 
ATOM     21  C   UNL     1       5.339   3.783 -22.771  0.00  0.00    +0.134 C 
ATOM     22  O   UNL     1       5.662   4.873 -22.140  0.00  0.00    -0.297 OA
ENDBRANCH   1  21
TORSDOF 1
ENDMDL
