MODEL 1
REMARK VINA RESULT:   -11.320      0.000      0.000
REMARK INTER + INTRA:         -12.122
REMARK INTER:                 -12.003
REMARK INTRA:                  -0.120
REMARK UNBOUND:                -0.140
REMARK  Name = ZINC000096316377
REMARK  4 active torsions:
REMARK  status: ('A' for Active; 'I' for Inactive)
REMARK    1  A    between atoms: C_1  and  O_2
REMARK    2  A    between atoms: O_2  and  C_3
REMARK    3  A    between atoms: C_10  and  C_11
REMARK    4  A    between atoms: N_19  and  C_20
REMARK                            x       y       z     vdW  Elec       q    Type
REMARK                         _______ _______ _______ _____ _____    ______ ____
ROOT
ATOM      1  C   UNL     1       1.308   1.950 -22.741  0.00  0.00    +0.162 A 
ATOM      2  C   UNL     1       1.182   1.519 -21.557  0.00  0.00    +0.050 A 
ATOM      3  C   UNL     1       0.068   1.550 -20.986  0.00  0.00    +0.008 A 
ATOM      4  C   UNL     1      -0.931   2.011 -21.588  0.00  0.00    -0.034 A 
ATOM      5  C   UNL     1      -0.825   2.445 -22.767  0.00  0.00    +0.016 A 
ATOM      6  C   UNL     1      -1.822   2.904 -23.366  0.00  0.00    +0.074 C 
ATOM      7  C   UNL     1      -2.884   3.447 -24.143  0.00  0.00    +0.071 C 
ATOM      8  C   UNL     1      -4.152   3.495 -23.525  0.00  0.00    +0.133 C 
ATOM      9  N   UNL     1      -4.254   3.005 -22.205  0.00  0.00    +0.239 N 
ATOM     10  H   UNL     1      -5.149   3.019 -21.717  0.00  0.00    +0.204 HD
ATOM     11  C   UNL     1      -5.340   3.011 -21.586  0.00  0.00    +0.191 C 
ATOM     12  C   UNL     1      -3.059   2.504 -21.612  0.00  0.00    +0.096 C 
ATOM     13  C   UNL     1      -2.937   2.935 -22.796  0.00  0.00    -0.006 C 
ATOM     14  C   UNL     1      -3.944   3.400 -23.402  0.00  0.00    +0.025 C 
ATOM     15  C   UNL     1      -3.830   3.829 -24.573  0.00  0.00    +0.041 C 
ATOM     16 CL   UNL     1      -4.828   4.287 -25.169  0.00  0.00    -0.084 Cl
ATOM     17  C   UNL     1      -2.707   3.799 -25.154  0.00  0.00    +0.041 C 
ATOM     18  C   UNL     1      -1.708   3.340 -24.556  0.00  0.00    +0.141 C 
ATOM     19  C   UNL     1      -1.313   3.692 -25.691  0.00  0.00    +0.061 C 
ATOM     20  O   UNL     1      -0.233   3.027 -24.612  0.00  0.00    -0.477 OA
ATOM     21  C   UNL     1      -2.065   2.044 -21.010  0.00  0.00    +0.094 C 
ATOM     22  C   UNL     1       0.297   2.415 -23.347  0.00  0.00    +0.168 A 
ENDROOT
BRANCH   1  24
ATOM     23  C   UNL     1       3.086   0.856 -23.329  0.00  0.00    +0.277 C 
ATOM     24  O   UNL     1       2.423   1.917 -23.308  0.00  0.00    -0.491 OA
ENDBRANCH   1  24
TORSDOF 1
ENDMDL
MODEL 2
REMARK VINA RESULT:   -10.899      2.626      5.481
REMARK INTER + INTRA:         -11.676
REMARK INTER:                 -11.650
REMARK INTRA:                  -0.026
REMARK UNBOUND:                -0.140
REMARK  Name = ZINC000096316377
REMARK  4 active torsions:
REMARK  status: ('A' for Active; 'I' for Inactive)
REMARK    1  A    between atoms: C_1  and  O_2
REMARK    2  A    between atoms: O_2  and  C_3
REMARK    3  A    between atoms: C_10  and  C_11
REMARK    4  A    between atoms: N_19  and  C_20
REMARK                            x       y       z     vdW  Elec       q    Type
REMARK                         _______ _______ _______ _____ _____    ______ ____
ROOT
ATOM      1  C   UNL     1      -4.955   3.654 -23.169  0.00  0.00    +0.162 A 
ATOM      2  C   UNL     1      -5.110   4.030 -24.368  0.00  0.00    +0.050 A 
ATOM      3  C   UNL     1      -4.143   4.027 -25.164  0.00  0.00    +0.008 A 
ATOM      4  C   UNL     1      -3.013   3.649 -24.773  0.00  0.00    -0.034 A 
ATOM      5  C   UNL     1      -2.839   3.271 -23.583  0.00  0.00    +0.016 A 
ATOM      6  C   UNL     1      -1.711   2.895 -23.196  0.00  0.00    +0.074 C 
ATOM      7  C   UNL     1      -0.477   2.447 -22.644  0.00  0.00    +0.071 C 
ATOM      8  C   UNL     1       0.631   2.432 -23.518  0.00  0.00    +0.133 C 
ATOM      9  N   UNL     1       0.420   2.858 -24.847  0.00  0.00    +0.239 N 
ATOM     10  H   UNL     1       1.190   2.866 -25.516  0.00  0.00    +0.204 HD
ATOM     11  C   UNL     1       1.348   2.876 -25.685  0.00  0.00    +0.191 C 
ATOM     12  C   UNL     1      -0.902   3.267 -25.188  0.00  0.00    +0.096 C 
ATOM     13  C   UNL     1      -0.743   2.891 -23.990  0.00  0.00    -0.006 C 
ATOM     14  C   UNL     1       0.396   2.510 -23.597  0.00  0.00    +0.025 C 
ATOM     15  C   UNL     1       0.560   2.136 -22.413  0.00  0.00    +0.041 C 
ATOM     16 CL   UNL     1       1.688   1.761 -22.029  0.00  0.00    -0.084 Cl
ATOM     17  C   UNL     1      -0.414   2.138 -21.606  0.00  0.00    +0.041 C 
ATOM     18  C   UNL     1      -1.543   2.514 -21.993  0.00  0.00    +0.141 C 
ATOM     19  C   UNL     1      -1.666   2.202 -20.786  0.00  0.00    +0.061 C 
ATOM     20  O   UNL     1      -2.988   2.754 -21.633  0.00  0.00    -0.477 OA
ATOM     21  C   UNL     1      -2.028   3.645 -25.580  0.00  0.00    +0.094 C 
ATOM     22  C   UNL     1      -3.812   3.273 -22.777  0.00  0.00    +0.168 A 
ENDROOT
BRANCH   1  24
ATOM     23  C   UNL     1      -6.227   2.618 -21.751  0.00  0.00    +0.277 C 
ATOM     24  O   UNL     1      -5.923   3.659 -22.377  0.00  0.00    -0.491 OA
ENDBRANCH   1  24
TORSDOF 1
ENDMDL
MODEL 3
REMARK VINA RESULT:   -10.779      1.475      2.859
REMARK INTER + INTRA:         -11.549
REMARK INTER:                 -11.409
REMARK INTRA:                  -0.140
REMARK UNBOUND:                -0.140
REMARK  Name = ZINC000096316377
REMARK  4 active torsions:
REMARK  status: ('A' for Active; 'I' for Inactive)
REMARK    1  A    between atoms: C_1  and  O_2
REMARK    2  A    between atoms: O_2  and  C_3
REMARK    3  A    between atoms: C_10  and  C_11
REMARK    4  A    between atoms: N_19  and  C_20
REMARK                            x       y       z     vdW  Elec       q    Type
REMARK                         _______ _______ _______ _____ _____    ______ ____
ROOT
ATOM      1  C   UNL     1       1.178   2.569 -22.821  0.00  0.00    +0.162 A 
ATOM      2  C   UNL     1       1.525   2.732 -24.028  0.00  0.00    +0.050 A 
ATOM      3  C   UNL     1       0.670   2.998 -24.903  0.00  0.00    +0.008 A 
ATOM      4  C   UNL     1      -0.538   3.105 -24.585  0.00  0.00    -0.034 A 
ATOM      5  C   UNL     1      -0.903   2.946 -23.389  0.00  0.00    +0.016 A 
ATOM      6  C   UNL     1      -2.108   3.053 -23.074  0.00  0.00    +0.074 C 
ATOM      7  C   UNL     1      -3.448   3.150 -22.599  0.00  0.00    +0.071 C 
ATOM      8  C   UNL     1      -4.434   3.449 -23.564  0.00  0.00    +0.133 C 
ATOM      9  N   UNL     1      -4.010   3.624 -24.899  0.00  0.00    +0.239 N 
ATOM     10  H   UNL     1      -4.684   3.841 -25.631  0.00  0.00    +0.204 HD
ATOM     11  C   UNL     1      -4.819   3.891 -25.814  0.00  0.00    +0.191 C 
ATOM     12  C   UNL     1      -2.615   3.481 -25.153  0.00  0.00    +0.096 C 
ATOM     13  C   UNL     1      -2.965   3.319 -23.947  0.00  0.00    -0.006 C 
ATOM     14  C   UNL     1      -4.183   3.427 -23.628  0.00  0.00    +0.025 C 
ATOM     15  C   UNL     1      -4.536   3.268 -22.437  0.00  0.00    +0.041 C 
ATOM     16 CL   UNL     1      -5.741   3.375 -22.125  0.00  0.00    -0.084 Cl
ATOM     17  C   UNL     1      -3.676   2.999 -21.549  0.00  0.00    +0.041 C 
ATOM     18  C   UNL     1      -2.470   2.892 -21.864  0.00  0.00    +0.141 C 
ATOM     19  C   UNL     1      -2.536   2.687 -20.630  0.00  0.00    +0.061 C 
ATOM     20  O   UNL     1      -1.060   2.622 -21.398  0.00  0.00    -0.477 OA
ATOM     21  C   UNL     1      -1.410   3.376 -25.472  0.00  0.00    +0.094 C 
ATOM     22  C   UNL     1      -0.043   2.678 -22.503  0.00  0.00    +0.168 A 
ENDROOT
BRANCH   1  24
ATOM     23  C   UNL     1       2.428   1.125 -21.794  0.00  0.00    +0.277 C 
ATOM     24  O   UNL     1       2.035   2.303 -21.950  0.00  0.00    -0.491 OA
ENDBRANCH   1  24
TORSDOF 1
ENDMDL
MODEL 4
REMARK VINA RESULT:   -10.493      2.648      5.068
REMARK INTER + INTRA:         -11.247
REMARK INTER:                 -11.138
REMARK INTRA:                  -0.109
REMARK UNBOUND:                -0.140
REMARK  Name = ZINC000096316377
REMARK  4 active torsions:
REMARK  status: ('A' for Active; 'I' for Inactive)
REMARK    1  A    between atoms: C_1  and  O_2
REMARK    2  A    between atoms: O_2  and  C_3
REMARK    3  A    between atoms: C_10  and  C_11
REMARK    4  A    between atoms: N_19  and  C_20
REMARK                            x       y       z     vdW  Elec       q    Type
REMARK                         _______ _______ _______ _____ _____    ______ ____
ROOT
ATOM      1  C   UNL     1      -3.086   3.301 -23.224  0.00  0.00    +0.162 A 
ATOM      2  C   UNL     1      -3.402   2.776 -22.117  0.00  0.00    +0.050 A 
ATOM      3  C   UNL     1      -2.534   2.220 -21.407  0.00  0.00    +0.008 A 
ATOM      4  C   UNL     1      -1.341   2.183 -21.793  0.00  0.00    -0.034 A 
ATOM      5  C   UNL     1      -1.007   2.701 -22.893  0.00  0.00    +0.016 A 
ATOM      6  C   UNL     1       0.183   2.663 -23.276  0.00  0.00    +0.074 C 
ATOM      7  C   UNL     1       1.502   2.681 -23.813  0.00  0.00    +0.071 C 
ATOM      8  C   UNL     1       2.504   2.062 -23.034  0.00  0.00    +0.133 C 
ATOM      9  N   UNL     1       2.114   1.487 -21.805  0.00  0.00    +0.239 N 
ATOM     10  H   UNL     1       2.800   1.028 -21.208  0.00  0.00    +0.204 HD
ATOM     11  C   UNL     1       2.938   0.919 -21.056  0.00  0.00    +0.191 C 
ATOM     12  C   UNL     1       0.734   1.584 -21.460  0.00  0.00    +0.096 C 
ATOM     13  C   UNL     1       1.054   2.109 -22.567  0.00  0.00    -0.006 C 
ATOM     14  C   UNL     1       2.256   2.071 -22.955  0.00  0.00    +0.025 C 
ATOM     15  C   UNL     1       2.579   2.588 -24.049  0.00  0.00    +0.041 C 
ATOM     16 CL   UNL     1       3.769   2.548 -24.429  0.00  0.00    -0.084 Cl
ATOM     17  C   UNL     1       1.705   3.150 -24.770  0.00  0.00    +0.041 C 
ATOM     18  C   UNL     1       0.514   3.188 -24.387  0.00  0.00    +0.141 C 
ATOM     19  C   UNL     1       0.551   3.771 -25.495  0.00  0.00    +0.061 C 
ATOM     20  O   UNL     1      -0.897   3.634 -24.684  0.00  0.00    -0.477 OA
ATOM     21  C   UNL     1      -0.455   1.619 -21.074  0.00  0.00    +0.094 C 
ATOM     22  C   UNL     1      -1.880   3.262 -23.612  0.00  0.00    +0.168 A 
ENDROOT
BRANCH   1  24
ATOM     23  C   UNL     1      -5.166   3.781 -23.611  0.00  0.00    +0.277 C 
ATOM     24  O   UNL     1      -3.957   3.855 -23.931  0.00  0.00    -0.491 OA
ENDBRANCH   1  24
TORSDOF 1
ENDMDL
MODEL 5
REMARK VINA RESULT:   -10.312      2.387      4.689
REMARK INTER + INTRA:         -11.055
REMARK INTER:                 -11.315
REMARK INTRA:                   0.260
REMARK UNBOUND:                -0.140
REMARK  Name = ZINC000096316377
REMARK  4 active torsions:
REMARK  status: ('A' for Active; 'I' for Inactive)
REMARK    1  A    between atoms: C_1  and  O_2
REMARK    2  A    between atoms: O_2  and  C_3
REMARK    3  A    between atoms: C_10  and  C_11
REMARK    4  A    between atoms: N_19  and  C_20
REMARK                            x       y       z     vdW  Elec       q    Type
REMARK                         _______ _______ _______ _____ _____    ______ ____
ROOT
ATOM      1  C   UNL     1      -4.492   3.379 -22.795  0.00  0.00    +0.162 A 
ATOM      2  C   UNL     1      -4.591   2.964 -21.603  0.00  0.00    +0.050 A 
ATOM      3  C   UNL     1      -3.587   2.521 -21.001  0.00  0.00    +0.008 A 
ATOM      4  C   UNL     1      -2.475   2.485 -21.579  0.00  0.00    -0.034 A 
ATOM      5  C   UNL     1      -2.357   2.894 -22.766  0.00  0.00    +0.016 A 
ATOM      6  C   UNL     1      -1.247   2.858 -23.342  0.00  0.00    +0.074 C 
ATOM      7  C   UNL     1      -0.039   2.865 -24.096  0.00  0.00    +0.071 C 
ATOM      8  C   UNL     1       1.110   2.371 -23.442  0.00  0.00    +0.133 C 
ATOM      9  N   UNL     1       0.962   1.917 -22.114  0.00  0.00    +0.239 N 
ATOM     10  H   UNL     1       1.762   1.551 -21.599  0.00  0.00    +0.204 HD
ATOM     11  C   UNL     1       1.929   1.465 -21.463  0.00  0.00    +0.191 C 
ATOM     12  C   UNL     1      -0.344   2.001 -21.549  0.00  0.00    +0.096 C 
ATOM     13  C   UNL     1      -0.242   2.415 -22.741  0.00  0.00    -0.006 C 
ATOM     14  C   UNL     1       0.879   2.379 -23.323  0.00  0.00    +0.025 C 
ATOM     15  C   UNL     1       0.987   2.786 -24.502  0.00  0.00    +0.041 C 
ATOM     16 CL   UNL     1       2.097   2.749 -25.075  0.00  0.00    -0.084 Cl
ATOM     17  C   UNL     1      -0.024   3.235 -25.115  0.00  0.00    +0.041 C 
ATOM     18  C   UNL     1      -1.135   3.272 -24.540  0.00  0.00    +0.141 C 
ATOM     19  C   UNL     1      -1.314   3.733 -25.691  0.00  0.00    +0.061 C 
ATOM     20  O   UNL     1      -2.597   3.631 -24.634  0.00  0.00    -0.477 OA
ATOM     21  C   UNL     1      -1.452   2.035 -20.970  0.00  0.00    +0.094 C 
ATOM     22  C   UNL     1      -3.367   3.342 -23.378  0.00  0.00    +0.168 A 
ENDROOT
BRANCH   1  24
ATOM     23  C   UNL     1      -5.507   3.881 -24.644  0.00  0.00    +0.277 C 
ATOM     24  O   UNL     1      -5.497   3.821 -23.394  0.00  0.00    -0.491 OA
ENDBRANCH   1  24
TORSDOF 1
ENDMDL
MODEL 6
REMARK VINA RESULT:    -9.942      2.911      5.802
REMARK INTER + INTRA:         -10.663
REMARK INTER:                 -10.548
REMARK INTRA:                  -0.115
REMARK UNBOUND:                -0.140
REMARK  Name = ZINC000096316377
REMARK  4 active torsions:
REMARK  status: ('A' for Active; 'I' for Inactive)
REMARK    1  A    between atoms: C_1  and  O_2
REMARK    2  A    between atoms: O_2  and  C_3
REMARK    3  A    between atoms: C_10  and  C_11
REMARK    4  A    between atoms: N_19  and  C_20
REMARK                            x       y       z     vdW  Elec       q    Type
REMARK                         _______ _______ _______ _____ _____    ______ ____
ROOT
ATOM      1  C   UNL     1      -2.850   3.177 -24.442  0.00  0.00    +0.162 A 
ATOM      2  C   UNL     1      -2.508   3.651 -25.565  0.00  0.00    +0.050 A 
ATOM      3  C   UNL     1      -1.299   3.719 -25.883  0.00  0.00    +0.008 A 
ATOM      4  C   UNL     1      -0.418   3.315 -25.087  0.00  0.00    -0.034 A 
ATOM      5  C   UNL     1      -0.739   2.840 -23.964  0.00  0.00    +0.016 A 
ATOM      6  C   UNL     1       0.140   2.438 -23.171  0.00  0.00    +0.074 C 
ATOM      7  C   UNL     1       1.050   1.951 -22.190  0.00  0.00    +0.071 C 
ATOM      8  C   UNL     1       2.421   2.014 -22.521  0.00  0.00    +0.133 C 
ATOM      9  N   UNL     1       2.764   2.549 -23.781  0.00  0.00    +0.239 N 
ATOM     10  H   UNL     1       3.740   2.616 -24.066  0.00  0.00    +0.204 HD
ATOM     11  C   UNL     1       3.954   2.641 -24.153  0.00  0.00    +0.191 C 
ATOM     12  C   UNL     1       1.688   2.979 -24.611  0.00  0.00    +0.096 C 
ATOM     13  C   UNL     1       1.349   2.505 -23.488  0.00  0.00    -0.006 C 
ATOM     14  C   UNL     1       2.237   2.098 -22.685  0.00  0.00    +0.025 C 
ATOM     15  C   UNL     1       1.909   1.627 -21.572  0.00  0.00    +0.041 C 
ATOM     16 CL   UNL     1       2.790   1.226 -20.781  0.00  0.00    -0.084 Cl
ATOM     17  C   UNL     1       0.689   1.557 -21.246  0.00  0.00    +0.041 C 
ATOM     18  C   UNL     1      -0.191   1.959 -22.039  0.00  0.00    +0.141 C 
ATOM     19  C   UNL     1      -0.791   1.546 -21.020  0.00  0.00    +0.061 C 
ATOM     20  O   UNL     1      -1.664   2.161 -22.298  0.00  0.00    -0.477 OA
ATOM     21  C   UNL     1       0.812   3.382 -25.407  0.00  0.00    +0.094 C 
ATOM     22  C   UNL     1      -1.958   2.770 -23.639  0.00  0.00    +0.168 A 
ENDROOT
BRANCH   1  24
ATOM     23  C   UNL     1      -4.837   4.045 -24.425  0.00  0.00    +0.277 C 
ATOM     24  O   UNL     1      -4.059   3.111 -24.127  0.00  0.00    -0.491 OA
ENDBRANCH   1  24
TORSDOF 1
ENDMDL
MODEL 7
REMARK VINA RESULT:    -9.873      3.694      6.536
REMARK INTER + INTRA:         -10.590
REMARK INTER:                 -10.467
REMARK INTRA:                  -0.124
REMARK UNBOUND:                -0.140
REMARK  Name = ZINC000096316377
REMARK  4 active torsions:
REMARK  status: ('A' for Active; 'I' for Inactive)
REMARK    1  A    between atoms: C_1  and  O_2
REMARK    2  A    between atoms: O_2  and  C_3
REMARK    3  A    between atoms: C_10  and  C_11
REMARK    4  A    between atoms: N_19  and  C_20
REMARK                            x       y       z     vdW  Elec       q    Type
REMARK                         _______ _______ _______ _____ _____    ______ ____
ROOT
ATOM      1  C   UNL     1      -0.994   3.114 -23.424  0.00  0.00    +0.162 A 
ATOM      2  C   UNL     1      -1.094   4.353 -23.663  0.00  0.00    +0.050 A 
ATOM      3  C   UNL     1      -0.078   5.086 -23.650  0.00  0.00    +0.008 A 
ATOM      4  C   UNL     1       1.047   4.591 -23.400  0.00  0.00    -0.034 A 
ATOM      5  C   UNL     1       1.166   3.359 -23.160  0.00  0.00    +0.016 A 
ATOM      6  C   UNL     1       2.288   2.867 -22.911  0.00  0.00    +0.074 C 
ATOM      7  C   UNL     1       3.510   2.198 -22.615  0.00  0.00    +0.071 C 
ATOM      8  C   UNL     1       4.673   2.999 -22.594  0.00  0.00    +0.133 C 
ATOM      9  N   UNL     1       4.523   4.376 -22.865  0.00  0.00    +0.239 N 
ATOM     10  H   UNL     1       5.333   4.995 -22.861  0.00  0.00    +0.204 HD
ATOM     11  C   UNL     1       5.501   5.154 -22.866  0.00  0.00    +0.191 C 
ATOM     12  C   UNL     1       3.202   4.837 -23.137  0.00  0.00    +0.096 C 
ATOM     13  C   UNL     1       3.305   3.598 -22.898  0.00  0.00    -0.006 C 
ATOM     14  C   UNL     1       4.439   3.100 -22.646  0.00  0.00    +0.025 C 
ATOM     15  C   UNL     1       4.548   1.875 -22.409  0.00  0.00    +0.041 C 
ATOM     16 CL   UNL     1       5.671   1.386 -22.160  0.00  0.00    -0.084 Cl
ATOM     17  C   UNL     1       3.525   1.131 -22.420  0.00  0.00    +0.041 C 
ATOM     18  C   UNL     1       2.402   1.622 -22.669  0.00  0.00    +0.141 C 
ATOM     19  C   UNL     1       2.220   0.399 -22.474  0.00  0.00    +0.061 C 
ATOM     20  O   UNL     1       0.922   1.377 -22.836  0.00  0.00    -0.477 OA
ATOM     21  C   UNL     1       2.081   5.332 -23.387  0.00  0.00    +0.094 C 
ATOM     22  C   UNL     1       0.144   2.617 -23.172  0.00  0.00    +0.168 A 
ENDROOT
BRANCH   1  24
ATOM     23  C   UNL     1      -2.973   2.637 -22.677  0.00  0.00    +0.277 C 
ATOM     24  O   UNL     1      -2.011   2.386 -23.438  0.00  0.00    -0.491 OA
ENDBRANCH   1  24
TORSDOF 1
ENDMDL
MODEL 8
REMARK VINA RESULT:    -9.316      1.694      3.249
REMARK INTER + INTRA:         -10.001
REMARK INTER:                  -9.860
REMARK INTRA:                  -0.140
REMARK UNBOUND:                -0.140
REMARK  Name = ZINC000096316377
REMARK  4 active torsions:
REMARK  status: ('A' for Active; 'I' for Inactive)
REMARK    1  A    between atoms: C_1  and  O_2
REMARK    2  A    between atoms: O_2  and  C_3
REMARK    3  A    between atoms: C_10  and  C_11
REMARK    4  A    between atoms: N_19  and  C_20
REMARK                            x       y       z     vdW  Elec       q    Type
REMARK                         _______ _______ _______ _____ _____    ______ ____
ROOT
ATOM      1  C   UNL     1       0.557   3.064 -24.955  0.00  0.00    +0.162 A 
ATOM      2  C   UNL     1       0.072   3.535 -26.024  0.00  0.00    +0.050 A 
ATOM      3  C   UNL     1      -1.148   3.806 -26.102  0.00  0.00    +0.008 A 
ATOM      4  C   UNL     1      -1.896   3.610 -25.115  0.00  0.00    -0.034 A 
ATOM      5  C   UNL     1      -1.431   3.141 -24.041  0.00  0.00    +0.016 A 
ATOM      6  C   UNL     1      -2.179   2.946 -23.058  0.00  0.00    +0.074 C 
ATOM      7  C   UNL     1      -2.932   2.683 -21.878  0.00  0.00    +0.071 C 
ATOM      8  C   UNL     1      -4.310   2.978 -21.936  0.00  0.00    +0.133 C 
ATOM      9  N   UNL     1      -4.816   3.503 -23.145  0.00  0.00    +0.239 N 
ATOM     10  H   UNL     1      -5.805   3.732 -23.235  0.00  0.00    +0.204 HD
ATOM     11  C   UNL     1      -6.025   3.792 -23.280  0.00  0.00    +0.191 C 
ATOM     12  C   UNL     1      -3.881   3.688 -24.205  0.00  0.00    +0.096 C 
ATOM     13  C   UNL     1      -3.399   3.216 -23.134  0.00  0.00    -0.006 C 
ATOM     14  C   UNL     1      -4.154   3.018 -22.140  0.00  0.00    +0.025 C 
ATOM     15  C   UNL     1      -3.684   2.552 -21.077  0.00  0.00    +0.041 C 
ATOM     16 CL   UNL     1      -4.433   2.358 -20.096  0.00  0.00    -0.084 Cl
ATOM     17  C   UNL     1      -2.452   2.277 -20.994  0.00  0.00    +0.041 C 
ATOM     18  C   UNL     1      -1.703   2.472 -21.977  0.00  0.00    +0.141 C 
ATOM     19  C   UNL     1      -0.980   2.008 -21.065  0.00  0.00    +0.061 C 
ATOM     20  O   UNL     1      -0.305   2.389 -22.539  0.00  0.00    -0.477 OA
ATOM     21  C   UNL     1      -3.137   3.884 -25.190  0.00  0.00    +0.094 C 
ATOM     22  C   UNL     1      -0.201   2.866 -23.959  0.00  0.00    +0.168 A 
ENDROOT
BRANCH   1  24
ATOM     23  C   UNL     1       2.551   3.555 -24.258  0.00  0.00    +0.277 C 
ATOM     24  O   UNL     1       1.777   2.794 -24.881  0.00  0.00    -0.491 OA
ENDBRANCH   1  24
TORSDOF 1
ENDMDL
MODEL 9
REMARK VINA RESULT:    -9.314      3.441      5.945
REMARK INTER + INTRA:          -9.999
REMARK INTER:                  -9.890
REMARK INTRA:                  -0.109
REMARK UNBOUND:                -0.140
REMARK  Name = ZINC000096316377
REMARK  4 active torsions:
REMARK  status: ('A' for Active; 'I' for Inactive)
REMARK    1  A    between atoms: C_1  and  O_2
REMARK    2  A    between atoms: O_2  and  C_3
REMARK    3  A    between atoms: C_10  and  C_11
REMARK    4  A    between atoms: N_19  and  C_20
REMARK                            x       y       z     vdW  Elec       q    Type
REMARK                         _______ _______ _______ _____ _____    ______ ____
ROOT
ATOM      1  C   UNL     1      -1.445   3.096 -22.556  0.00  0.00    +0.162 A 
ATOM      2  C   UNL     1      -1.623   1.943 -22.065  0.00  0.00    +0.050 A 
ATOM      3  C   UNL     1      -0.644   1.215 -21.785  0.00  0.00    +0.008 A 
ATOM      4  C   UNL     1       0.522   1.627 -21.991  0.00  0.00    -0.034 A 
ATOM      5  C   UNL     1       0.720   2.773 -22.479  0.00  0.00    +0.016 A 
ATOM      6  C   UNL     1       1.883   3.182 -22.684  0.00  0.00    +0.074 C 
ATOM      7  C   UNL     1       3.159   3.753 -22.960  0.00  0.00    +0.071 C 
ATOM      8  C   UNL     1       4.282   2.954 -22.655  0.00  0.00    +0.133 C 
ATOM      9  N   UNL     1       4.044   1.675 -22.109  0.00  0.00    +0.239 N 
ATOM     10  H   UNL     1       4.822   1.061 -21.871  0.00  0.00    +0.204 HD
ATOM     11  C   UNL     1       4.982   0.904 -21.810  0.00  0.00    +0.191 C 
ATOM     12  C   UNL     1       2.682   1.302 -21.914  0.00  0.00    +0.096 C 
ATOM     13  C   UNL     1       2.864   2.455 -22.405  0.00  0.00    -0.006 C 
ATOM     14  C   UNL     1       4.039   2.870 -22.612  0.00  0.00    +0.025 C 
ATOM     15  C   UNL     1       4.226   4.009 -23.098  0.00  0.00    +0.041 C 
ATOM     16 CL   UNL     1       5.390   4.416 -23.302  0.00  0.00    -0.084 Cl
ATOM     17  C   UNL     1       3.241   4.749 -23.382  0.00  0.00    +0.041 C 
ATOM     18  C   UNL     1       2.076   4.340 -23.178  0.00  0.00    +0.141 C 
ATOM     19  C   UNL     1       1.970   5.491 -23.660  0.00  0.00    +0.061 C 
ATOM     20  O   UNL     1       0.598   4.634 -23.261  0.00  0.00    -0.477 OA
ATOM     21  C   UNL     1       1.520   0.889 -21.707  0.00  0.00    +0.094 C 
ATOM     22  C   UNL     1      -0.265   3.511 -22.763  0.00  0.00    +0.168 A 
ENDROOT
BRANCH   1  24
ATOM     23  C   UNL     1      -3.588   3.367 -22.745  0.00  0.00    +0.277 C 
ATOM     24  O   UNL     1      -2.425   3.821 -22.834  0.00  0.00    -0.491 OA
ENDBRANCH   1  24
TORSDOF 1
ENDMDL
