MODEL 1
REMARK VINA RESULT:   -11.340      0.000      0.000
REMARK INTER + INTRA:         -12.067
REMARK INTER:                 -11.954
REMARK INTRA:                  -0.112
REMARK UNBOUND:                 0.268
REMARK  Name = COc1ccc2c3c1O[C@]1(C)[C@H](O)[C@H](Cl)C=C4[C@@H](C2)N(C)CC[C@]431    ZINC000253505523
REMARK  5 active torsions:
REMARK  status: ('A' for Active; 'I' for Inactive)
REMARK    1  A    between atoms: C_1  and  O_2
REMARK    2  A    between atoms: O_2  and  C_3
REMARK    3  A    between atoms: C_10  and  C_11
REMARK    4  A    between atoms: C_12  and  O_13
REMARK    5  A    between atoms: N_20  and  C_21
REMARK                            x       y       z     vdW  Elec       q    Type
REMARK                         _______ _______ _______ _____ _____    ______ ____
ROOT
ATOM      1  C   UNL     1       1.627   2.269 -23.781  0.00  0.00    +0.162 A 
ATOM      2  C   UNL     1       1.919   1.797 -22.642  0.00  0.00    +0.050 A 
ATOM      3  C   UNL     1       1.038   1.675 -21.760  0.00  0.00    +0.008 A 
ATOM      4  C   UNL     1      -0.145   2.023 -22.003  0.00  0.00    -0.034 A 
ATOM      5  C   UNL     1      -0.455   2.495 -23.132  0.00  0.00    +0.016 A 
ATOM      6  C   UNL     1      -1.635   2.840 -23.372  0.00  0.00    +0.072 C 
ATOM      7  C   UNL     1      -2.940   3.267 -23.760  0.00  0.00    +0.071 C 
ATOM      8  C   UNL     1      -3.955   3.141 -22.784  0.00  0.00    +0.133 C 
ATOM      9  N   UNL     1      -3.591   2.611 -21.527  0.00  0.00    +0.239 N 
ATOM     10  H   UNL     1      -4.282   2.497 -20.785  0.00  0.00    +0.204 HD
ATOM     11  C   UNL     1      -4.429   2.466 -20.608  0.00  0.00    +0.191 C 
ATOM     12  C   UNL     1      -2.222   2.247 -21.353  0.00  0.00    +0.096 C 
ATOM     13  C   UNL     1      -2.517   2.719 -22.491  0.00  0.00    -0.010 C 
ATOM     14  C   UNL     1      -3.710   3.070 -22.736  0.00  0.00    +0.000 C 
ATOM     15  C   UNL     1      -4.009   3.537 -23.859  0.00  0.00    +0.136 C 
ATOM     16 CL   UNL     1      -5.188   3.882 -24.098  0.00  0.00    -0.115 Cl
ATOM     17  C   UNL     1      -3.122   3.663 -24.755  0.00  0.00    +0.180 C 
ATOM     18  C   UNL     1      -1.942   3.317 -24.514  0.00  0.00    +0.149 C 
ATOM     19  C   UNL     1      -1.955   3.742 -25.694  0.00  0.00    +0.060 C 
ATOM     20  O   UNL     1      -0.527   3.191 -25.033  0.00  0.00    -0.478 OA
ATOM     21  C   UNL     1      -1.044   1.900 -21.109  0.00  0.00    +0.094 C 
ATOM     22  C   UNL     1       0.432   2.619 -24.025  0.00  0.00    +0.167 A 
ENDROOT
BRANCH   1  24
ATOM     23  C   UNL     1       3.708   2.140 -24.386  0.00  0.00    +0.277 C 
ATOM     24  O   UNL     1       2.511   2.389 -24.661  0.00  0.00    -0.491 OA
ENDBRANCH   1  24
BRANCH  17  25
ATOM     25  O   UNL     1      -3.424   4.131 -25.878  0.00  0.00    -0.386 OA
ATOM     26  H   UNL     1      -4.011   4.894 -25.763  0.00  0.00    +0.210 HD
ENDBRANCH  17  25
TORSDOF 2
ENDMDL
MODEL 2
REMARK VINA RESULT:   -11.261      1.867      3.091
REMARK INTER + INTRA:         -11.981
REMARK INTER:                 -11.833
REMARK INTRA:                  -0.148
REMARK UNBOUND:                 0.268
REMARK  Name = COc1ccc2c3c1O[C@]1(C)[C@H](O)[C@H](Cl)C=C4[C@@H](C2)N(C)CC[C@]431    ZINC000253505523
REMARK  5 active torsions:
REMARK  status: ('A' for Active; 'I' for Inactive)
REMARK    1  A    between atoms: C_1  and  O_2
REMARK    2  A    between atoms: O_2  and  C_3
REMARK    3  A    between atoms: C_10  and  C_11
REMARK    4  A    between atoms: C_12  and  O_13
REMARK    5  A    between atoms: N_20  and  C_21
REMARK                            x       y       z     vdW  Elec       q    Type
REMARK                         _______ _______ _______ _____ _____    ______ ____
ROOT
ATOM      1  C   UNL     1       1.330   3.067 -23.307  0.00  0.00    +0.162 A 
ATOM      2  C   UNL     1       1.558   3.205 -24.545  0.00  0.00    +0.050 A 
ATOM      3  C   UNL     1       0.612   3.358 -25.352  0.00  0.00    +0.008 A 
ATOM      4  C   UNL     1      -0.572   3.376 -24.933  0.00  0.00    -0.034 A 
ATOM      5  C   UNL     1      -0.819   3.241 -23.703  0.00  0.00    +0.016 A 
ATOM      6  C   UNL     1      -2.001   3.259 -23.288  0.00  0.00    +0.072 C 
ATOM      7  C   UNL     1      -3.301   3.263 -22.700  0.00  0.00    +0.071 C 
ATOM      8  C   UNL     1      -4.388   3.435 -23.587  0.00  0.00    +0.133 C 
ATOM      9  N   UNL     1      -4.094   3.585 -24.960  0.00  0.00    +0.239 N 
ATOM     10  H   UNL     1      -4.839   3.711 -25.646  0.00  0.00    +0.204 HD
ATOM     11  C   UNL     1      -4.999   3.741 -25.812  0.00  0.00    +0.191 C 
ATOM     12  C   UNL     1      -2.717   3.550 -25.332  0.00  0.00    +0.096 C 
ATOM     13  C   UNL     1      -2.948   3.412 -24.094  0.00  0.00    -0.010 C 
ATOM     14  C   UNL     1      -4.143   3.431 -23.672  0.00  0.00    +0.000 C 
ATOM     15  C   UNL     1      -4.378   3.296 -22.448  0.00  0.00    +0.136 C 
ATOM     16 CL   UNL     1      -5.560   3.314 -22.035  0.00  0.00    -0.115 Cl
ATOM     17  C   UNL     1      -3.426   3.140 -21.628  0.00  0.00    +0.180 C 
ATOM     18  C   UNL     1      -2.244   3.122 -22.044  0.00  0.00    +0.149 C 
ATOM     19  C   UNL     1      -2.187   2.967 -20.800  0.00  0.00    +0.060 C 
ATOM     20  O   UNL     1      -0.779   2.994 -21.693  0.00  0.00    -0.478 OA
ATOM     21  C   UNL     1      -1.537   3.532 -25.751  0.00  0.00    +0.094 C 
ATOM     22  C   UNL     1       0.134   3.086 -22.885  0.00  0.00    +0.167 A 
ENDROOT
BRANCH   1  24
ATOM     23  C   UNL     1       2.547   1.772 -22.060  0.00  0.00    +0.277 C 
ATOM     24  O   UNL     1       2.278   2.914 -22.502  0.00  0.00    -0.491 OA
ENDBRANCH   1  24
BRANCH  17  25
ATOM     25  O   UNL     1      -3.665   3.005 -20.404  0.00  0.00    -0.386 OA
ATOM     26  H   UNL     1      -4.441   3.536 -20.167  0.00  0.00    +0.210 HD
ENDBRANCH  17  25
TORSDOF 2
ENDMDL
MODEL 3
REMARK VINA RESULT:   -11.124      2.373      4.942
REMARK INTER + INTRA:         -11.831
REMARK INTER:                 -11.719
REMARK INTRA:                  -0.112
REMARK UNBOUND:                 0.268
REMARK  Name = COc1ccc2c3c1O[C@]1(C)[C@H](O)[C@H](Cl)C=C4[C@@H](C2)N(C)CC[C@]431    ZINC000253505523
REMARK  5 active torsions:
REMARK  status: ('A' for Active; 'I' for Inactive)
REMARK    1  A    between atoms: C_1  and  O_2
REMARK    2  A    between atoms: O_2  and  C_3
REMARK    3  A    between atoms: C_10  and  C_11
REMARK    4  A    between atoms: C_12  and  O_13
REMARK    5  A    between atoms: N_20  and  C_21
REMARK                            x       y       z     vdW  Elec       q    Type
REMARK                         _______ _______ _______ _____ _____    ______ ____
ROOT
ATOM      1  C   UNL     1      -3.461   3.268 -23.151  0.00  0.00    +0.162 A 
ATOM      2  C   UNL     1      -3.712   2.795 -22.003  0.00  0.00    +0.050 A 
ATOM      3  C   UNL     1      -2.801   2.277 -21.316  0.00  0.00    +0.008 A 
ATOM      4  C   UNL     1      -1.629   2.226 -21.766  0.00  0.00    -0.034 A 
ATOM      5  C   UNL     1      -1.360   2.693 -22.908  0.00  0.00    +0.016 A 
ATOM      6  C   UNL     1      -0.191   2.641 -23.354  0.00  0.00    +0.072 C 
ATOM      7  C   UNL     1       1.098   2.638 -23.966  0.00  0.00    +0.071 C 
ATOM      8  C   UNL     1       2.146   2.061 -23.214  0.00  0.00    +0.133 C 
ATOM      9  N   UNL     1       1.828   1.543 -21.939  0.00  0.00    +0.239 N 
ATOM     10  H   UNL     1       2.545   1.115 -21.352  0.00  0.00    +0.204 HD
ATOM     11  C   UNL     1       2.698   1.015 -21.209  0.00  0.00    +0.191 C 
ATOM     12  C   UNL     1       0.468   1.651 -21.521  0.00  0.00    +0.096 C 
ATOM     13  C   UNL     1       0.722   2.124 -22.669  0.00  0.00    -0.010 C 
ATOM     14  C   UNL     1       1.904   2.072 -23.123  0.00  0.00    +0.000 C 
ATOM     15  C   UNL     1       2.162   2.538 -24.257  0.00  0.00    +0.136 C 
ATOM     16 CL   UNL     1       3.331   2.485 -24.702  0.00  0.00    -0.115 Cl
ATOM     17  C   UNL     1       1.244   3.062 -24.955  0.00  0.00    +0.180 C 
ATOM     18  C   UNL     1       0.075   3.114 -24.508  0.00  0.00    +0.149 C 
ATOM     19  C   UNL     1       0.046   3.644 -25.645  0.00  0.00    +0.060 C 
ATOM     20  O   UNL     1      -1.356   3.540 -24.748  0.00  0.00    -0.478 OA
ATOM     21  C   UNL     1      -0.700   1.701 -21.071  0.00  0.00    +0.094 C 
ATOM     22  C   UNL     1      -2.277   3.216 -23.604  0.00  0.00    +0.167 A 
ENDROOT
BRANCH   1  24
ATOM     23  C   UNL     1      -5.559   3.760 -23.423  0.00  0.00    +0.277 C 
ATOM     24  O   UNL     1      -4.375   3.785 -23.835  0.00  0.00    -0.491 OA
ENDBRANCH   1  24
BRANCH  17  25
ATOM     25  O   UNL     1       1.506   3.527 -26.090  0.00  0.00    -0.386 OA
ATOM     26  H   UNL     1       2.119   2.933 -26.550  0.00  0.00    +0.210 HD
ENDBRANCH  17  25
TORSDOF 2
ENDMDL
MODEL 4
REMARK VINA RESULT:   -11.018      2.636      5.607
REMARK INTER + INTRA:         -11.716
REMARK INTER:                 -11.647
REMARK INTRA:                  -0.070
REMARK UNBOUND:                 0.268
REMARK  Name = COc1ccc2c3c1O[C@]1(C)[C@H](O)[C@H](Cl)C=C4[C@@H](C2)N(C)CC[C@]431    ZINC000253505523
REMARK  5 active torsions:
REMARK  status: ('A' for Active; 'I' for Inactive)
REMARK    1  A    between atoms: C_1  and  O_2
REMARK    2  A    between atoms: O_2  and  C_3
REMARK    3  A    between atoms: C_10  and  C_11
REMARK    4  A    between atoms: C_12  and  O_13
REMARK    5  A    between atoms: N_20  and  C_21
REMARK                            x       y       z     vdW  Elec       q    Type
REMARK                         _______ _______ _______ _____ _____    ______ ____
ROOT
ATOM      1  C   UNL     1      -4.632   3.712 -23.076  0.00  0.00    +0.162 A 
ATOM      2  C   UNL     1      -4.812   4.154 -24.250  0.00  0.00    +0.050 A 
ATOM      3  C   UNL     1      -3.872   4.159 -25.078  0.00  0.00    +0.008 A 
ATOM      4  C   UNL     1      -2.742   3.723 -24.746  0.00  0.00    -0.034 A 
ATOM      5  C   UNL     1      -2.543   3.279 -23.581  0.00  0.00    +0.016 A 
ATOM      6  C   UNL     1      -1.415   2.845 -23.253  0.00  0.00    +0.072 C 
ATOM      7  C   UNL     1      -0.178   2.327 -22.765  0.00  0.00    +0.071 C 
ATOM      8  C   UNL     1       0.901   2.321 -23.679  0.00  0.00    +0.133 C 
ATOM      9  N   UNL     1       0.661   2.822 -24.977  0.00  0.00    +0.239 N 
ATOM     10  H   UNL     1       1.403   2.841 -25.678  0.00  0.00    +0.204 HD
ATOM     11  C   UNL     1       1.563   2.851 -25.846  0.00  0.00    +0.191 C 
ATOM     12  C   UNL     1      -0.657   3.293 -25.253  0.00  0.00    +0.096 C 
ATOM     13  C   UNL     1      -0.473   2.850 -24.080  0.00  0.00    -0.010 C 
ATOM     14  C   UNL     1       0.667   2.410 -23.746  0.00  0.00    +0.000 C 
ATOM     15  C   UNL     1       0.855   1.971 -22.587  0.00  0.00    +0.136 C 
ATOM     16 CL   UNL     1       1.983   1.538 -22.260  0.00  0.00    -0.115 Cl
ATOM     17  C   UNL     1      -0.092   1.963 -21.745  0.00  0.00    +0.180 C 
ATOM     18  C   UNL     1      -1.220   2.397 -22.075  0.00  0.00    +0.149 C 
ATOM     19  C   UNL     1      -1.315   2.027 -20.880  0.00  0.00    +0.060 C 
ATOM     20  O   UNL     1      -2.646   2.668 -21.653  0.00  0.00    -0.478 OA
ATOM     21  C   UNL     1      -1.784   3.727 -25.586  0.00  0.00    +0.094 C 
ATOM     22  C   UNL     1      -3.489   3.272 -22.742  0.00  0.00    +0.167 A 
ENDROOT
BRANCH   1  24
ATOM     23  C   UNL     1      -5.958   2.628 -21.742  0.00  0.00    +0.277 C 
ATOM     24  O   UNL     1      -5.574   3.708 -22.250  0.00  0.00    -0.491 OA
ENDBRANCH   1  24
BRANCH  17  25
ATOM     25  O   UNL     1       0.100   1.523 -20.587  0.00  0.00    -0.386 OA
ATOM     26  H   UNL     1      -0.613   1.825 -20.004  0.00  0.00    +0.210 HD
ENDBRANCH  17  25
TORSDOF 2
ENDMDL
MODEL 5
REMARK VINA RESULT:   -10.427      3.499      6.422
REMARK INTER + INTRA:         -11.073
REMARK INTER:                 -10.953
REMARK INTRA:                  -0.120
REMARK UNBOUND:                 0.268
REMARK  Name = COc1ccc2c3c1O[C@]1(C)[C@H](O)[C@H](Cl)C=C4[C@@H](C2)N(C)CC[C@]431    ZINC000253505523
REMARK  5 active torsions:
REMARK  status: ('A' for Active; 'I' for Inactive)
REMARK    1  A    between atoms: C_1  and  O_2
REMARK    2  A    between atoms: O_2  and  C_3
REMARK    3  A    between atoms: C_10  and  C_11
REMARK    4  A    between atoms: C_12  and  O_13
REMARK    5  A    between atoms: N_20  and  C_21
REMARK                            x       y       z     vdW  Elec       q    Type
REMARK                         _______ _______ _______ _____ _____    ______ ____
ROOT
ATOM      1  C   UNL     1      -1.245   3.260 -23.370  0.00  0.00    +0.162 A 
ATOM      2  C   UNL     1      -1.336   4.499 -23.623  0.00  0.00    +0.050 A 
ATOM      3  C   UNL     1      -0.313   5.223 -23.627  0.00  0.00    +0.008 A 
ATOM      4  C   UNL     1       0.811   4.720 -23.379  0.00  0.00    -0.034 A 
ATOM      5  C   UNL     1       0.921   3.489 -23.125  0.00  0.00    +0.016 A 
ATOM      6  C   UNL     1       2.044   2.991 -22.878  0.00  0.00    +0.072 C 
ATOM      7  C   UNL     1       3.264   2.313 -22.583  0.00  0.00    +0.071 C 
ATOM      8  C   UNL     1       4.435   3.105 -22.580  0.00  0.00    +0.133 C 
ATOM      9  N   UNL     1       4.294   4.481 -22.866  0.00  0.00    +0.239 N 
ATOM     10  H   UNL     1       5.105   5.101 -22.878  0.00  0.00    +0.204 HD
ATOM     11  C   UNL     1       5.280   5.252 -22.884  0.00  0.00    +0.191 C 
ATOM     12  C   UNL     1       2.973   4.952 -23.134  0.00  0.00    +0.096 C 
ATOM     13  C   UNL     1       3.068   3.713 -22.881  0.00  0.00    -0.010 C 
ATOM     14  C   UNL     1       4.202   3.207 -22.631  0.00  0.00    +0.000 C 
ATOM     15  C   UNL     1       4.302   1.984 -22.380  0.00  0.00    +0.136 C 
ATOM     16 CL   UNL     1       5.424   1.487 -22.134  0.00  0.00    -0.115 Cl
ATOM     17  C   UNL     1       3.271   1.247 -22.375  0.00  0.00    +0.180 C 
ATOM     18  C   UNL     1       2.149   1.746 -22.622  0.00  0.00    +0.149 C 
ATOM     19  C   UNL     1       1.957   0.524 -22.410  0.00  0.00    +0.060 C 
ATOM     20  O   UNL     1       0.663   1.511 -22.775  0.00  0.00    -0.478 OA
ATOM     21  C   UNL     1       1.853   5.453 -23.382  0.00  0.00    +0.094 C 
ATOM     22  C   UNL     1      -0.109   2.755 -23.120  0.00  0.00    +0.167 A 
ENDROOT
BRANCH   1  24
ATOM     23  C   UNL     1      -3.332   2.960 -22.851  0.00  0.00    +0.277 C 
ATOM     24  O   UNL     1      -2.270   2.539 -23.367  0.00  0.00    -0.491 OA
ENDBRANCH   1  24
BRANCH  17  25
ATOM     25  O   UNL     1       3.375   0.023 -22.123  0.00  0.00    -0.386 OA
ATOM     26  H   UNL     1       2.651  -0.250 -21.538  0.00  0.00    +0.210 HD
ENDBRANCH  17  25
TORSDOF 2
ENDMDL
MODEL 6
REMARK VINA RESULT:   -10.153      2.970      5.828
REMARK INTER + INTRA:         -10.775
REMARK INTER:                 -10.656
REMARK INTRA:                  -0.120
REMARK UNBOUND:                 0.268
REMARK  Name = COc1ccc2c3c1O[C@]1(C)[C@H](O)[C@H](Cl)C=C4[C@@H](C2)N(C)CC[C@]431    ZINC000253505523
REMARK  5 active torsions:
REMARK  status: ('A' for Active; 'I' for Inactive)
REMARK    1  A    between atoms: C_1  and  O_2
REMARK    2  A    between atoms: O_2  and  C_3
REMARK    3  A    between atoms: C_10  and  C_11
REMARK    4  A    between atoms: C_12  and  O_13
REMARK    5  A    between atoms: N_20  and  C_21
REMARK                            x       y       z     vdW  Elec       q    Type
REMARK                         _______ _______ _______ _____ _____    ______ ____
ROOT
ATOM      1  C   UNL     1      -2.404   3.074 -24.454  0.00  0.00    +0.162 A 
ATOM      2  C   UNL     1      -2.067   3.551 -25.578  0.00  0.00    +0.050 A 
ATOM      3  C   UNL     1      -0.857   3.667 -25.881  0.00  0.00    +0.008 A 
ATOM      4  C   UNL     1       0.031   3.309 -25.067  0.00  0.00    -0.034 A 
ATOM      5  C   UNL     1      -0.286   2.832 -23.942  0.00  0.00    +0.016 A 
ATOM      6  C   UNL     1       0.601   2.476 -23.133  0.00  0.00    +0.072 C 
ATOM      7  C   UNL     1       1.518   2.038 -22.132  0.00  0.00    +0.071 C 
ATOM      8  C   UNL     1       2.891   2.158 -22.447  0.00  0.00    +0.133 C 
ATOM      9  N   UNL     1       3.228   2.694 -23.709  0.00  0.00    +0.239 N 
ATOM     10  H   UNL     1       4.203   2.803 -23.990  0.00  0.00    +0.204 HD
ATOM     11  C   UNL     1       4.420   2.833 -24.066  0.00  0.00    +0.191 C 
ATOM     12  C   UNL     1       2.146   3.069 -24.560  0.00  0.00    +0.096 C 
ATOM     13  C   UNL     1       1.811   2.592 -23.434  0.00  0.00    -0.010 C 
ATOM     14  C   UNL     1       2.707   2.231 -22.613  0.00  0.00    +0.000 C 
ATOM     15  C   UNL     1       2.383   1.759 -21.499  0.00  0.00    +0.136 C 
ATOM     16 CL   UNL     1       3.270   1.403 -20.691  0.00  0.00    -0.115 Cl
ATOM     17  C   UNL     1       1.161   1.639 -21.187  0.00  0.00    +0.180 C 
ATOM     18  C   UNL     1       0.275   1.995 -21.998  0.00  0.00    +0.149 C 
ATOM     19  C   UNL     1      -0.323   1.567 -20.981  0.00  0.00    +0.060 C 
ATOM     20  O   UNL     1      -1.205   2.131 -22.279  0.00  0.00    -0.478 OA
ATOM     21  C   UNL     1       1.262   3.426 -25.372  0.00  0.00    +0.094 C 
ATOM     22  C   UNL     1      -1.507   2.713 -23.633  0.00  0.00    +0.167 A 
ENDROOT
BRANCH   1  24
ATOM     23  C   UNL     1      -4.425   3.869 -24.451  0.00  0.00    +0.277 C 
ATOM     24  O   UNL     1      -3.615   2.959 -24.153  0.00  0.00    -0.491 OA
ENDBRANCH   1  24
BRANCH  17  25
ATOM     25  O   UNL     1       0.840   1.165 -20.071  0.00  0.00    -0.386 OA
ATOM     26  H   UNL     1       1.636   0.861 -19.608  0.00  0.00    +0.210 HD
ENDBRANCH  17  25
TORSDOF 2
ENDMDL
MODEL 7
REMARK VINA RESULT:    -8.872      3.290      4.957
REMARK INTER + INTRA:          -9.382
REMARK INTER:                  -9.263
REMARK INTRA:                  -0.119
REMARK UNBOUND:                 0.268
REMARK  Name = COc1ccc2c3c1O[C@]1(C)[C@H](O)[C@H](Cl)C=C4[C@@H](C2)N(C)CC[C@]431    ZINC000253505523
REMARK  5 active torsions:
REMARK  status: ('A' for Active; 'I' for Inactive)
REMARK    1  A    between atoms: C_1  and  O_2
REMARK    2  A    between atoms: O_2  and  C_3
REMARK    3  A    between atoms: C_10  and  C_11
REMARK    4  A    between atoms: C_12  and  O_13
REMARK    5  A    between atoms: N_20  and  C_21
REMARK                            x       y       z     vdW  Elec       q    Type
REMARK                         _______ _______ _______ _____ _____    ______ ____
ROOT
ATOM      1  C   UNL     1       5.787   3.483 -22.744  0.00  0.00    +0.162 A 
ATOM      2  C   UNL     1       5.885   4.729 -22.953  0.00  0.00    +0.050 A 
ATOM      3  C   UNL     1       4.858   5.432 -23.094  0.00  0.00    +0.008 A 
ATOM      4  C   UNL     1       3.721   4.901 -23.028  0.00  0.00    -0.034 A 
ATOM      5  C   UNL     1       3.603   3.661 -22.822  0.00  0.00    +0.016 A 
ATOM      6  C   UNL     1       2.469   3.135 -22.757  0.00  0.00    +0.072 C 
ATOM      7  C   UNL     1       1.234   2.425 -22.664  0.00  0.00    +0.071 C 
ATOM      8  C   UNL     1       0.058   3.194 -22.819  0.00  0.00    +0.133 C 
ATOM      9  N   UNL     1       0.208   4.579 -23.050  0.00  0.00    +0.239 N 
ATOM     10  H   UNL     1      -0.606   5.183 -23.170  0.00  0.00    +0.204 HD
ATOM     11  C   UNL     1      -0.783   5.331 -23.198  0.00  0.00    +0.191 C 
ATOM     12  C   UNL     1       1.542   5.083 -23.106  0.00  0.00    +0.096 C 
ATOM     13  C   UNL     1       1.440   3.837 -22.898  0.00  0.00    -0.010 C 
ATOM     14  C   UNL     1       0.294   3.302 -22.832  0.00  0.00    +0.000 C 
ATOM     15  C   UNL     1       0.186   2.071 -22.627  0.00  0.00    +0.136 C 
ATOM     16 CL   UNL     1      -0.948   1.545 -22.563  0.00  0.00    -0.115 Cl
ATOM     17  C   UNL     1       1.222   1.354 -22.483  0.00  0.00    +0.180 C 
ATOM     18  C   UNL     1       2.356   1.882 -22.548  0.00  0.00    +0.149 C 
ATOM     19  C   UNL     1       2.543   0.659 -22.338  0.00  0.00    +0.060 C 
ATOM     20  O   UNL     1       3.853   1.680 -22.482  0.00  0.00    -0.478 OA
ATOM     21  C   UNL     1       2.675   5.613 -23.171  0.00  0.00    +0.094 C 
ATOM     22  C   UNL     1       4.638   2.948 -22.679  0.00  0.00    +0.167 A 
ENDROOT
BRANCH   1  24
ATOM     23  C   UNL     1       7.838   3.023 -23.289  0.00  0.00    +0.277 C 
ATOM     24  O   UNL     1       6.816   2.782 -22.604  0.00  0.00    -0.491 OA
ENDBRANCH   1  24
BRANCH  17  25
ATOM     25  O   UNL     1       1.110   0.122 -22.278  0.00  0.00    -0.386 OA
ATOM     26  H   UNL     1       1.964  -0.310 -22.435  0.00  0.00    +0.210 HD
ENDBRANCH  17  25
TORSDOF 2
ENDMDL
MODEL 8
REMARK VINA RESULT:    -8.632      3.754      6.596
REMARK INTER + INTRA:          -9.121
REMARK INTER:                  -8.975
REMARK INTRA:                  -0.147
REMARK UNBOUND:                 0.268
REMARK  Name = COc1ccc2c3c1O[C@]1(C)[C@H](O)[C@H](Cl)C=C4[C@@H](C2)N(C)CC[C@]431    ZINC000253505523
REMARK  5 active torsions:
REMARK  status: ('A' for Active; 'I' for Inactive)
REMARK    1  A    between atoms: C_1  and  O_2
REMARK    2  A    between atoms: O_2  and  C_3
REMARK    3  A    between atoms: C_10  and  C_11
REMARK    4  A    between atoms: C_12  and  O_13
REMARK    5  A    between atoms: N_20  and  C_21
REMARK                            x       y       z     vdW  Elec       q    Type
REMARK                         _______ _______ _______ _____ _____    ______ ____
ROOT
ATOM      1  C   UNL     1      -0.178   3.316 -23.187  0.00  0.00    +0.162 A 
ATOM      2  C   UNL     1      -0.719   2.271 -22.717  0.00  0.00    +0.050 A 
ATOM      3  C   UNL     1      -0.023   1.394 -22.155  0.00  0.00    +0.008 A 
ATOM      4  C   UNL     1       1.220   1.549 -22.054  0.00  0.00    -0.034 A 
ATOM      5  C   UNL     1       1.776   2.584 -22.516  0.00  0.00    +0.016 A 
ATOM      6  C   UNL     1       3.016   2.735 -22.414  0.00  0.00    +0.072 C 
ATOM      7  C   UNL     1       4.413   3.018 -22.358  0.00  0.00    +0.071 C 
ATOM      8  C   UNL     1       5.222   2.045 -21.728  0.00  0.00    +0.133 C 
ATOM      9  N   UNL     1       4.584   0.894 -21.217  0.00  0.00    +0.239 N 
ATOM     10  H   UNL     1       5.119   0.159 -20.752  0.00  0.00    +0.204 HD
ATOM     11  C   UNL     1       5.228  -0.015 -20.645  0.00  0.00    +0.191 C 
ATOM     12  C   UNL     1       3.169   0.815 -21.383  0.00  0.00    +0.096 C 
ATOM     13  C   UNL     1       3.713   1.859 -21.851  0.00  0.00    -0.010 C 
ATOM     14  C   UNL     1       4.966   2.015 -21.750  0.00  0.00    +0.000 C 
ATOM     15  C   UNL     1       5.510   3.045 -22.211  0.00  0.00    +0.136 C 
ATOM     16 CL   UNL     1       6.749   3.196 -22.109  0.00  0.00    -0.115 Cl
ATOM     17  C   UNL     1       4.812   3.935 -22.781  0.00  0.00    +0.180 C 
ATOM     18  C   UNL     1       3.572   3.782 -22.883  0.00  0.00    +0.149 C 
ATOM     19  C   UNL     1       3.841   4.883 -23.421  0.00  0.00    +0.060 C 
ATOM     20  O   UNL     1       2.261   4.353 -23.374  0.00  0.00    -0.478 OA
ATOM     21  C   UNL     1       1.930   0.660 -21.482  0.00  0.00    +0.094 C 
ATOM     22  C   UNL     1       1.077   3.471 -23.085  0.00  0.00    +0.167 A 
ENDROOT
BRANCH   1  24
ATOM     23  C   UNL     1      -1.163   5.250 -23.142  0.00  0.00    +0.277 C 
ATOM     24  O   UNL     1      -0.876   4.192 -23.750  0.00  0.00    -0.491 OA
ENDBRANCH   1  24
BRANCH  17  25
ATOM     25  O   UNL     1       5.359   4.965 -23.242  0.00  0.00    -0.386 OA
ATOM     26  H   UNL     1       5.384   4.913 -24.210  0.00  0.00    +0.210 HD
ENDBRANCH  17  25
TORSDOF 2
ENDMDL
MODEL 9
REMARK VINA RESULT:    -8.439      2.165      3.396
REMARK INTER + INTRA:          -8.911
REMARK INTER:                  -9.179
REMARK INTRA:                   0.268
REMARK UNBOUND:                 0.268
REMARK  Name = COc1ccc2c3c1O[C@]1(C)[C@H](O)[C@H](Cl)C=C4[C@@H](C2)N(C)CC[C@]431    ZINC000253505523
REMARK  5 active torsions:
REMARK  status: ('A' for Active; 'I' for Inactive)
REMARK    1  A    between atoms: C_1  and  O_2
REMARK    2  A    between atoms: O_2  and  C_3
REMARK    3  A    between atoms: C_10  and  C_11
REMARK    4  A    between atoms: C_12  and  O_13
REMARK    5  A    between atoms: N_20  and  C_21
REMARK                            x       y       z     vdW  Elec       q    Type
REMARK                         _______ _______ _______ _____ _____    ______ ____
ROOT
ATOM      1  C   UNL     1       3.187   2.239 -22.623  0.00  0.00    +0.162 A 
ATOM      2  C   UNL     1       3.614   3.065 -23.485  0.00  0.00    +0.050 A 
ATOM      3  C   UNL     1       2.816   3.798 -24.112  0.00  0.00    +0.008 A 
ATOM      4  C   UNL     1       1.582   3.718 -23.888  0.00  0.00    -0.034 A 
ATOM      5  C   UNL     1       1.138   2.902 -23.034  0.00  0.00    +0.016 A 
ATOM      6  C   UNL     1      -0.093   2.824 -22.813  0.00  0.00    +0.072 C 
ATOM      7  C   UNL     1      -1.468   2.645 -22.476  0.00  0.00    +0.071 C 
ATOM      8  C   UNL     1      -2.391   3.460 -23.169  0.00  0.00    +0.133 C 
ATOM      9  N   UNL     1      -1.877   4.368 -24.121  0.00  0.00    +0.239 N 
ATOM     10  H   UNL     1      -2.498   4.981 -24.651  0.00  0.00    +0.204 HD
ATOM     11  C   UNL     1      -2.628   5.126 -24.778  0.00  0.00    +0.191 C 
ATOM     12  C   UNL     1      -0.462   4.381 -24.300  0.00  0.00    +0.096 C 
ATOM     13  C   UNL     1      -0.892   3.557 -23.440  0.00  0.00    -0.010 C 
ATOM     14  C   UNL     1      -2.137   3.476 -23.214  0.00  0.00    +0.000 C 
ATOM     15  C   UNL     1      -2.569   2.663 -22.364  0.00  0.00    +0.136 C 
ATOM     16 CL   UNL     1      -3.799   2.586 -22.144  0.00  0.00    -0.115 Cl
ATOM     17  C   UNL     1      -1.766   1.918 -21.727  0.00  0.00    +0.180 C 
ATOM     18  C   UNL     1      -0.536   1.997 -21.949  0.00  0.00    +0.149 C 
ATOM     19  C   UNL     1      -0.684   1.117 -21.067  0.00  0.00    +0.060 C 
ATOM     20  O   UNL     1       0.848   1.489 -21.612  0.00  0.00    -0.478 OA
ATOM     21  C   UNL     1       0.768   4.462 -24.524  0.00  0.00    +0.094 C 
ATOM     22  C   UNL     1       1.941   2.159 -22.398  0.00  0.00    +0.167 A 
ENDROOT
BRANCH   1  24
ATOM     23  C   UNL     1       3.625   0.944 -20.937  0.00  0.00    +0.277 C 
ATOM     24  O   UNL     1       3.988   1.507 -21.997  0.00  0.00    -0.491 OA
ENDBRANCH   1  24
BRANCH  17  25
ATOM     25  O   UNL     1      -2.203   1.106 -20.877  0.00  0.00    -0.386 OA
ATOM     26  H   UNL     1      -2.182   0.209 -21.246  0.00  0.00    +0.210 HD
ENDBRANCH  17  25
TORSDOF 2
ENDMDL
