MODEL 1
REMARK VINA RESULT:    -8.957      0.000      0.000
REMARK INTER + INTRA:         -11.269
REMARK INTER:                 -11.156
REMARK INTRA:                  -0.113
REMARK UNBOUND:                 0.045
REMARK  Name = ZINC000025757812
REMARK  8 active torsions:
REMARK  status: ('A' for Active; 'I' for Inactive)
REMARK    1  A    between atoms: C_1  and  O_2
REMARK    2  A    between atoms: O_2  and  C_3
REMARK    3  A    between atoms: C_4  and  O_5
REMARK    4  A    between atoms: C_9  and  O_10
REMARK    5  A    between atoms: C_13  and  C_14
REMARK    6  A    between atoms: C_14  and  O_15
REMARK    7  A    between atoms: C_16  and  O_17
REMARK    8  A    between atoms: C_18  and  O_19
REMARK                            x       y       z     vdW  Elec       q    Type
REMARK                         _______ _______ _______ _____ _____    ______ ____
ROOT
ATOM      1  C   UNL     1      -2.730   3.762 -25.176  0.00  0.00    +0.203 A 
ATOM      2  C   UNL     1      -3.666   3.931 -24.290  0.00  0.00    +0.163 A 
ATOM      3  C   UNL     1      -3.458   3.590 -23.053  0.00  0.00    +0.064 A 
ATOM      4  C   UNL     1      -2.314   3.081 -22.702  0.00  0.00    +0.072 A 
ATOM      5  C   UNL     1      -1.379   2.913 -23.589  0.00  0.00    +0.044 A 
ATOM      6  C   UNL     1      -0.235   2.403 -23.238  0.00  0.00    +0.196 C 
ATOM      7  O   UNL     1       0.701   2.235 -24.125  0.00  0.00    -0.360 OA
ATOM      8  C   UNL     1       1.844   1.725 -23.774  0.00  0.00    +0.175 C 
ATOM      9  C   UNL     1       2.052   1.385 -22.537  0.00  0.00    +0.178 C 
ATOM     10  C   UNL     1       1.117   1.554 -21.651  0.00  0.00    +0.189 C 
ATOM     11  C   UNL     1      -0.027   2.063 -22.001  0.00  0.00    +0.241 C 
ATOM     12  O   UNL     1      -0.963   2.232 -21.114  0.00  0.00    -0.452 OA
ATOM     13  C   UNL     1      -2.106   2.741 -21.464  0.00  0.00    +0.340 C 
ATOM     14  O   UNL     1      -3.042   2.910 -20.578  0.00  0.00    -0.245 OA
ATOM     15  C   UNL     1      -1.587   3.253 -24.826  0.00  0.00    +0.169 A 
ENDROOT
BRANCH   1  17
ATOM     16  C   UNL     1      -3.548   3.284 -27.219  0.00  0.00    +0.277 C 
ATOM     17  O   UNL     1      -2.938   4.102 -26.414  0.00  0.00    -0.489 OA
ENDBRANCH   1  17
BRANCH  10  18
ATOM     18  O   UNL     1       1.325   1.213 -20.413  0.00  0.00    -0.385 OA
ATOM     19  H   UNL     1       2.014   1.781 -20.033  0.00  0.00    +0.210 HD
ENDBRANCH  10  18
BRANCH   9  20
ATOM     20  O   UNL     1       3.196   0.876 -22.187  0.00  0.00    -0.386 OA
ATOM     21  H   UNL     1       3.742   1.562 -21.772  0.00  0.00    +0.210 HD
ENDBRANCH   9  20
BRANCH  15  22
ATOM     22  O   UNL     1      -0.651   3.084 -25.713  0.00  0.00    -0.503 OA
ATOM     23  H   UNL     1      -0.870   3.039 -26.623  0.00  0.00    +0.292 HD
ENDBRANCH  15  22
BRANCH   2  24
ATOM     24  O   UNL     1      -4.810   4.440 -24.640  0.00  0.00    -0.503 OA
ATOM     25  H   UNL     1      -5.607   4.055 -24.334  0.00  0.00    +0.292 HD
ENDBRANCH   2  24
BRANCH   8  26
ATOM     26  C   UNL     1       2.780   1.557 -24.660  0.00  0.00    +0.190 C 
BRANCH  26  27
ATOM     27  O   UNL     1       3.050   0.363 -25.102  0.00  0.00    -0.392 OA
ATOM     28  H   UNL     1       3.977   0.151 -24.911  0.00  0.00    +0.210 HD
ENDBRANCH  26  27
ENDBRANCH   8  26
TORSDOF 7
ENDMDL
MODEL 2
REMARK VINA RESULT:    -8.731      1.283      5.428
REMARK INTER + INTRA:         -10.982
REMARK INTER:                 -10.902
REMARK INTRA:                  -0.080
REMARK UNBOUND:                 0.045
REMARK  Name = ZINC000025757812
REMARK  8 active torsions:
REMARK  status: ('A' for Active; 'I' for Inactive)
REMARK    1  A    between atoms: C_1  and  O_2
REMARK    2  A    between atoms: O_2  and  C_3
REMARK    3  A    between atoms: C_4  and  O_5
REMARK    4  A    between atoms: C_9  and  O_10
REMARK    5  A    between atoms: C_13  and  C_14
REMARK    6  A    between atoms: C_14  and  O_15
REMARK    7  A    between atoms: C_16  and  O_17
REMARK    8  A    between atoms: C_18  and  O_19
REMARK                            x       y       z     vdW  Elec       q    Type
REMARK                         _______ _______ _______ _____ _____    ______ ____
ROOT
ATOM      1  C   UNL     1       0.571   1.813 -22.691  0.00  0.00    +0.203 A 
ATOM      2  C   UNL     1       0.361   1.713 -21.412  0.00  0.00    +0.163 A 
ATOM      3  C   UNL     1      -0.787   2.061 -20.912  0.00  0.00    +0.064 A 
ATOM      4  C   UNL     1      -1.726   2.510 -21.692  0.00  0.00    +0.072 A 
ATOM      5  C   UNL     1      -1.516   2.611 -22.971  0.00  0.00    +0.044 A 
ATOM      6  C   UNL     1      -2.455   3.060 -23.750  0.00  0.00    +0.196 C 
ATOM      7  O   UNL     1      -2.245   3.161 -25.029  0.00  0.00    -0.360 OA
ATOM      8  C   UNL     1      -3.183   3.610 -25.808  0.00  0.00    +0.175 C 
ATOM      9  C   UNL     1      -4.332   3.958 -25.309  0.00  0.00    +0.178 C 
ATOM     10  C   UNL     1      -4.541   3.858 -24.030  0.00  0.00    +0.189 C 
ATOM     11  C   UNL     1      -3.603   3.408 -23.250  0.00  0.00    +0.241 C 
ATOM     12  O   UNL     1      -3.813   3.308 -21.971  0.00  0.00    -0.452 OA
ATOM     13  C   UNL     1      -2.874   2.858 -21.192  0.00  0.00    +0.340 C 
ATOM     14  O   UNL     1      -3.084   2.757 -19.913  0.00  0.00    -0.245 OA
ATOM     15  C   UNL     1      -0.368   2.263 -23.470  0.00  0.00    +0.169 A 
ENDROOT
BRANCH   1  17
ATOM     16  C   UNL     1       2.682   2.335 -23.276  0.00  0.00    +0.277 C 
ATOM     17  O   UNL     1       1.720   1.465 -23.191  0.00  0.00    -0.489 OA
ENDBRANCH   1  17
BRANCH  10  18
ATOM     18  O   UNL     1      -5.690   4.206 -23.530  0.00  0.00    -0.385 OA
ATOM     19  H   UNL     1      -6.037   3.483 -22.983  0.00  0.00    +0.210 HD
ENDBRANCH  10  18
BRANCH   9  20
ATOM     20  O   UNL     1      -5.270   4.408 -26.088  0.00  0.00    -0.386 OA
ATOM     21  H   UNL     1      -6.044   3.826 -26.031  0.00  0.00    +0.210 HD
ENDBRANCH   9  20
BRANCH  15  22
ATOM     22  O   UNL     1      -0.158   2.364 -24.750  0.00  0.00    -0.503 OA
ATOM     23  H   UNL     1      -0.012   3.205 -25.136  0.00  0.00    +0.292 HD
ENDBRANCH  15  22
BRANCH   2  24
ATOM     24  O   UNL     1       1.300   1.263 -20.633  0.00  0.00    -0.503 OA
ATOM     25  H   UNL     1       1.089   0.669 -19.939  0.00  0.00    +0.292 HD
ENDBRANCH   2  24
BRANCH   8  26
ATOM     26  C   UNL     1      -2.974   3.711 -27.087  0.00  0.00    +0.190 C 
BRANCH  26  27
ATOM     27  O   UNL     1      -3.777   3.126 -27.926  0.00  0.00    -0.392 OA
ATOM     28  H   UNL     1      -4.563   3.677 -28.059  0.00  0.00    +0.210 HD
ENDBRANCH  26  27
ENDBRANCH   8  26
TORSDOF 7
ENDMDL
MODEL 3
REMARK VINA RESULT:    -8.426      1.945      4.249
REMARK INTER + INTRA:         -10.597
REMARK INTER:                 -10.743
REMARK INTRA:                   0.145
REMARK UNBOUND:                 0.045
REMARK  Name = ZINC000025757812
REMARK  8 active torsions:
REMARK  status: ('A' for Active; 'I' for Inactive)
REMARK    1  A    between atoms: C_1  and  O_2
REMARK    2  A    between atoms: O_2  and  C_3
REMARK    3  A    between atoms: C_4  and  O_5
REMARK    4  A    between atoms: C_9  and  O_10
REMARK    5  A    between atoms: C_13  and  C_14
REMARK    6  A    between atoms: C_14  and  O_15
REMARK    7  A    between atoms: C_16  and  O_17
REMARK    8  A    between atoms: C_18  and  O_19
REMARK                            x       y       z     vdW  Elec       q    Type
REMARK                         _______ _______ _______ _____ _____    ______ ____
ROOT
ATOM      1  C   UNL     1      -1.157   2.464 -22.279  0.00  0.00    +0.203 A 
ATOM      2  C   UNL     1      -1.498   3.193 -23.299  0.00  0.00    +0.163 A 
ATOM      3  C   UNL     1      -0.599   3.569 -24.159  0.00  0.00    +0.064 A 
ATOM      4  C   UNL     1       0.642   3.215 -23.998  0.00  0.00    +0.072 A 
ATOM      5  C   UNL     1       0.983   2.486 -22.977  0.00  0.00    +0.044 A 
ATOM      6  C   UNL     1       2.223   2.132 -22.817  0.00  0.00    +0.196 C 
ATOM      7  O   UNL     1       2.564   1.403 -21.796  0.00  0.00    -0.360 OA
ATOM      8  C   UNL     1       3.805   1.049 -21.636  0.00  0.00    +0.175 C 
ATOM      9  C   UNL     1       4.705   1.425 -22.495  0.00  0.00    +0.178 C 
ATOM     10  C   UNL     1       4.363   2.154 -23.515  0.00  0.00    +0.189 C 
ATOM     11  C   UNL     1       3.123   2.508 -23.676  0.00  0.00    +0.241 C 
ATOM     12  O   UNL     1       2.782   3.238 -24.697  0.00  0.00    -0.452 OA
ATOM     13  C   UNL     1       1.541   3.591 -24.858  0.00  0.00    +0.340 C 
ATOM     14  O   UNL     1       1.200   4.321 -25.879  0.00  0.00    -0.245 OA
ATOM     15  C   UNL     1       0.083   2.110 -22.118  0.00  0.00    +0.169 A 
ENDROOT
BRANCH   1  17
ATOM     16  C   UNL     1      -2.602   2.961 -20.624  0.00  0.00    +0.277 C 
ATOM     17  O   UNL     1      -2.057   2.088 -21.418  0.00  0.00    -0.489 OA
ENDBRANCH   1  17
BRANCH  10  18
ATOM     18  O   UNL     1       5.263   2.530 -24.376  0.00  0.00    -0.385 OA
ATOM     19  H   UNL     1       5.571   1.760 -24.879  0.00  0.00    +0.210 HD
ENDBRANCH  10  18
BRANCH   9  20
ATOM     20  O   UNL     1       5.945   1.071 -22.334  0.00  0.00    -0.386 OA
ATOM     21  H   UNL     1       6.170   0.380 -22.977  0.00  0.00    +0.210 HD
ENDBRANCH   9  20
BRANCH  15  22
ATOM     22  O   UNL     1       0.424   1.380 -21.097  0.00  0.00    -0.503 OA
ATOM     23  H   UNL     1      -0.236   1.006 -20.547  0.00  0.00    +0.292 HD
ENDBRANCH  15  22
BRANCH   2  24
ATOM     24  O   UNL     1      -2.739   3.547 -23.460  0.00  0.00    -0.503 OA
ATOM     25  H   UNL     1      -3.374   3.341 -22.802  0.00  0.00    +0.292 HD
ENDBRANCH   2  24
BRANCH   8  26
ATOM     26  C   UNL     1       4.146   0.320 -20.615  0.00  0.00    +0.190 C 
BRANCH  26  27
ATOM     27  O   UNL     1       5.140   0.683 -19.859  0.00  0.00    -0.392 OA
ATOM     28  H   UNL     1       4.807   0.924 -18.981  0.00  0.00    +0.210 HD
ENDBRANCH  26  27
ENDBRANCH   8  26
TORSDOF 7
ENDMDL
MODEL 4
REMARK VINA RESULT:    -8.419      1.345      3.746
REMARK INTER + INTRA:         -10.588
REMARK INTER:                 -10.604
REMARK INTRA:                   0.016
REMARK UNBOUND:                 0.045
REMARK  Name = ZINC000025757812
REMARK  8 active torsions:
REMARK  status: ('A' for Active; 'I' for Inactive)
REMARK    1  A    between atoms: C_1  and  O_2
REMARK    2  A    between atoms: O_2  and  C_3
REMARK    3  A    between atoms: C_4  and  O_5
REMARK    4  A    between atoms: C_9  and  O_10
REMARK    5  A    between atoms: C_13  and  C_14
REMARK    6  A    between atoms: C_14  and  O_15
REMARK    7  A    between atoms: C_16  and  O_17
REMARK    8  A    between atoms: C_18  and  O_19
REMARK                            x       y       z     vdW  Elec       q    Type
REMARK                         _______ _______ _______ _____ _____    ______ ____
ROOT
ATOM      1  C   UNL     1      -3.309   3.008 -21.666  0.00  0.00    +0.203 A 
ATOM      2  C   UNL     1      -4.168   3.349 -22.580  0.00  0.00    +0.163 A 
ATOM      3  C   UNL     1      -3.784   3.485 -23.814  0.00  0.00    +0.064 A 
ATOM      4  C   UNL     1      -2.541   3.279 -24.135  0.00  0.00    +0.072 A 
ATOM      5  C   UNL     1      -1.682   2.938 -23.221  0.00  0.00    +0.044 A 
ATOM      6  C   UNL     1      -0.439   2.732 -23.542  0.00  0.00    +0.196 C 
ATOM      7  O   UNL     1       0.420   2.390 -22.628  0.00  0.00    -0.360 OA
ATOM      8  C   UNL     1       1.663   2.184 -22.949  0.00  0.00    +0.175 C 
ATOM      9  C   UNL     1       2.047   2.320 -24.183  0.00  0.00    +0.178 C 
ATOM     10  C   UNL     1       1.187   2.661 -25.097  0.00  0.00    +0.189 C 
ATOM     11  C   UNL     1      -0.056   2.867 -24.776  0.00  0.00    +0.241 C 
ATOM     12  O   UNL     1      -0.915   3.209 -25.691  0.00  0.00    -0.452 OA
ATOM     13  C   UNL     1      -2.158   3.415 -25.370  0.00  0.00    +0.340 C 
ATOM     14  O   UNL     1      -3.017   3.756 -26.284  0.00  0.00    -0.245 OA
ATOM     15  C   UNL     1      -2.066   2.802 -21.987  0.00  0.00    +0.169 A 
ENDROOT
BRANCH   1  17
ATOM     16  C   UNL     1      -3.308   3.731 -19.533  0.00  0.00    +0.277 C 
ATOM     17  O   UNL     1      -3.692   2.872 -20.431  0.00  0.00    -0.489 OA
ENDBRANCH   1  17
BRANCH  10  18
ATOM     18  O   UNL     1       1.571   2.797 -26.332  0.00  0.00    -0.385 OA
ATOM     19  H   UNL     1       1.836   3.717 -26.489  0.00  0.00    +0.210 HD
ENDBRANCH  10  18
BRANCH   9  20
ATOM     20  O   UNL     1       3.289   2.114 -24.504  0.00  0.00    -0.386 OA
ATOM     21  H   UNL     1       3.856   2.734 -24.019  0.00  0.00    +0.210 HD
ENDBRANCH   9  20
BRANCH  15  22
ATOM     22  O   UNL     1      -1.206   2.460 -21.072  0.00  0.00    -0.503 OA
ATOM     23  H   UNL     1      -1.016   3.046 -20.366  0.00  0.00    +0.292 HD
ENDBRANCH  15  22
BRANCH   2  24
ATOM     24  O   UNL     1      -5.411   3.555 -22.259  0.00  0.00    -0.503 OA
ATOM     25  H   UNL     1      -5.635   3.793 -21.380  0.00  0.00    +0.292 HD
ENDBRANCH   2  24
BRANCH   8  26
ATOM     26  C   UNL     1       2.522   1.843 -22.035  0.00  0.00    +0.190 C 
BRANCH  26  27
ATOM     27  O   UNL     1       3.455   2.675 -21.677  0.00  0.00    -0.392 OA
ATOM     28  H   UNL     1       4.300   2.203 -21.610  0.00  0.00    +0.210 HD
ENDBRANCH  26  27
ENDBRANCH   8  26
TORSDOF 7
ENDMDL
MODEL 5
REMARK VINA RESULT:    -8.375      1.394      6.188
REMARK INTER + INTRA:         -10.532
REMARK INTER:                 -10.447
REMARK INTRA:                  -0.085
REMARK UNBOUND:                 0.045
REMARK  Name = ZINC000025757812
REMARK  8 active torsions:
REMARK  status: ('A' for Active; 'I' for Inactive)
REMARK    1  A    between atoms: C_1  and  O_2
REMARK    2  A    between atoms: O_2  and  C_3
REMARK    3  A    between atoms: C_4  and  O_5
REMARK    4  A    between atoms: C_9  and  O_10
REMARK    5  A    between atoms: C_13  and  C_14
REMARK    6  A    between atoms: C_14  and  O_15
REMARK    7  A    between atoms: C_16  and  O_17
REMARK    8  A    between atoms: C_18  and  O_19
REMARK                            x       y       z     vdW  Elec       q    Type
REMARK                         _______ _______ _______ _____ _____    ______ ____
ROOT
ATOM      1  C   UNL     1       2.163   1.160 -22.522  0.00  0.00    +0.203 A 
ATOM      2  C   UNL     1       2.880   1.594 -23.515  0.00  0.00    +0.163 A 
ATOM      3  C   UNL     1       2.359   2.401 -24.389  0.00  0.00    +0.064 A 
ATOM      4  C   UNL     1       1.119   2.774 -24.271  0.00  0.00    +0.072 A 
ATOM      5  C   UNL     1       0.401   2.341 -23.278  0.00  0.00    +0.044 A 
ATOM      6  C   UNL     1      -0.838   2.714 -23.160  0.00  0.00    +0.196 C 
ATOM      7  O   UNL     1      -1.556   2.280 -22.167  0.00  0.00    -0.360 OA
ATOM      8  C   UNL     1      -2.796   2.654 -22.049  0.00  0.00    +0.175 C 
ATOM      9  C   UNL     1      -3.318   3.461 -22.924  0.00  0.00    +0.178 C 
ATOM     10  C   UNL     1      -2.600   3.895 -23.917  0.00  0.00    +0.189 C 
ATOM     11  C   UNL     1      -1.360   3.521 -24.035  0.00  0.00    +0.241 C 
ATOM     12  O   UNL     1      -0.642   3.956 -25.029  0.00  0.00    -0.452 OA
ATOM     13  C   UNL     1       0.597   3.582 -25.147  0.00  0.00    +0.340 C 
ATOM     14  O   UNL     1       1.315   4.016 -26.140  0.00  0.00    -0.245 OA
ATOM     15  C   UNL     1       0.923   1.534 -22.404  0.00  0.00    +0.169 A 
ENDROOT
BRANCH   1  17
ATOM     16  C   UNL     1       3.448   0.821 -20.704  0.00  0.00    +0.277 C 
ATOM     17  O   UNL     1       2.684   0.352 -21.646  0.00  0.00    -0.489 OA
ENDBRANCH   1  17
BRANCH  10  18
ATOM     18  O   UNL     1      -3.121   4.703 -24.793  0.00  0.00    -0.385 OA
ATOM     19  H   UNL     1      -2.711   4.548 -25.659  0.00  0.00    +0.210 HD
ENDBRANCH  10  18
BRANCH   9  20
ATOM     20  O   UNL     1      -4.557   3.835 -22.806  0.00  0.00    -0.386 OA
ATOM     21  H   UNL     1      -4.632   4.779 -23.014  0.00  0.00    +0.210 HD
ENDBRANCH   9  20
BRANCH  15  22
ATOM     22  O   UNL     1       0.205   1.099 -21.410  0.00  0.00    -0.503 OA
ATOM     23  H   UNL     1       0.593   0.988 -20.564  0.00  0.00    +0.292 HD
ENDBRANCH  15  22
BRANCH   2  24
ATOM     24  O   UNL     1       4.120   1.220 -23.633  0.00  0.00    -0.503 OA
ATOM     25  H   UNL     1       4.734   1.412 -22.951  0.00  0.00    +0.292 HD
ENDBRANCH   2  24
BRANCH   8  26
ATOM     26  C   UNL     1      -3.514   2.220 -21.056  0.00  0.00    +0.190 C 
BRANCH  26  27
ATOM     27  O   UNL     1      -3.747   2.993 -20.036  0.00  0.00    -0.392 OA
ATOM     28  H   UNL     1      -3.025   3.632 -19.943  0.00  0.00    +0.210 HD
ENDBRANCH  26  27
ENDBRANCH   8  26
TORSDOF 7
ENDMDL
MODEL 6
REMARK VINA RESULT:    -7.951      1.260      5.212
REMARK INTER + INTRA:          -9.998
REMARK INTER:                  -9.874
REMARK INTRA:                  -0.124
REMARK UNBOUND:                 0.045
REMARK  Name = ZINC000025757812
REMARK  8 active torsions:
REMARK  status: ('A' for Active; 'I' for Inactive)
REMARK    1  A    between atoms: C_1  and  O_2
REMARK    2  A    between atoms: O_2  and  C_3
REMARK    3  A    between atoms: C_4  and  O_5
REMARK    4  A    between atoms: C_9  and  O_10
REMARK    5  A    between atoms: C_13  and  C_14
REMARK    6  A    between atoms: C_14  and  O_15
REMARK    7  A    between atoms: C_16  and  O_17
REMARK    8  A    between atoms: C_18  and  O_19
REMARK                            x       y       z     vdW  Elec       q    Type
REMARK                         _______ _______ _______ _____ _____    ______ ____
ROOT
ATOM      1  C   UNL     1       1.394   2.399 -24.676  0.00  0.00    +0.203 A 
ATOM      2  C   UNL     1       2.074   1.920 -23.677  0.00  0.00    +0.163 A 
ATOM      3  C   UNL     1       1.498   1.741 -22.525  0.00  0.00    +0.064 A 
ATOM      4  C   UNL     1       0.242   2.040 -22.374  0.00  0.00    +0.072 A 
ATOM      5  C   UNL     1      -0.438   2.519 -23.373  0.00  0.00    +0.044 A 
ATOM      6  C   UNL     1      -1.694   2.818 -23.221  0.00  0.00    +0.196 C 
ATOM      7  O   UNL     1      -2.373   3.297 -24.220  0.00  0.00    -0.360 OA
ATOM      8  C   UNL     1      -3.629   3.596 -24.068  0.00  0.00    +0.175 C 
ATOM      9  C   UNL     1      -4.205   3.417 -22.917  0.00  0.00    +0.178 C 
ATOM     10  C   UNL     1      -3.525   2.939 -21.918  0.00  0.00    +0.189 C 
ATOM     11  C   UNL     1      -2.270   2.639 -22.070  0.00  0.00    +0.241 C 
ATOM     12  O   UNL     1      -1.590   2.161 -21.069  0.00  0.00    -0.452 OA
ATOM     13  C   UNL     1      -0.334   1.861 -21.221  0.00  0.00    +0.340 C 
ATOM     14  O   UNL     1       0.346   1.383 -20.222  0.00  0.00    -0.245 OA
ATOM     15  C   UNL     1       0.138   2.698 -24.524  0.00  0.00    +0.169 A 
ENDROOT
BRANCH   1  17
ATOM     16  C   UNL     1       2.021   1.604 -26.688  0.00  0.00    +0.277 C 
ATOM     17  O   UNL     1       1.970   2.578 -25.828  0.00  0.00    -0.489 OA
ENDBRANCH   1  17
BRANCH  10  18
ATOM     18  O   UNL     1      -4.102   2.759 -20.766  0.00  0.00    -0.385 OA
ATOM     19  H   UNL     1      -3.565   2.156 -20.227  0.00  0.00    +0.210 HD
ENDBRANCH  10  18
BRANCH   9  20
ATOM     20  O   UNL     1      -5.461   3.716 -22.765  0.00  0.00    -0.386 OA
ATOM     21  H   UNL     1      -5.538   4.537 -22.254  0.00  0.00    +0.210 HD
ENDBRANCH   9  20
BRANCH  15  22
ATOM     22  O   UNL     1      -0.541   3.177 -25.524  0.00  0.00    -0.503 OA
ATOM     23  H   UNL     1      -1.471   3.060 -25.558  0.00  0.00    +0.292 HD
ENDBRANCH  15  22
BRANCH   2  24
ATOM     24  O   UNL     1       3.330   1.621 -23.829  0.00  0.00    -0.503 OA
ATOM     25  H   UNL     1       3.787   1.159 -23.153  0.00  0.00    +0.292 HD
ENDBRANCH   2  24
BRANCH   8  26
ATOM     26  C   UNL     1      -4.309   4.074 -25.067  0.00  0.00    +0.190 C 
BRANCH  26  27
ATOM     27  O   UNL     1      -4.577   5.346 -25.122  0.00  0.00    -0.392 OA
ATOM     28  H   UNL     1      -3.749   5.848 -25.176  0.00  0.00    +0.210 HD
ENDBRANCH  26  27
ENDBRANCH   8  26
TORSDOF 7
ENDMDL
MODEL 7
REMARK VINA RESULT:    -7.756      2.909      6.488
REMARK INTER + INTRA:          -9.751
REMARK INTER:                  -9.816
REMARK INTRA:                   0.065
REMARK UNBOUND:                 0.045
REMARK  Name = ZINC000025757812
REMARK  8 active torsions:
REMARK  status: ('A' for Active; 'I' for Inactive)
REMARK    1  A    between atoms: C_1  and  O_2
REMARK    2  A    between atoms: O_2  and  C_3
REMARK    3  A    between atoms: C_4  and  O_5
REMARK    4  A    between atoms: C_9  and  O_10
REMARK    5  A    between atoms: C_13  and  C_14
REMARK    6  A    between atoms: C_14  and  O_15
REMARK    7  A    between atoms: C_16  and  O_17
REMARK    8  A    between atoms: C_18  and  O_19
REMARK                            x       y       z     vdW  Elec       q    Type
REMARK                         _______ _______ _______ _____ _____    ______ ____
ROOT
ATOM      1  C   UNL     1       5.248   3.855 -22.777  0.00  0.00    +0.203 A 
ATOM      2  C   UNL     1       5.890   2.888 -22.190  0.00  0.00    +0.163 A 
ATOM      3  C   UNL     1       5.235   1.882 -21.693  0.00  0.00    +0.064 A 
ATOM      4  C   UNL     1       3.938   1.842 -21.782  0.00  0.00    +0.072 A 
ATOM      5  C   UNL     1       3.297   2.809 -22.368  0.00  0.00    +0.044 A 
ATOM      6  C   UNL     1       2.001   2.769 -22.457  0.00  0.00    +0.196 C 
ATOM      7  O   UNL     1       1.359   3.736 -23.043  0.00  0.00    -0.360 OA
ATOM      8  C   UNL     1       0.063   3.696 -23.132  0.00  0.00    +0.175 C 
ATOM      9  C   UNL     1      -0.592   2.690 -22.635  0.00  0.00    +0.178 C 
ATOM     10  C   UNL     1       0.049   1.723 -22.048  0.00  0.00    +0.189 C 
ATOM     11  C   UNL     1       1.346   1.763 -21.960  0.00  0.00    +0.241 C 
ATOM     12  O   UNL     1       1.987   0.795 -21.373  0.00  0.00    -0.452 OA
ATOM     13  C   UNL     1       3.283   0.835 -21.284  0.00  0.00    +0.340 C 
ATOM     14  O   UNL     1       3.925  -0.132 -20.698  0.00  0.00    -0.245 OA
ATOM     15  C   UNL     1       3.952   3.815 -22.865  0.00  0.00    +0.169 A 
ENDROOT
BRANCH   1  17
ATOM     16  C   UNL     1       6.278   5.838 -22.502  0.00  0.00    +0.277 C 
ATOM     17  O   UNL     1       5.903   4.862 -23.274  0.00  0.00    -0.489 OA
ENDBRANCH   1  17
BRANCH  10  18
ATOM     18  O   UNL     1      -0.606   0.716 -21.551  0.00  0.00    -0.385 OA
ATOM     19  H   UNL     1      -1.087   0.261 -22.260  0.00  0.00    +0.210 HD
ENDBRANCH  10  18
BRANCH   9  20
ATOM     20  O   UNL     1      -1.888   2.650 -22.723  0.00  0.00    -0.386 OA
ATOM     21  H   UNL     1      -2.158   2.874 -23.628  0.00  0.00    +0.210 HD
ENDBRANCH   9  20
BRANCH  15  22
ATOM     22  O   UNL     1       3.311   4.783 -23.452  0.00  0.00    -0.503 OA
ATOM     23  H   UNL     1       3.716   5.622 -23.550  0.00  0.00    +0.292 HD
ENDBRANCH  15  22
BRANCH   2  24
ATOM     24  O   UNL     1       7.186   2.928 -22.101  0.00  0.00    -0.503 OA
ATOM     25  H   UNL     1       7.713   2.739 -22.853  0.00  0.00    +0.292 HD
ENDBRANCH   2  24
BRANCH   8  26
ATOM     26  C   UNL     1      -0.579   4.663 -23.718  0.00  0.00    +0.190 C 
BRANCH  26  27
ATOM     27  O   UNL     1      -0.335   5.897 -23.391  0.00  0.00    -0.392 OA
ATOM     28  H   UNL     1      -0.891   6.488 -23.922  0.00  0.00    +0.210 HD
ENDBRANCH  26  27
ENDBRANCH   8  26
TORSDOF 7
ENDMDL
MODEL 8
REMARK VINA RESULT:    -7.571      3.650      5.487
REMARK INTER + INTRA:          -9.517
REMARK INTER:                  -9.435
REMARK INTRA:                  -0.082
REMARK UNBOUND:                 0.045
REMARK  Name = ZINC000025757812
REMARK  8 active torsions:
REMARK  status: ('A' for Active; 'I' for Inactive)
REMARK    1  A    between atoms: C_1  and  O_2
REMARK    2  A    between atoms: O_2  and  C_3
REMARK    3  A    between atoms: C_4  and  O_5
REMARK    4  A    between atoms: C_9  and  O_10
REMARK    5  A    between atoms: C_13  and  C_14
REMARK    6  A    between atoms: C_14  and  O_15
REMARK    7  A    between atoms: C_16  and  O_17
REMARK    8  A    between atoms: C_18  and  O_19
REMARK                            x       y       z     vdW  Elec       q    Type
REMARK                         _______ _______ _______ _____ _____    ______ ____
ROOT
ATOM      1  C   UNL     1       0.755   4.406 -23.890  0.00  0.00    +0.203 A 
ATOM      2  C   UNL     1       0.415   3.256 -24.391  0.00  0.00    +0.163 A 
ATOM      3  C   UNL     1       1.302   2.314 -24.517  0.00  0.00    +0.064 A 
ATOM      4  C   UNL     1       2.529   2.523 -24.142  0.00  0.00    +0.072 A 
ATOM      5  C   UNL     1       2.869   3.673 -23.641  0.00  0.00    +0.044 A 
ATOM      6  C   UNL     1       4.096   3.881 -23.265  0.00  0.00    +0.196 C 
ATOM      7  O   UNL     1       4.437   5.031 -22.764  0.00  0.00    -0.360 OA
ATOM      8  C   UNL     1       5.664   5.239 -22.389  0.00  0.00    +0.175 C 
ATOM      9  C   UNL     1       6.551   4.298 -22.515  0.00  0.00    +0.178 C 
ATOM     10  C   UNL     1       6.210   3.148 -23.016  0.00  0.00    +0.189 C 
ATOM     11  C   UNL     1       4.983   2.939 -23.391  0.00  0.00    +0.241 C 
ATOM     12  O   UNL     1       4.643   1.788 -23.892  0.00  0.00    -0.452 OA
ATOM     13  C   UNL     1       3.416   1.580 -24.268  0.00  0.00    +0.340 C 
ATOM     14  O   UNL     1       3.076   0.430 -24.769  0.00  0.00    -0.245 OA
ATOM     15  C   UNL     1       1.983   4.615 -23.515  0.00  0.00    +0.169 A 
ENDROOT
BRANCH   1  17
ATOM     16  C   UNL     1      -0.973   5.321 -22.774  0.00  0.00    +0.277 C 
ATOM     17  O   UNL     1      -0.132   5.349 -23.764  0.00  0.00    -0.489 OA
ENDBRANCH   1  17
BRANCH  10  18
ATOM     18  O   UNL     1       7.097   2.205 -23.142  0.00  0.00    -0.385 OA
ATOM     19  H   UNL     1       7.965   2.539 -22.862  0.00  0.00    +0.210 HD
ENDBRANCH  10  18
BRANCH   9  20
ATOM     20  O   UNL     1       7.778   4.506 -22.139  0.00  0.00    -0.386 OA
ATOM     21  H   UNL     1       8.192   3.661 -21.904  0.00  0.00    +0.210 HD
ENDBRANCH   9  20
BRANCH  15  22
ATOM     22  O   UNL     1       2.323   5.766 -23.014  0.00  0.00    -0.503 OA
ATOM     23  H   UNL     1       2.560   5.831 -22.110  0.00  0.00    +0.292 HD
ENDBRANCH  15  22
BRANCH   2  24
ATOM     24  O   UNL     1      -0.812   3.048 -24.767  0.00  0.00    -0.503 OA
ATOM     25  H   UNL     1      -1.199   3.590 -25.426  0.00  0.00    +0.292 HD
ENDBRANCH   2  24
BRANCH   8  26
ATOM     26  C   UNL     1       6.004   6.390 -21.888  0.00  0.00    +0.190 C 
BRANCH  26  27
ATOM     27  O   UNL     1       6.151   6.521 -20.603  0.00  0.00    -0.392 OA
ATOM     28  H   UNL     1       6.465   7.417 -20.403  0.00  0.00    +0.210 HD
ENDBRANCH  26  27
ENDBRANCH   8  26
TORSDOF 7
ENDMDL
MODEL 9
REMARK VINA RESULT:    -6.906      4.522      7.424
REMARK INTER + INTRA:          -8.677
REMARK INTER:                  -8.723
REMARK INTRA:                   0.045
REMARK UNBOUND:                 0.045
REMARK  Name = ZINC000025757812
REMARK  8 active torsions:
REMARK  status: ('A' for Active; 'I' for Inactive)
REMARK    1  A    between atoms: C_1  and  O_2
REMARK    2  A    between atoms: O_2  and  C_3
REMARK    3  A    between atoms: C_4  and  O_5
REMARK    4  A    between atoms: C_9  and  O_10
REMARK    5  A    between atoms: C_13  and  C_14
REMARK    6  A    between atoms: C_14  and  O_15
REMARK    7  A    between atoms: C_16  and  O_17
REMARK    8  A    between atoms: C_18  and  O_19
REMARK                            x       y       z     vdW  Elec       q    Type
REMARK                         _______ _______ _______ _____ _____    ______ ____
ROOT
ATOM      1  C   UNL     1       5.268   6.882 -22.105  0.00  0.00    +0.203 A 
ATOM      2  C   UNL     1       6.457   6.356 -22.101  0.00  0.00    +0.163 A 
ATOM      3  C   UNL     1       6.626   5.130 -22.497  0.00  0.00    +0.064 A 
ATOM      4  C   UNL     1       5.606   4.429 -22.897  0.00  0.00    +0.072 A 
ATOM      5  C   UNL     1       4.418   4.955 -22.901  0.00  0.00    +0.044 A 
ATOM      6  C   UNL     1       3.398   4.255 -23.300  0.00  0.00    +0.196 C 
ATOM      7  O   UNL     1       2.210   4.780 -23.304  0.00  0.00    -0.360 OA
ATOM      8  C   UNL     1       1.190   4.080 -23.704  0.00  0.00    +0.175 C 
ATOM      9  C   UNL     1       1.359   2.854 -24.100  0.00  0.00    +0.178 C 
ATOM     10  C   UNL     1       2.548   2.328 -24.096  0.00  0.00    +0.189 C 
ATOM     11  C   UNL     1       3.567   3.028 -23.696  0.00  0.00    +0.241 C 
ATOM     12  O   UNL     1       4.756   2.502 -23.693  0.00  0.00    -0.452 OA
ATOM     13  C   UNL     1       5.776   3.202 -23.293  0.00  0.00    +0.340 C 
ATOM     14  O   UNL     1       6.965   2.676 -23.290  0.00  0.00    -0.245 OA
ATOM     15  C   UNL     1       4.249   6.181 -22.505  0.00  0.00    +0.169 A 
ENDROOT
BRANCH   1  17
ATOM     16  C   UNL     1       4.737   8.352 -20.484  0.00  0.00    +0.277 C 
ATOM     17  O   UNL     1       5.099   8.109 -21.709  0.00  0.00    -0.489 OA
ENDBRANCH   1  17
BRANCH  10  18
ATOM     18  O   UNL     1       2.717   1.101 -24.492  0.00  0.00    -0.385 OA
ATOM     19  H   UNL     1       3.362   1.082 -25.217  0.00  0.00    +0.210 HD
ENDBRANCH  10  18
BRANCH   9  20
ATOM     20  O   UNL     1       0.339   2.153 -24.499  0.00  0.00    -0.386 OA
ATOM     21  H   UNL     1      -0.481   2.622 -24.281  0.00  0.00    +0.210 HD
ENDBRANCH   9  20
BRANCH  15  22
ATOM     22  O   UNL     1       3.060   6.708 -22.508  0.00  0.00    -0.503 OA
ATOM     23  H   UNL     1       2.447   6.478 -23.179  0.00  0.00    +0.292 HD
ENDBRANCH  15  22
BRANCH   2  24
ATOM     24  O   UNL     1       7.477   7.056 -21.702  0.00  0.00    -0.503 OA
ATOM     25  H   UNL     1       7.596   7.931 -22.015  0.00  0.00    +0.292 HD
ENDBRANCH   2  24
BRANCH   8  26
ATOM     26  C   UNL     1       0.001   4.606 -23.707  0.00  0.00    +0.190 C 
BRANCH  26  27
ATOM     27  O   UNL     1      -0.262   5.624 -22.943  0.00  0.00    -0.392 OA
ATOM     28  H   UNL     1       0.545   6.146 -22.811  0.00  0.00    +0.210 HD
ENDBRANCH  26  27
ENDBRANCH   8  26
TORSDOF 7
ENDMDL
