MODEL 1
REMARK VINA RESULT:   -11.790      0.000      0.000
REMARK INTER + INTRA:         -12.925
REMARK INTER:                 -12.600
REMARK INTRA:                  -0.325
REMARK UNBOUND:                 0.933
REMARK  Name = ZINC000071404306
REMARK  8 active torsions:
REMARK  status: ('A' for Active; 'I' for Inactive)
REMARK    1  A    between atoms: C_1  and  C_2
REMARK    2  A    between atoms: C_2  and  C_3
REMARK    3  A    between atoms: C_4  and  C_5
REMARK    4  A    between atoms: C_5  and  C_6
REMARK    5  A    between atoms: C_6  and  C_7
REMARK    6  A    between atoms: C_7  and  C_8
REMARK    7  A    between atoms: C_18  and  C_19
REMARK    8  A    between atoms: N_23  and  C_24
REMARK                            x       y       z     vdW  Elec       q    Type
REMARK                         _______ _______ _______ _____ _____    ______ ____
ROOT
ATOM      1  C   UNL     1       3.124   1.984 -22.959  0.00  0.00    +0.127 C 
ATOM      2  C   UNL     1       2.672   2.613 -24.002  0.00  0.00    +0.021 C 
ATOM      3  C   UNL     1       1.407   2.892 -24.101  0.00  0.00    +0.013 C 
ATOM      4  C   UNL     1       0.589   2.540 -23.151  0.00  0.00    +0.041 A 
ATOM      5  C   UNL     1       1.040   1.910 -22.107  0.00  0.00    +0.131 A 
ATOM      6  C   UNL     1       0.223   1.558 -21.158  0.00  0.00    +0.047 A 
ATOM      7  C   UNL     1      -1.043   1.836 -21.256  0.00  0.00    +0.014 A 
ATOM      8  C   UNL     1      -1.491   2.465 -22.300  0.00  0.00    +0.008 A 
ATOM      9  C   UNL     1      -2.688   2.855 -22.633  0.00  0.00    +0.008 A 
ATOM     10  C   UNL     1      -3.837   2.746 -22.034  0.00  0.00    +0.014 A 
ATOM     11  C   UNL     1      -4.906   3.231 -22.592  0.00  0.00    -0.050 A 
ATOM     12  C   UNL     1      -4.829   3.824 -23.745  0.00  0.00    +0.005 A 
ATOM     13  C   UNL     1      -3.680   3.932 -24.343  0.00  0.00    +0.027 A 
ATOM     14  C   UNL     1      -6.057   3.122 -21.992  0.00  0.00    +0.044 C 
ATOM     15  C   UNL     1      -2.608   3.447 -23.788  0.00  0.00    +0.050 A 
ATOM     16  N   UNL     1      -1.367   3.425 -24.168  0.00  0.00    -0.342 N 
ATOM     17  C   UNL     1      -0.898   3.921 -25.272  0.00  0.00    +0.149 C 
ATOM     18  C   UNL     1      -0.678   2.818 -23.249  0.00  0.00    +0.061 A 
ATOM     19  C   UNL     1       3.957   1.407 -22.145  0.00  0.00    +0.060 C 
ATOM     20  O   UNL     1       2.306   1.631 -22.009  0.00  0.00    -0.481 OA
ENDROOT
BRANCH   1  21
ATOM     21  C   UNL     1       4.229   2.135 -23.624  0.00  0.00    +0.056 C 
BRANCH  21  22
ATOM     22  C   UNL     1       4.844   3.281 -23.608  0.00  0.00    +0.031 C 
BRANCH  22  25
ATOM     23  C   UNL     1       8.042   4.357 -22.944  0.00  0.00    +0.038 C 
ATOM     24  C   UNL     1       6.744   4.318 -22.987  0.00  0.00    -0.080 C 
ATOM     25  C   UNL     1       6.143   3.321 -23.565  0.00  0.00    -0.028 C 
ATOM     26  C   UNL     1       6.046   5.275 -22.452  0.00  0.00    +0.038 C 
ENDBRANCH  22  25
ENDBRANCH  21  22
ENDBRANCH   1  21
TORSDOF 3
ENDMDL
MODEL 2
REMARK VINA RESULT:   -11.765      1.702      7.955
REMARK INTER + INTRA:         -12.896
REMARK INTER:                 -12.618
REMARK INTRA:                  -0.278
REMARK UNBOUND:                 0.933
REMARK  Name = ZINC000071404306
REMARK  8 active torsions:
REMARK  status: ('A' for Active; 'I' for Inactive)
REMARK    1  A    between atoms: C_1  and  C_2
REMARK    2  A    between atoms: C_2  and  C_3
REMARK    3  A    between atoms: C_4  and  C_5
REMARK    4  A    between atoms: C_5  and  C_6
REMARK    5  A    between atoms: C_6  and  C_7
REMARK    6  A    between atoms: C_7  and  C_8
REMARK    7  A    between atoms: C_18  and  C_19
REMARK    8  A    between atoms: N_23  and  C_24
REMARK                            x       y       z     vdW  Elec       q    Type
REMARK                         _______ _______ _______ _____ _____    ______ ____
ROOT
ATOM      1  C   UNL     1      -2.479   3.334 -24.877  0.00  0.00    +0.127 C 
ATOM      2  C   UNL     1      -2.383   2.692 -23.751  0.00  0.00    +0.021 C 
ATOM      3  C   UNL     1      -1.218   2.480 -23.215  0.00  0.00    +0.013 C 
ATOM      4  C   UNL     1      -0.144   2.913 -23.808  0.00  0.00    +0.041 A 
ATOM      5  C   UNL     1      -0.238   3.556 -24.935  0.00  0.00    +0.131 A 
ATOM      6  C   UNL     1       0.836   3.988 -25.528  0.00  0.00    +0.047 A 
ATOM      7  C   UNL     1       2.002   3.776 -24.992  0.00  0.00    +0.014 A 
ATOM      8  C   UNL     1       2.094   3.134 -23.868  0.00  0.00    +0.008 A 
ATOM      9  C   UNL     1       3.119   2.799 -23.139  0.00  0.00    +0.008 A 
ATOM     10  C   UNL     1       4.396   2.993 -23.291  0.00  0.00    +0.014 A 
ATOM     11  C   UNL     1       5.230   2.548 -22.399  0.00  0.00    -0.050 A 
ATOM     12  C   UNL     1       4.790   1.909 -21.356  0.00  0.00    +0.005 A 
ATOM     13  C   UNL     1       3.513   1.715 -21.206  0.00  0.00    +0.027 A 
ATOM     14  C   UNL     1       6.508   2.743 -22.551  0.00  0.00    +0.044 C 
ATOM     15  C   UNL     1       2.677   2.160 -22.097  0.00  0.00    +0.050 A 
ATOM     16  N   UNL     1       1.383   2.099 -22.180  0.00  0.00    -0.342 N 
ATOM     17  C   UNL     1       0.588   1.537 -21.321  0.00  0.00    +0.149 C 
ATOM     18  C   UNL     1       1.023   2.701 -23.274  0.00  0.00    +0.061 A 
ATOM     19  C   UNL     1      -3.008   3.894 -25.923  0.00  0.00    +0.060 C 
ATOM     20  O   UNL     1      -1.404   3.767 -25.470  0.00  0.00    -0.481 OA
ENDROOT
BRANCH   1  21
ATOM     21  C   UNL     1      -3.735   3.097 -24.647  0.00  0.00    +0.056 C 
BRANCH  21  22
ATOM     22  C   UNL     1      -4.408   3.876 -23.853  0.00  0.00    +0.031 C 
BRANCH  22  25
ATOM     23  C   UNL     1      -6.814   2.782 -21.651  0.00  0.00    +0.038 C 
ATOM     24  C   UNL     1      -5.667   3.171 -22.123  0.00  0.00    -0.080 C 
ATOM     25  C   UNL     1      -5.555   3.486 -23.380  0.00  0.00    -0.028 C 
ATOM     26  C   UNL     1      -4.632   3.245 -21.340  0.00  0.00    +0.038 C 
ENDBRANCH  22  25
ENDBRANCH  21  22
ENDBRANCH   1  21
TORSDOF 3
ENDMDL
MODEL 3
REMARK VINA RESULT:   -11.757      0.846      0.992
REMARK INTER + INTRA:         -12.887
REMARK INTER:                 -12.341
REMARK INTRA:                  -0.545
REMARK UNBOUND:                 0.933
REMARK  Name = ZINC000071404306
REMARK  8 active torsions:
REMARK  status: ('A' for Active; 'I' for Inactive)
REMARK    1  A    between atoms: C_1  and  C_2
REMARK    2  A    between atoms: C_2  and  C_3
REMARK    3  A    between atoms: C_4  and  C_5
REMARK    4  A    between atoms: C_5  and  C_6
REMARK    5  A    between atoms: C_6  and  C_7
REMARK    6  A    between atoms: C_7  and  C_8
REMARK    7  A    between atoms: C_18  and  C_19
REMARK    8  A    between atoms: N_23  and  C_24
REMARK                            x       y       z     vdW  Elec       q    Type
REMARK                         _______ _______ _______ _____ _____    ______ ____
ROOT
ATOM      1  C   UNL     1       3.373   1.467 -22.103  0.00  0.00    +0.127 C 
ATOM      2  C   UNL     1       3.243   2.087 -23.237  0.00  0.00    +0.021 C 
ATOM      3  C   UNL     1       2.074   2.504 -23.625  0.00  0.00    +0.013 C 
ATOM      4  C   UNL     1       1.031   2.298 -22.874  0.00  0.00    +0.041 A 
ATOM      5  C   UNL     1       1.160   1.677 -21.739  0.00  0.00    +0.131 A 
ATOM      6  C   UNL     1       0.117   1.472 -20.989  0.00  0.00    +0.047 A 
ATOM      7  C   UNL     1      -1.052   1.889 -21.376  0.00  0.00    +0.014 A 
ATOM      8  C   UNL     1      -1.178   2.508 -22.509  0.00  0.00    +0.008 A 
ATOM      9  C   UNL     1      -2.215   3.014 -23.113  0.00  0.00    +0.008 A 
ATOM     10  C   UNL     1      -3.472   3.070 -22.785  0.00  0.00    +0.014 A 
ATOM     11  C   UNL     1      -4.325   3.644 -23.580  0.00  0.00    -0.050 A 
ATOM     12  C   UNL     1      -3.923   4.162 -24.703  0.00  0.00    +0.005 A 
ATOM     13  C   UNL     1      -2.667   4.105 -25.030  0.00  0.00    +0.027 A 
ATOM     14  C   UNL     1      -5.583   3.700 -23.252  0.00  0.00    +0.044 C 
ATOM     15  C   UNL     1      -1.811   3.532 -24.235  0.00  0.00    +0.050 A 
ATOM     16  N   UNL     1      -0.530   3.347 -24.327  0.00  0.00    -0.342 N 
ATOM     17  C   UNL     1       0.229   3.727 -25.310  0.00  0.00    +0.149 C 
ATOM     18  C   UNL     1      -0.139   2.715 -23.260  0.00  0.00    +0.061 A 
ATOM     19  C   UNL     1       3.929   0.842 -21.109  0.00  0.00    +0.060 C 
ATOM     20  O   UNL     1       2.329   1.261 -21.352  0.00  0.00    -0.481 OA
ENDROOT
BRANCH   1  21
ATOM     21  C   UNL     1       4.607   1.455 -22.507  0.00  0.00    +0.056 C 
BRANCH  21  22
ATOM     22  C   UNL     1       5.432   2.375 -22.101  0.00  0.00    +0.031 C 
BRANCH  22  25
ATOM     23  C   UNL     1       7.516   4.341 -24.003  0.00  0.00    +0.038 C 
ATOM     24  C   UNL     1       6.526   3.977 -23.245  0.00  0.00    -0.080 C 
ATOM     25  C   UNL     1       6.423   2.740 -22.860  0.00  0.00    -0.028 C 
ATOM     26  C   UNL     1       5.638   4.850 -22.871  0.00  0.00    +0.038 C 
ENDBRANCH  22  25
ENDBRANCH  21  22
ENDBRANCH   1  21
TORSDOF 3
ENDMDL
MODEL 4
REMARK VINA RESULT:   -10.874      1.237      2.460
REMARK INTER + INTRA:         -11.848
REMARK INTER:                 -11.704
REMARK INTRA:                  -0.144
REMARK UNBOUND:                 0.933
REMARK  Name = ZINC000071404306
REMARK  8 active torsions:
REMARK  status: ('A' for Active; 'I' for Inactive)
REMARK    1  A    between atoms: C_1  and  C_2
REMARK    2  A    between atoms: C_2  and  C_3
REMARK    3  A    between atoms: C_4  and  C_5
REMARK    4  A    between atoms: C_5  and  C_6
REMARK    5  A    between atoms: C_6  and  C_7
REMARK    6  A    between atoms: C_7  and  C_8
REMARK    7  A    between atoms: C_18  and  C_19
REMARK    8  A    between atoms: N_23  and  C_24
REMARK                            x       y       z     vdW  Elec       q    Type
REMARK                         _______ _______ _______ _____ _____    ______ ____
ROOT
ATOM      1  C   UNL     1       3.764   2.433 -23.207  0.00  0.00    +0.127 C 
ATOM      2  C   UNL     1       3.082   2.068 -22.164  0.00  0.00    +0.021 C 
ATOM      3  C   UNL     1       1.792   2.227 -22.136  0.00  0.00    +0.013 C 
ATOM      4  C   UNL     1       1.182   2.755 -23.158  0.00  0.00    +0.041 A 
ATOM      5  C   UNL     1       1.864   3.121 -24.203  0.00  0.00    +0.131 A 
ATOM      6  C   UNL     1       1.255   3.648 -25.224  0.00  0.00    +0.047 A 
ATOM      7  C   UNL     1      -0.035   3.808 -25.197  0.00  0.00    +0.014 A 
ATOM      8  C   UNL     1      -0.714   3.442 -24.153  0.00  0.00    +0.008 A 
ATOM      9  C   UNL     1      -1.986   3.492 -23.882  0.00  0.00    +0.008 A 
ATOM     10  C   UNL     1      -3.005   3.925 -24.563  0.00  0.00    +0.014 A 
ATOM     11  C   UNL     1      -4.200   3.861 -24.054  0.00  0.00    -0.050 A 
ATOM     12  C   UNL     1      -4.377   3.366 -22.866  0.00  0.00    +0.005 A 
ATOM     13  C   UNL     1      -3.357   2.933 -22.186  0.00  0.00    +0.027 A 
ATOM     14  C   UNL     1      -5.220   4.295 -24.736  0.00  0.00    +0.044 C 
ATOM     15  C   UNL     1      -2.161   2.996 -22.692  0.00  0.00    +0.050 A 
ATOM     16  N   UNL     1      -1.002   2.639 -22.230  0.00  0.00    -0.342 N 
ATOM     17  C   UNL     1      -0.775   2.102 -21.069  0.00  0.00    +0.149 C 
ATOM     18  C   UNL     1      -0.108   2.915 -23.132  0.00  0.00    +0.061 A 
ATOM     19  C   UNL     1       4.778   2.642 -23.993  0.00  0.00    +0.060 C 
ATOM     20  O   UNL     1       3.154   2.961 -24.229  0.00  0.00    -0.481 OA
ENDROOT
BRANCH   1  21
ATOM     21  C   UNL     1       4.725   1.979 -22.460  0.00  0.00    +0.056 C 
BRANCH  21  22
ATOM     22  C   UNL     1       5.861   2.609 -22.410  0.00  0.00    +0.031 C 
BRANCH  22  25
ATOM     23  C   UNL     1       7.447   4.823 -20.311  0.00  0.00    +0.038 C 
ATOM     24  C   UNL     1       7.107   4.182 -21.388  0.00  0.00    -0.080 C 
ATOM     25  C   UNL     1       6.202   3.251 -21.332  0.00  0.00    -0.028 C 
ATOM     26  C   UNL     1       7.672   4.471 -22.523  0.00  0.00    +0.038 C 
ENDBRANCH  22  25
ENDBRANCH  21  22
ENDBRANCH   1  21
TORSDOF 3
ENDMDL
MODEL 5
REMARK VINA RESULT:   -10.857      1.860      8.138
REMARK INTER + INTRA:         -11.829
REMARK INTER:                 -11.613
REMARK INTRA:                  -0.216
REMARK UNBOUND:                 0.933
REMARK  Name = ZINC000071404306
REMARK  8 active torsions:
REMARK  status: ('A' for Active; 'I' for Inactive)
REMARK    1  A    between atoms: C_1  and  C_2
REMARK    2  A    between atoms: C_2  and  C_3
REMARK    3  A    between atoms: C_4  and  C_5
REMARK    4  A    between atoms: C_5  and  C_6
REMARK    5  A    between atoms: C_6  and  C_7
REMARK    6  A    between atoms: C_7  and  C_8
REMARK    7  A    between atoms: C_18  and  C_19
REMARK    8  A    between atoms: N_23  and  C_24
REMARK                            x       y       z     vdW  Elec       q    Type
REMARK                         _______ _______ _______ _____ _____    ______ ____
ROOT
ATOM      1  C   UNL     1      -0.797   3.458 -23.904  0.00  0.00    +0.127 C 
ATOM      2  C   UNL     1      -0.402   4.606 -23.442  0.00  0.00    +0.021 C 
ATOM      3  C   UNL     1       0.866   4.848 -23.284  0.00  0.00    +0.013 C 
ATOM      4  C   UNL     1       1.742   3.936 -23.592  0.00  0.00    +0.041 A 
ATOM      5  C   UNL     1       1.348   2.786 -24.055  0.00  0.00    +0.131 A 
ATOM      6  C   UNL     1       2.225   1.875 -24.362  0.00  0.00    +0.047 A 
ATOM      7  C   UNL     1       3.492   2.116 -24.205  0.00  0.00    +0.014 A 
ATOM      8  C   UNL     1       3.884   3.264 -23.743  0.00  0.00    +0.008 A 
ATOM      9  C   UNL     1       5.068   3.746 -23.497  0.00  0.00    +0.008 A 
ATOM     10  C   UNL     1       6.258   3.240 -23.632  0.00  0.00    +0.014 A 
ATOM     11  C   UNL     1       7.302   3.943 -23.308  0.00  0.00    -0.050 A 
ATOM     12  C   UNL     1       7.158   5.151 -22.850  0.00  0.00    +0.005 A 
ATOM     13  C   UNL     1       5.968   5.655 -22.716  0.00  0.00    +0.027 A 
ATOM     14  C   UNL     1       8.493   3.437 -23.444  0.00  0.00    +0.044 C 
ATOM     15  C   UNL     1       4.922   4.954 -23.039  0.00  0.00    +0.050 A 
ATOM     16  N   UNL     1       3.652   5.220 -23.000  0.00  0.00    -0.342 N 
ATOM     17  C   UNL     1       3.117   6.333 -22.599  0.00  0.00    +0.149 C 
ATOM     18  C   UNL     1       3.011   4.176 -23.435  0.00  0.00    +0.061 A 
ATOM     19  C   UNL     1      -1.588   2.510 -24.309  0.00  0.00    +0.060 C 
ATOM     20  O   UNL     1       0.081   2.546 -24.211  0.00  0.00    -0.481 OA
ENDROOT
BRANCH   1  21
ATOM     21  C   UNL     1      -1.946   4.039 -23.738  0.00  0.00    +0.056 C 
BRANCH  21  22
ATOM     22  C   UNL     1      -2.665   3.768 -22.689  0.00  0.00    +0.031 C 
BRANCH  22  25
ATOM     23  C   UNL     1      -5.946   3.034 -21.966  0.00  0.00    +0.038 C 
ATOM     24  C   UNL     1      -4.652   3.100 -21.867  0.00  0.00    -0.080 C 
ATOM     25  C   UNL     1      -3.960   3.702 -22.787  0.00  0.00    -0.028 C 
ATOM     26  C   UNL     1      -4.049   2.564 -20.847  0.00  0.00    +0.038 C 
ENDBRANCH  22  25
ENDBRANCH  21  22
ENDBRANCH   1  21
TORSDOF 3
ENDMDL
MODEL 6
REMARK VINA RESULT:   -10.815      1.701      8.245
REMARK INTER + INTRA:         -11.779
REMARK INTER:                 -11.616
REMARK INTRA:                  -0.162
REMARK UNBOUND:                 0.933
REMARK  Name = ZINC000071404306
REMARK  8 active torsions:
REMARK  status: ('A' for Active; 'I' for Inactive)
REMARK    1  A    between atoms: C_1  and  C_2
REMARK    2  A    between atoms: C_2  and  C_3
REMARK    3  A    between atoms: C_4  and  C_5
REMARK    4  A    between atoms: C_5  and  C_6
REMARK    5  A    between atoms: C_6  and  C_7
REMARK    6  A    between atoms: C_7  and  C_8
REMARK    7  A    between atoms: C_18  and  C_19
REMARK    8  A    between atoms: N_23  and  C_24
REMARK                            x       y       z     vdW  Elec       q    Type
REMARK                         _______ _______ _______ _____ _____    ______ ____
ROOT
ATOM      1  C   UNL     1      -1.663   3.087 -23.191  0.00  0.00    +0.127 C 
ATOM      2  C   UNL     1      -1.188   2.300 -22.273  0.00  0.00    +0.021 C 
ATOM      3  C   UNL     1       0.095   2.222 -22.076  0.00  0.00    +0.013 C 
ATOM      4  C   UNL     1       0.906   2.935 -22.802  0.00  0.00    +0.041 A 
ATOM      5  C   UNL     1       0.432   3.723 -23.722  0.00  0.00    +0.131 A 
ATOM      6  C   UNL     1       1.244   4.436 -24.447  0.00  0.00    +0.047 A 
ATOM      7  C   UNL     1       2.526   4.358 -24.251  0.00  0.00    +0.014 A 
ATOM      8  C   UNL     1       2.997   3.571 -23.333  0.00  0.00    +0.008 A 
ATOM      9  C   UNL     1       4.214   3.316 -22.945  0.00  0.00    +0.008 A 
ATOM     10  C   UNL     1       5.367   3.764 -23.346  0.00  0.00    +0.014 A 
ATOM     11  C   UNL     1       6.458   3.341 -22.781  0.00  0.00    -0.050 A 
ATOM     12  C   UNL     1       6.399   2.472 -21.817  0.00  0.00    +0.005 A 
ATOM     13  C   UNL     1       5.246   2.025 -21.417  0.00  0.00    +0.027 A 
ATOM     14  C   UNL     1       7.612   3.789 -23.182  0.00  0.00    +0.044 C 
ATOM     15  C   UNL     1       4.152   2.446 -21.980  0.00  0.00    +0.050 A 
ATOM     16  N   UNL     1       2.903   2.163 -21.771  0.00  0.00    -0.342 N 
ATOM     17  C   UNL     1       2.446   1.332 -20.884  0.00  0.00    +0.149 C 
ATOM     18  C   UNL     1       2.190   2.858 -22.607  0.00  0.00    +0.061 A 
ATOM     19  C   UNL     1      -2.519   3.703 -23.951  0.00  0.00    +0.060 C 
ATOM     20  O   UNL     1      -0.850   3.800 -23.917  0.00  0.00    -0.481 OA
ENDROOT
BRANCH   1  21
ATOM     21  C   UNL     1      -2.770   2.589 -22.730  0.00  0.00    +0.056 C 
BRANCH  21  22
ATOM     22  C   UNL     1      -3.551   3.319 -21.989  0.00  0.00    +0.031 C 
BRANCH  22  25
ATOM     23  C   UNL     1      -6.878   2.535 -21.608  0.00  0.00    +0.038 C 
ATOM     24  C   UNL     1      -5.783   3.041 -22.092  0.00  0.00    -0.080 C 
ATOM     25  C   UNL     1      -4.646   2.812 -21.505  0.00  0.00    -0.028 C 
ATOM     26  C   UNL     1      -5.825   3.776 -23.163  0.00  0.00    +0.038 C 
ENDBRANCH  22  25
ENDBRANCH  21  22
ENDBRANCH   1  21
TORSDOF 3
ENDMDL
MODEL 7
REMARK VINA RESULT:    -9.958      1.904      8.302
REMARK INTER + INTRA:         -10.772
REMARK INTER:                 -11.332
REMARK INTRA:                   0.560
REMARK UNBOUND:                 0.933
REMARK  Name = ZINC000071404306
REMARK  8 active torsions:
REMARK  status: ('A' for Active; 'I' for Inactive)
REMARK    1  A    between atoms: C_1  and  C_2
REMARK    2  A    between atoms: C_2  and  C_3
REMARK    3  A    between atoms: C_4  and  C_5
REMARK    4  A    between atoms: C_5  and  C_6
REMARK    5  A    between atoms: C_6  and  C_7
REMARK    6  A    between atoms: C_7  and  C_8
REMARK    7  A    between atoms: C_18  and  C_19
REMARK    8  A    between atoms: N_23  and  C_24
REMARK                            x       y       z     vdW  Elec       q    Type
REMARK                         _______ _______ _______ _____ _____    ______ ____
ROOT
ATOM      1  C   UNL     1      -0.557   3.842 -23.864  0.00  0.00    +0.127 C 
ATOM      2  C   UNL     1       0.062   2.713 -24.034  0.00  0.00    +0.021 C 
ATOM      3  C   UNL     1       1.353   2.647 -23.905  0.00  0.00    +0.013 C 
ATOM      4  C   UNL     1       2.029   3.718 -23.603  0.00  0.00    +0.041 A 
ATOM      5  C   UNL     1       1.411   4.850 -23.432  0.00  0.00    +0.131 A 
ATOM      6  C   UNL     1       2.087   5.919 -23.131  0.00  0.00    +0.047 A 
ATOM      7  C   UNL     1       3.379   5.855 -23.001  0.00  0.00    +0.014 A 
ATOM      8  C   UNL     1       3.994   4.725 -23.172  0.00  0.00    +0.008 A 
ATOM      9  C   UNL     1       5.252   4.400 -23.101  0.00  0.00    +0.008 A 
ATOM     10  C   UNL     1       6.317   5.097 -22.836  0.00  0.00    +0.014 A 
ATOM     11  C   UNL     1       7.483   4.522 -22.828  0.00  0.00    -0.050 A 
ATOM     12  C   UNL     1       7.586   3.252 -23.085  0.00  0.00    +0.005 A 
ATOM     13  C   UNL     1       6.520   2.556 -23.351  0.00  0.00    +0.027 A 
ATOM     14  C   UNL     1       8.549   5.219 -22.562  0.00  0.00    +0.044 C 
ATOM     15  C   UNL     1       5.353   3.129 -23.359  0.00  0.00    +0.050 A 
ATOM     16  N   UNL     1       4.161   2.669 -23.589  0.00  0.00    -0.342 N 
ATOM     17  C   UNL     1       3.860   1.440 -23.882  0.00  0.00    +0.149 C 
ATOM     18  C   UNL     1       3.322   3.655 -23.473  0.00  0.00    +0.061 A 
ATOM     19  C   UNL     1      -1.524   4.707 -23.788  0.00  0.00    +0.060 C 
ATOM     20  O   UNL     1       0.120   4.913 -23.562  0.00  0.00    -0.481 OA
ENDROOT
BRANCH   1  21
ATOM     21  C   UNL     1      -1.567   3.073 -24.139  0.00  0.00    +0.056 C 
BRANCH  21  22
ATOM     22  C   UNL     1      -2.780   3.518 -23.989  0.00  0.00    +0.031 C 
BRANCH  22  25
ATOM     23  C   UNL     1      -5.449   3.045 -21.872  0.00  0.00    +0.038 C 
ATOM     24  C   UNL     1      -4.756   3.391 -22.915  0.00  0.00    -0.080 C 
ATOM     25  C   UNL     1      -3.475   3.171 -22.946  0.00  0.00    -0.028 C 
ATOM     26  C   UNL     1      -5.342   3.959 -23.927  0.00  0.00    +0.038 C 
ENDBRANCH  22  25
ENDBRANCH  21  22
ENDBRANCH   1  21
TORSDOF 3
ENDMDL
MODEL 8
REMARK VINA RESULT:    -9.037      1.976      3.508
REMARK INTER + INTRA:          -9.689
REMARK INTER:                  -9.538
REMARK INTRA:                  -0.151
REMARK UNBOUND:                 0.933
REMARK  Name = ZINC000071404306
REMARK  8 active torsions:
REMARK  status: ('A' for Active; 'I' for Inactive)
REMARK    1  A    between atoms: C_1  and  C_2
REMARK    2  A    between atoms: C_2  and  C_3
REMARK    3  A    between atoms: C_4  and  C_5
REMARK    4  A    between atoms: C_5  and  C_6
REMARK    5  A    between atoms: C_6  and  C_7
REMARK    6  A    between atoms: C_7  and  C_8
REMARK    7  A    between atoms: C_18  and  C_19
REMARK    8  A    between atoms: N_23  and  C_24
REMARK                            x       y       z     vdW  Elec       q    Type
REMARK                         _______ _______ _______ _____ _____    ______ ____
ROOT
ATOM      1  C   UNL     1       5.634   4.215 -22.573  0.00  0.00    +0.127 C 
ATOM      2  C   UNL     1       5.213   2.988 -22.494  0.00  0.00    +0.021 C 
ATOM      3  C   UNL     1       3.950   2.718 -22.640  0.00  0.00    +0.013 C 
ATOM      4  C   UNL     1       3.104   3.681 -22.866  0.00  0.00    +0.041 A 
ATOM      5  C   UNL     1       3.524   4.910 -22.945  0.00  0.00    +0.131 A 
ATOM      6  C   UNL     1       2.678   5.871 -23.171  0.00  0.00    +0.047 A 
ATOM      7  C   UNL     1       1.414   5.602 -23.317  0.00  0.00    +0.014 A 
ATOM      8  C   UNL     1       0.997   4.376 -23.238  0.00  0.00    +0.008 A 
ATOM      9  C   UNL     1      -0.189   3.852 -23.345  0.00  0.00    +0.008 A 
ATOM     10  C   UNL     1      -1.357   4.379 -23.567  0.00  0.00    +0.014 A 
ATOM     11  C   UNL     1      -2.410   3.620 -23.629  0.00  0.00    -0.050 A 
ATOM     12  C   UNL     1      -2.298   2.336 -23.470  0.00  0.00    +0.005 A 
ATOM     13  C   UNL     1      -1.131   1.809 -23.248  0.00  0.00    +0.027 A 
ATOM     14  C   UNL     1      -3.579   4.149 -23.852  0.00  0.00    +0.044 C 
ATOM     15  C   UNL     1      -0.075   2.567 -23.185  0.00  0.00    +0.050 A 
ATOM     16  N   UNL     1       1.177   2.295 -22.980  0.00  0.00    -0.342 N 
ATOM     17  C   UNL     1       1.680   1.115 -22.778  0.00  0.00    +0.149 C 
ATOM     18  C   UNL     1       1.840   3.413 -23.013  0.00  0.00    +0.061 A 
ATOM     19  C   UNL     1       6.443   5.232 -22.574  0.00  0.00    +0.060 C 
ATOM     20  O   UNL     1       4.787   5.177 -22.799  0.00  0.00    -0.481 OA
ENDROOT
BRANCH   1  21
ATOM     21  C   UNL     1       6.759   3.606 -22.348  0.00  0.00    +0.056 C 
BRANCH  21  22
ATOM     22  C   UNL     1       7.814   3.916 -23.042  0.00  0.00    +0.031 C 
BRANCH  22  25
ATOM     23  C   UNL     1       9.062   2.788 -26.042  0.00  0.00    +0.038 C 
ATOM     24  C   UNL     1       8.638   3.592 -25.113  0.00  0.00    -0.080 C 
ATOM     25  C   UNL     1       8.238   3.112 -23.973  0.00  0.00    -0.028 C 
ATOM     26  C   UNL     1       8.614   4.875 -25.323  0.00  0.00    +0.038 C 
ENDBRANCH  22  25
ENDBRANCH  21  22
ENDBRANCH   1  21
TORSDOF 3
ENDMDL
