MODEL 1
REMARK VINA RESULT:   -10.951      0.000      0.000
REMARK INTER + INTRA:         -11.591
REMARK INTER:                 -11.591
REMARK INTRA:                   0.000
REMARK UNBOUND:                 0.000
REMARK  Name = ZINC000013520815
REMARK  3 active torsions:
REMARK  status: ('A' for Active; 'I' for Inactive)
REMARK    1  A    between atoms: C_1  and  C_2
REMARK    2  A    between atoms: C_9  and  O_10
REMARK    3  A    between atoms: C_19  and  O_20
REMARK                            x       y       z     vdW  Elec       q    Type
REMARK                         _______ _______ _______ _____ _____    ______ ____
ROOT
ATOM      1  C   UNL     1      -4.534   3.815 -23.889  0.00  0.00    +0.014 C 
ATOM      2  C   UNL     1      -3.684   3.269 -23.071  0.00  0.00    -0.003 C 
ATOM      3  C   UNL     1      -3.174   3.594 -24.222  0.00  0.00    +0.010 C 
ATOM      4  C   UNL     1      -1.919   3.365 -24.466  0.00  0.00    +0.009 C 
ATOM      5  C   UNL     1      -1.171   2.810 -23.558  0.00  0.00    +0.023 C 
ATOM      6  C   UNL     1       0.085   2.581 -23.801  0.00  0.00    -0.041 A 
ATOM      7  C   UNL     1       0.594   2.906 -24.952  0.00  0.00    +0.008 A 
ATOM      8  C   UNL     1       1.850   2.677 -25.196  0.00  0.00    +0.046 A 
ATOM      9  C   UNL     1       2.598   2.122 -24.288  0.00  0.00    +0.117 A 
ATOM     10  C   UNL     1       2.088   1.796 -23.137  0.00  0.00    +0.049 A 
ATOM     11  C   UNL     1       0.832   2.026 -22.894  0.00  0.00    -0.040 A 
ATOM     12  C   UNL     1       0.323   1.700 -21.743  0.00  0.00    +0.036 C 
ATOM     13  C   UNL     1      -0.934   1.930 -21.499  0.00  0.00    +0.009 C 
ATOM     14  C   UNL     1      -1.680   2.484 -22.406  0.00  0.00    +0.000 C 
ATOM     15  C   UNL     1      -4.884   3.388 -22.586  0.00  0.00    +0.121 C 
ATOM     16  C   UNL     1      -4.879   2.906 -21.378  0.00  0.00    +0.032 C 
ATOM     17  C   UNL     1      -3.675   2.490 -21.117  0.00  0.00    +0.007 C 
ATOM     18  C   UNL     1      -2.937   2.714 -22.163  0.00  0.00    +0.001 C 
ENDROOT
BRANCH   9  19
ATOM     19  O   UNL     1       3.854   1.892 -24.532  0.00  0.00    -0.507 OA
ATOM     20  H   UNL     1       4.486   1.973 -23.847  0.00  0.00    +0.292 HD
ENDBRANCH   9  19
BRANCH  15  21
ATOM     21  O   UNL     1      -5.909   3.898 -23.200  0.00  0.00    -0.391 OA
ATOM     22  H   UNL     1      -5.963   3.534 -24.097  0.00  0.00    +0.210 HD
ENDBRANCH  15  21
TORSDOF 2
ENDMDL
MODEL 2
REMARK VINA RESULT:   -10.793      0.972      2.468
REMARK INTER + INTRA:         -11.424
REMARK INTER:                 -11.424
REMARK INTRA:                   0.000
REMARK UNBOUND:                 0.000
REMARK  Name = ZINC000013520815
REMARK  3 active torsions:
REMARK  status: ('A' for Active; 'I' for Inactive)
REMARK    1  A    between atoms: C_1  and  C_2
REMARK    2  A    between atoms: C_9  and  O_10
REMARK    3  A    between atoms: C_19  and  O_20
REMARK                            x       y       z     vdW  Elec       q    Type
REMARK                         _______ _______ _______ _____ _____    ______ ____
ROOT
ATOM      1  C   UNL     1      -4.914   3.131 -21.959  0.00  0.00    +0.014 C 
ATOM      2  C   UNL     1      -3.994   3.314 -22.859  0.00  0.00    -0.003 C 
ATOM      3  C   UNL     1      -3.564   2.745 -21.771  0.00  0.00    +0.010 C 
ATOM      4  C   UNL     1      -2.312   2.414 -21.661  0.00  0.00    +0.009 C 
ATOM      5  C   UNL     1      -1.489   2.652 -22.638  0.00  0.00    +0.023 C 
ATOM      6  C   UNL     1      -0.236   2.322 -22.529  0.00  0.00    -0.041 A 
ATOM      7  C   UNL     1       0.193   1.753 -21.442  0.00  0.00    +0.008 A 
ATOM      8  C   UNL     1       1.445   1.422 -21.331  0.00  0.00    +0.046 A 
ATOM      9  C   UNL     1       2.269   1.661 -22.309  0.00  0.00    +0.117 A 
ATOM     10  C   UNL     1       1.839   2.230 -23.397  0.00  0.00    +0.049 A 
ATOM     11  C   UNL     1       0.587   2.560 -23.506  0.00  0.00    -0.040 A 
ATOM     12  C   UNL     1       0.157   3.129 -24.594  0.00  0.00    +0.036 C 
ATOM     13  C   UNL     1      -1.095   3.459 -24.703  0.00  0.00    +0.009 C 
ATOM     14  C   UNL     1      -1.918   3.221 -23.727  0.00  0.00    +0.000 C 
ATOM     15  C   UNL     1      -5.172   3.733 -23.213  0.00  0.00    +0.121 C 
ATOM     16  C   UNL     1      -5.076   4.231 -24.411  0.00  0.00    +0.032 C 
ATOM     17  C   UNL     1      -3.839   4.119 -24.795  0.00  0.00    +0.007 C 
ATOM     18  C   UNL     1      -3.170   3.552 -23.836  0.00  0.00    +0.001 C 
ENDROOT
BRANCH   9  19
ATOM     19  O   UNL     1       3.521   1.330 -22.199  0.00  0.00    -0.507 OA
ATOM     20  H   UNL     1       4.136   1.936 -21.837  0.00  0.00    +0.292 HD
ENDBRANCH   9  19
BRANCH  15  21
ATOM     21  O   UNL     1      -6.254   3.668 -22.498  0.00  0.00    -0.391 OA
ATOM     22  H   UNL     1      -6.317   2.791 -22.086  0.00  0.00    +0.210 HD
ENDBRANCH  15  21
TORSDOF 2
ENDMDL
MODEL 3
REMARK VINA RESULT:   -10.487      0.863      6.157
REMARK INTER + INTRA:         -11.100
REMARK INTER:                 -11.100
REMARK INTRA:                   0.000
REMARK UNBOUND:                 0.000
REMARK  Name = ZINC000013520815
REMARK  3 active torsions:
REMARK  status: ('A' for Active; 'I' for Inactive)
REMARK    1  A    between atoms: C_1  and  C_2
REMARK    2  A    between atoms: C_9  and  O_10
REMARK    3  A    between atoms: C_19  and  O_20
REMARK                            x       y       z     vdW  Elec       q    Type
REMARK                         _______ _______ _______ _____ _____    ______ ____
ROOT
ATOM      1  C   UNL     1       2.031   1.221 -21.751  0.00  0.00    +0.014 C 
ATOM      2  C   UNL     1       1.318   1.808 -22.666  0.00  0.00    -0.003 C 
ATOM      3  C   UNL     1       0.654   1.513 -21.588  0.00  0.00    +0.010 C 
ATOM      4  C   UNL     1      -0.609   1.807 -21.500  0.00  0.00    +0.009 C 
ATOM      5  C   UNL     1      -1.209   2.397 -22.491  0.00  0.00    +0.023 C 
ATOM      6  C   UNL     1      -2.472   2.692 -22.404  0.00  0.00    -0.041 A 
ATOM      7  C   UNL     1      -3.135   2.397 -21.326  0.00  0.00    +0.008 A 
ATOM      8  C   UNL     1      -4.398   2.691 -21.238  0.00  0.00    +0.046 A 
ATOM      9  C   UNL     1      -4.999   3.282 -22.229  0.00  0.00    +0.117 A 
ATOM     10  C   UNL     1      -4.335   3.577 -23.308  0.00  0.00    +0.049 A 
ATOM     11  C   UNL     1      -3.072   3.282 -23.395  0.00  0.00    -0.040 A 
ATOM     12  C   UNL     1      -2.408   3.577 -24.473  0.00  0.00    +0.036 C 
ATOM     13  C   UNL     1      -1.145   3.283 -24.560  0.00  0.00    +0.009 C 
ATOM     14  C   UNL     1      -0.545   2.693 -23.570  0.00  0.00    +0.000 C 
ATOM     15  C   UNL     1       2.561   1.626 -23.000  0.00  0.00    +0.121 C 
ATOM     16  C   UNL     1       2.729   2.103 -24.197  0.00  0.00    +0.032 C 
ATOM     17  C   UNL     1       1.590   2.581 -24.603  0.00  0.00    +0.007 C 
ATOM     18  C   UNL     1       0.718   2.398 -23.657  0.00  0.00    +0.001 C 
ENDROOT
BRANCH   9  19
ATOM     19  O   UNL     1      -6.261   3.576 -22.142  0.00  0.00    -0.507 OA
ATOM     20  H   UNL     1      -6.825   3.447 -22.878  0.00  0.00    +0.292 HD
ENDBRANCH   9  19
BRANCH  15  21
ATOM     21  O   UNL     1       3.475   1.065 -22.266  0.00  0.00    -0.391 OA
ATOM     22  H   UNL     1       4.316   1.055 -22.749  0.00  0.00    +0.210 HD
ENDBRANCH  15  21
TORSDOF 2
ENDMDL
MODEL 4
REMARK VINA RESULT:   -10.039      0.814      5.749
REMARK INTER + INTRA:         -10.626
REMARK INTER:                 -10.626
REMARK INTRA:                   0.000
REMARK UNBOUND:                 0.000
REMARK  Name = ZINC000013520815
REMARK  3 active torsions:
REMARK  status: ('A' for Active; 'I' for Inactive)
REMARK    1  A    between atoms: C_1  and  C_2
REMARK    2  A    between atoms: C_9  and  O_10
REMARK    3  A    between atoms: C_19  and  O_20
REMARK                            x       y       z     vdW  Elec       q    Type
REMARK                         _______ _______ _______ _____ _____    ______ ____
ROOT
ATOM      1  C   UNL     1       2.805   2.282 -24.494  0.00  0.00    +0.014 C 
ATOM      2  C   UNL     1       1.965   2.126 -23.515  0.00  0.00    -0.003 C 
ATOM      3  C   UNL     1       1.441   2.656 -24.580  0.00  0.00    +0.010 C 
ATOM      4  C   UNL     1       0.182   2.976 -24.596  0.00  0.00    +0.009 C 
ATOM      5  C   UNL     1      -0.554   2.767 -23.545  0.00  0.00    +0.023 C 
ATOM      6  C   UNL     1      -1.814   3.088 -23.559  0.00  0.00    -0.041 A 
ATOM      7  C   UNL     1      -2.337   3.617 -24.624  0.00  0.00    +0.008 A 
ATOM      8  C   UNL     1      -3.597   3.939 -24.640  0.00  0.00    +0.046 A 
ATOM      9  C   UNL     1      -4.334   3.730 -23.589  0.00  0.00    +0.117 A 
ATOM     10  C   UNL     1      -3.810   3.200 -22.523  0.00  0.00    +0.049 A 
ATOM     11  C   UNL     1      -2.551   2.879 -22.509  0.00  0.00    -0.040 A 
ATOM     12  C   UNL     1      -2.027   2.349 -21.443  0.00  0.00    +0.036 C 
ATOM     13  C   UNL     1      -0.767   2.029 -21.428  0.00  0.00    +0.009 C 
ATOM     14  C   UNL     1      -0.031   2.238 -22.478  0.00  0.00    +0.000 C 
ATOM     15  C   UNL     1       3.172   1.724 -23.246  0.00  0.00    +0.121 C 
ATOM     16  C   UNL     1       3.181   1.266 -22.029  0.00  0.00    +0.032 C 
ATOM     17  C   UNL     1       1.980   1.386 -21.546  0.00  0.00    +0.007 C 
ATOM     18  C   UNL     1       1.229   1.917 -22.464  0.00  0.00    +0.001 C 
ENDROOT
BRANCH   9  19
ATOM     19  O   UNL     1      -5.593   4.050 -23.604  0.00  0.00    -0.507 OA
ATOM     20  H   UNL     1      -5.848   4.941 -23.739  0.00  0.00    +0.292 HD
ENDBRANCH   9  19
BRANCH  15  21
ATOM     21  O   UNL     1       4.190   1.770 -24.053  0.00  0.00    -0.391 OA
ATOM     22  H   UNL     1       4.844   1.104 -23.787  0.00  0.00    +0.210 HD
ENDBRANCH  15  21
TORSDOF 2
ENDMDL
MODEL 5
REMARK VINA RESULT:    -9.684      1.535      6.403
REMARK INTER + INTRA:         -10.250
REMARK INTER:                 -10.250
REMARK INTRA:                   0.000
REMARK UNBOUND:                 0.000
REMARK  Name = ZINC000013520815
REMARK  3 active torsions:
REMARK  status: ('A' for Active; 'I' for Inactive)
REMARK    1  A    between atoms: C_1  and  C_2
REMARK    2  A    between atoms: C_9  and  O_10
REMARK    3  A    between atoms: C_19  and  O_20
REMARK                            x       y       z     vdW  Elec       q    Type
REMARK                         _______ _______ _______ _____ _____    ______ ____
ROOT
ATOM      1  C   UNL     1       3.344   0.879 -22.275  0.00  0.00    +0.014 C 
ATOM      2  C   UNL     1       2.760   1.962 -22.692  0.00  0.00    -0.003 C 
ATOM      3  C   UNL     1       1.969   1.144 -22.063  0.00  0.00    +0.010 C 
ATOM      4  C   UNL     1       0.715   1.446 -21.901  0.00  0.00    +0.009 C 
ATOM      5  C   UNL     1       0.251   2.567 -22.369  0.00  0.00    +0.023 C 
ATOM      6  C   UNL     1      -1.003   2.869 -22.208  0.00  0.00    -0.041 A 
ATOM      7  C   UNL     1      -1.793   2.051 -21.579  0.00  0.00    +0.008 A 
ATOM      8  C   UNL     1      -3.047   2.353 -21.417  0.00  0.00    +0.046 A 
ATOM      9  C   UNL     1      -3.511   3.474 -21.886  0.00  0.00    +0.117 A 
ATOM     10  C   UNL     1      -2.720   4.293 -22.515  0.00  0.00    +0.049 A 
ATOM     11  C   UNL     1      -1.467   3.990 -22.676  0.00  0.00    -0.040 A 
ATOM     12  C   UNL     1      -0.676   4.808 -23.305  0.00  0.00    +0.036 C 
ATOM     13  C   UNL     1       0.578   4.505 -23.466  0.00  0.00    +0.009 C 
ATOM     14  C   UNL     1       1.042   3.386 -22.999  0.00  0.00    +0.000 C 
ATOM     15  C   UNL     1       4.025   1.899 -22.981  0.00  0.00    +0.121 C 
ATOM     16  C   UNL     1       4.344   2.981 -23.628  0.00  0.00    +0.032 C 
ATOM     17  C   UNL     1       3.274   3.713 -23.739  0.00  0.00    +0.007 C 
ATOM     18  C   UNL     1       2.296   3.083 -23.160  0.00  0.00    +0.001 C 
ENDROOT
BRANCH   9  19
ATOM     19  O   UNL     1      -4.765   3.776 -21.724  0.00  0.00    -0.507 OA
ATOM     20  H   UNL     1      -5.128   3.823 -20.863  0.00  0.00    +0.292 HD
ENDBRANCH   9  19
BRANCH  15  21
ATOM     21  O   UNL     1       4.831   0.926 -22.677  0.00  0.00    -0.391 OA
ATOM     22  H   UNL     1       4.356   0.081 -22.738  0.00  0.00    +0.210 HD
ENDBRANCH  15  21
TORSDOF 2
ENDMDL
MODEL 6
REMARK VINA RESULT:    -9.149      1.928      6.304
REMARK INTER + INTRA:          -9.683
REMARK INTER:                  -9.683
REMARK INTRA:                   0.000
REMARK UNBOUND:                 0.000
REMARK  Name = ZINC000013520815
REMARK  3 active torsions:
REMARK  status: ('A' for Active; 'I' for Inactive)
REMARK    1  A    between atoms: C_1  and  C_2
REMARK    2  A    between atoms: C_9  and  O_10
REMARK    3  A    between atoms: C_19  and  O_20
REMARK                            x       y       z     vdW  Elec       q    Type
REMARK                         _______ _______ _______ _____ _____    ______ ____
ROOT
ATOM      1  C   UNL     1       4.596   3.899 -23.266  0.00  0.00    +0.014 C 
ATOM      2  C   UNL     1       3.725   3.103 -22.722  0.00  0.00    -0.003 C 
ATOM      3  C   UNL     1       3.197   4.065 -23.419  0.00  0.00    +0.010 C 
ATOM      4  C   UNL     1       1.906   4.163 -23.520  0.00  0.00    +0.009 C 
ATOM      5  C   UNL     1       1.140   3.298 -22.924  0.00  0.00    +0.023 C 
ATOM      6  C   UNL     1      -0.152   3.395 -23.024  0.00  0.00    -0.041 A 
ATOM      7  C   UNL     1      -0.679   4.357 -23.721  0.00  0.00    +0.008 A 
ATOM      8  C   UNL     1      -1.972   4.455 -23.823  0.00  0.00    +0.046 A 
ATOM      9  C   UNL     1      -2.738   3.590 -23.226  0.00  0.00    +0.117 A 
ATOM     10  C   UNL     1      -2.210   2.627 -22.529  0.00  0.00    +0.049 A 
ATOM     11  C   UNL     1      -0.918   2.530 -22.428  0.00  0.00    -0.040 A 
ATOM     12  C   UNL     1      -0.390   1.567 -21.731  0.00  0.00    +0.036 C 
ATOM     13  C   UNL     1       0.902   1.470 -21.630  0.00  0.00    +0.009 C 
ATOM     14  C   UNL     1       1.667   2.335 -22.226  0.00  0.00    +0.000 C 
ATOM     15  C   UNL     1       4.960   2.789 -22.468  0.00  0.00    +0.121 C 
ATOM     16  C   UNL     1       4.959   1.729 -21.715  0.00  0.00    +0.032 C 
ATOM     17  C   UNL     1       3.721   1.388 -21.503  0.00  0.00    +0.007 C 
ATOM     18  C   UNL     1       2.959   2.238 -22.126  0.00  0.00    +0.001 C 
ENDROOT
BRANCH   9  19
ATOM     19  O   UNL     1      -4.030   3.687 -23.327  0.00  0.00    -0.507 OA
ATOM     20  H   UNL     1      -4.579   3.015 -22.977  0.00  0.00    +0.292 HD
ENDBRANCH   9  19
BRANCH  15  21
ATOM     21  O   UNL     1       6.013   3.422 -22.893  0.00  0.00    -0.391 OA
ATOM     22  H   UNL     1       6.325   3.015 -23.717  0.00  0.00    +0.210 HD
ENDBRANCH  15  21
TORSDOF 2
ENDMDL
