MODEL 1
REMARK VINA RESULT:   -10.950      0.000      0.000
REMARK INTER + INTRA:         -14.220
REMARK INTER:                 -13.938
REMARK INTRA:                  -0.282
REMARK UNBOUND:                 0.571
REMARK  Name = ZINC000004104674
REMARK  9 active torsions:
REMARK  status: ('A' for Active; 'I' for Inactive)
REMARK    1  A    between atoms: C_1  and  C_2
REMARK    2  A    between atoms: C_2  and  C_3
REMARK    3  A    between atoms: C_3  and  C_4
REMARK    4  A    between atoms: C_4  and  C_5
REMARK    5  A    between atoms: C_5  and  C_6
REMARK    6  A    between atoms: C_6  and  O_8
REMARK    7  A    between atoms: O_8  and  C_9
REMARK    8  A    between atoms: C_22  and  C_23
REMARK    9  A    between atoms: C_27  and  C_28
REMARK                            x       y       z     vdW  Elec       q    Type
REMARK                         _______ _______ _______ _____ _____    ______ ____
ROOT
ATOM      1  C   UNL     1      -1.473   3.496 -23.604  0.00  0.00    +0.183 C 
ATOM      2  C   UNL     1      -1.634   2.242 -23.303  0.00  0.00    +0.045 C 
ATOM      3  C   UNL     1      -0.473   1.753 -22.979  0.00  0.00    +0.008 C 
ATOM      4  C   UNL     1       0.405   2.707 -23.080  0.00  0.00    +0.002 C 
ATOM      5  C   UNL     1       1.687   2.733 -22.869  0.00  0.00    -0.003 C 
ATOM      6  C   UNL     1       2.305   1.657 -22.483  0.00  0.00    +0.008 C 
ATOM      7  C   UNL     1       3.587   1.683 -22.273  0.00  0.00    +0.032 C 
ATOM      8  C   UNL     1       4.253   2.786 -22.449  0.00  0.00    -0.060 C 
ATOM      9  C   UNL     1       5.535   2.812 -22.238  0.00  0.00    +0.046 C 
ATOM     10  C   UNL     1       6.201   3.916 -22.414  0.00  0.00    +0.156 C 
ATOM     11  C   UNL     1       5.583   4.993 -22.801  0.00  0.00    +0.080 C 
ATOM     12  C   UNL     1       4.300   4.966 -23.011  0.00  0.00    +0.019 C 
ATOM     13  O   UNL     1       7.483   3.942 -22.204  0.00  0.00    -0.293 OA
ATOM     14  C   UNL     1       3.635   3.863 -22.835  0.00  0.00    -0.007 C 
ATOM     15  C   UNL     1       3.018   4.939 -23.221  0.00  0.00    +0.016 C 
ATOM     16  C   UNL     1       2.352   3.836 -23.045  0.00  0.00    +0.002 C 
ATOM     17  C   UNL     1       1.735   4.914 -23.432  0.00  0.00    +0.005 C 
ATOM     18  C   UNL     1       0.452   4.886 -23.642  0.00  0.00    +0.011 C 
ATOM     19  C   UNL     1      -0.212   3.784 -23.466  0.00  0.00    +0.008 C 
ATOM     20  C   UNL     1      -0.944   4.785 -23.852  0.00  0.00    +0.015 C 
ENDROOT
BRANCH   1  21
ATOM     21  O   UNL     1      -2.407   4.318 -23.978  0.00  0.00    -0.461 OA
BRANCH  21  22
ATOM     22  C   UNL     1      -3.521   3.859 -24.467  0.00  0.00    +0.307 C 
ATOM     23  O   UNL     1      -3.511   3.175 -25.573  0.00  0.00    -0.251 OA
BRANCH  22  24
ATOM     24  C   UNL     1      -4.643   4.083 -23.853  0.00  0.00    +0.120 C 
BRANCH  24  25
ATOM     25  C   UNL     1      -5.020   3.305 -22.880  0.00  0.00    +0.011 C 
BRANCH  25  26
ATOM     26  C   UNL     1      -4.820   3.663 -21.647  0.00  0.00    +0.000 C 
BRANCH  26  28
ATOM     27  C   UNL     1      -3.074   3.679 -20.224  0.00  0.00    +0.004 C 
ATOM     28  C   UNL     1      -3.958   3.022 -20.916  0.00  0.00    -0.003 C 
ENDBRANCH  26  28
ENDBRANCH  25  26
ENDBRANCH  24  25
ENDBRANCH  22  24
ENDBRANCH  21  22
ENDBRANCH   1  21
TORSDOF 6
ENDMDL
MODEL 2
REMARK VINA RESULT:   -10.939      1.288      2.202
REMARK INTER + INTRA:         -14.206
REMARK INTER:                 -14.067
REMARK INTRA:                  -0.139
REMARK UNBOUND:                 0.571
REMARK  Name = ZINC000004104674
REMARK  9 active torsions:
REMARK  status: ('A' for Active; 'I' for Inactive)
REMARK    1  A    between atoms: C_1  and  C_2
REMARK    2  A    between atoms: C_2  and  C_3
REMARK    3  A    between atoms: C_3  and  C_4
REMARK    4  A    between atoms: C_4  and  C_5
REMARK    5  A    between atoms: C_5  and  C_6
REMARK    6  A    between atoms: C_6  and  O_8
REMARK    7  A    between atoms: O_8  and  C_9
REMARK    8  A    between atoms: C_22  and  C_23
REMARK    9  A    between atoms: C_27  and  C_28
REMARK                            x       y       z     vdW  Elec       q    Type
REMARK                         _______ _______ _______ _____ _____    ______ ____
ROOT
ATOM      1  C   UNL     1      -2.011   3.286 -22.491  0.00  0.00    +0.183 C 
ATOM      2  C   UNL     1      -2.194   2.128 -21.930  0.00  0.00    +0.045 C 
ATOM      3  C   UNL     1      -1.028   1.583 -21.742  0.00  0.00    +0.008 C 
ATOM      4  C   UNL     1      -0.125   2.405 -22.188  0.00  0.00    +0.002 C 
ATOM      5  C   UNL     1       1.171   2.331 -22.232  0.00  0.00    -0.003 C 
ATOM      6  C   UNL     1       1.779   1.279 -21.769  0.00  0.00    +0.008 C 
ATOM      7  C   UNL     1       3.076   1.204 -21.813  0.00  0.00    +0.032 C 
ATOM      8  C   UNL     1       3.766   2.183 -22.320  0.00  0.00    -0.060 C 
ATOM      9  C   UNL     1       5.063   2.109 -22.364  0.00  0.00    +0.046 C 
ATOM     10  C   UNL     1       5.754   3.087 -22.872  0.00  0.00    +0.156 C 
ATOM     11  C   UNL     1       5.146   4.139 -23.335  0.00  0.00    +0.080 C 
ATOM     12  C   UNL     1       3.849   4.213 -23.290  0.00  0.00    +0.019 C 
ATOM     13  O   UNL     1       7.051   3.013 -22.916  0.00  0.00    -0.293 OA
ATOM     14  C   UNL     1       3.159   3.235 -22.783  0.00  0.00    -0.007 C 
ATOM     15  C   UNL     1       2.552   4.287 -23.246  0.00  0.00    +0.016 C 
ATOM     16  C   UNL     1       1.862   3.309 -22.739  0.00  0.00    +0.002 C 
ATOM     17  C   UNL     1       1.255   4.362 -23.202  0.00  0.00    +0.005 C 
ATOM     18  C   UNL     1      -0.043   4.435 -23.158  0.00  0.00    +0.011 C 
ATOM     19  C   UNL     1      -0.732   3.457 -22.651  0.00  0.00    +0.008 C 
ATOM     20  C   UNL     1      -1.456   4.448 -23.078  0.00  0.00    +0.015 C 
ENDROOT
BRANCH   1  21
ATOM     21  O   UNL     1      -2.943   4.125 -22.833  0.00  0.00    -0.461 OA
BRANCH  21  22
ATOM     22  C   UNL     1      -4.190   3.845 -22.595  0.00  0.00    +0.307 C 
ATOM     23  O   UNL     1      -4.600   3.696 -21.371  0.00  0.00    -0.251 OA
BRANCH  22  24
ATOM     24  C   UNL     1      -5.027   3.713 -23.581  0.00  0.00    +0.120 C 
BRANCH  24  25
ATOM     25  C   UNL     1      -4.719   4.164 -24.761  0.00  0.00    +0.011 C 
BRANCH  25  26
ATOM     26  C   UNL     1      -4.567   3.340 -25.753  0.00  0.00    +0.000 C 
BRANCH  26  28
ATOM     27  C   UNL     1      -2.359   3.412 -26.189  0.00  0.00    +0.004 C 
ATOM     28  C   UNL     1      -3.591   3.507 -26.594  0.00  0.00    -0.003 C 
ENDBRANCH  26  28
ENDBRANCH  25  26
ENDBRANCH  24  25
ENDBRANCH  22  24
ENDBRANCH  21  22
ENDBRANCH   1  21
TORSDOF 6
ENDMDL
MODEL 3
REMARK VINA RESULT:   -10.860      1.773      7.589
REMARK INTER + INTRA:         -14.098
REMARK INTER:                 -13.927
REMARK INTRA:                  -0.171
REMARK UNBOUND:                 0.571
REMARK  Name = ZINC000004104674
REMARK  9 active torsions:
REMARK  status: ('A' for Active; 'I' for Inactive)
REMARK    1  A    between atoms: C_1  and  C_2
REMARK    2  A    between atoms: C_2  and  C_3
REMARK    3  A    between atoms: C_3  and  C_4
REMARK    4  A    between atoms: C_4  and  C_5
REMARK    5  A    between atoms: C_5  and  C_6
REMARK    6  A    between atoms: C_6  and  O_8
REMARK    7  A    between atoms: O_8  and  C_9
REMARK    8  A    between atoms: C_22  and  C_23
REMARK    9  A    between atoms: C_27  and  C_28
REMARK                            x       y       z     vdW  Elec       q    Type
REMARK                         _______ _______ _______ _____ _____    ______ ____
ROOT
ATOM      1  C   UNL     1       2.789   1.471 -22.634  0.00  0.00    +0.183 C 
ATOM      2  C   UNL     1       3.036   1.849 -23.853  0.00  0.00    +0.045 C 
ATOM      3  C   UNL     1       1.934   2.315 -24.361  0.00  0.00    +0.008 C 
ATOM      4  C   UNL     1       1.006   2.224 -23.456  0.00  0.00    +0.002 C 
ATOM      5  C   UNL     1      -0.253   2.550 -23.466  0.00  0.00    -0.003 C 
ATOM      6  C   UNL     1      -0.781   3.072 -24.533  0.00  0.00    +0.008 C 
ATOM      7  C   UNL     1      -2.039   3.397 -24.543  0.00  0.00    +0.032 C 
ATOM      8  C   UNL     1      -2.770   3.201 -23.485  0.00  0.00    -0.060 C 
ATOM      9  C   UNL     1      -4.029   3.527 -23.495  0.00  0.00    +0.046 C 
ATOM     10  C   UNL     1      -4.759   3.331 -22.437  0.00  0.00    +0.156 C 
ATOM     11  C   UNL     1      -4.231   2.809 -21.370  0.00  0.00    +0.080 C 
ATOM     12  C   UNL     1      -2.972   2.484 -21.361  0.00  0.00    +0.019 C 
ATOM     13  O   UNL     1      -6.018   3.656 -22.447  0.00  0.00    -0.293 OA
ATOM     14  C   UNL     1      -2.242   2.680 -22.418  0.00  0.00    -0.007 C 
ATOM     15  C   UNL     1      -1.714   2.158 -21.351  0.00  0.00    +0.016 C 
ATOM     16  C   UNL     1      -0.983   2.354 -22.409  0.00  0.00    +0.002 C 
ATOM     17  C   UNL     1      -0.455   1.832 -21.341  0.00  0.00    +0.005 C 
ATOM     18  C   UNL     1       0.804   1.507 -21.331  0.00  0.00    +0.011 C 
ATOM     19  C   UNL     1       1.533   1.703 -22.389  0.00  0.00    +0.008 C 
ATOM     20  C   UNL     1       2.179   1.177 -21.392  0.00  0.00    +0.015 C 
ENDROOT
BRANCH   1  21
ATOM     21  O   UNL     1       3.646   0.952 -21.807  0.00  0.00    -0.461 OA
BRANCH  21  22
ATOM     22  C   UNL     1       4.904   1.271 -21.887  0.00  0.00    +0.307 C 
ATOM     23  O   UNL     1       5.748   0.453 -22.442  0.00  0.00    -0.251 OA
BRANCH  22  24
ATOM     24  C   UNL     1       5.318   2.408 -21.413  0.00  0.00    +0.120 C 
BRANCH  24  25
ATOM     25  C   UNL     1       6.091   3.169 -22.129  0.00  0.00    +0.011 C 
BRANCH  25  26
ATOM     26  C   UNL     1       5.598   3.851 -23.119  0.00  0.00    +0.000 C 
BRANCH  26  28
ATOM     27  C   UNL     1       3.821   5.226 -22.979  0.00  0.00    +0.004 C 
ATOM     28  C   UNL     1       5.105   5.035 -22.912  0.00  0.00    -0.003 C 
ENDBRANCH  26  28
ENDBRANCH  25  26
ENDBRANCH  24  25
ENDBRANCH  22  24
ENDBRANCH  21  22
ENDBRANCH   1  21
TORSDOF 6
ENDMDL
MODEL 4
REMARK VINA RESULT:   -10.744      1.293      2.937
REMARK INTER + INTRA:         -13.942
REMARK INTER:                 -13.687
REMARK INTRA:                  -0.254
REMARK UNBOUND:                 0.571
REMARK  Name = ZINC000004104674
REMARK  9 active torsions:
REMARK  status: ('A' for Active; 'I' for Inactive)
REMARK    1  A    between atoms: C_1  and  C_2
REMARK    2  A    between atoms: C_2  and  C_3
REMARK    3  A    between atoms: C_3  and  C_4
REMARK    4  A    between atoms: C_4  and  C_5
REMARK    5  A    between atoms: C_5  and  C_6
REMARK    6  A    between atoms: C_6  and  O_8
REMARK    7  A    between atoms: O_8  and  C_9
REMARK    8  A    between atoms: C_22  and  C_23
REMARK    9  A    between atoms: C_27  and  C_28
REMARK                            x       y       z     vdW  Elec       q    Type
REMARK                         _______ _______ _______ _____ _____    ______ ____
ROOT
ATOM      1  C   UNL     1      -2.016   3.547 -22.579  0.00  0.00    +0.183 C 
ATOM      2  C   UNL     1      -2.019   4.784 -22.976  0.00  0.00    +0.045 C 
ATOM      3  C   UNL     1      -0.786   5.149 -23.170  0.00  0.00    +0.008 C 
ATOM      4  C   UNL     1      -0.021   4.135 -22.892  0.00  0.00    +0.002 C 
ATOM      5  C   UNL     1       1.270   3.986 -22.925  0.00  0.00    -0.003 C 
ATOM      6  C   UNL     1       2.030   4.975 -23.290  0.00  0.00    +0.008 C 
ATOM      7  C   UNL     1       3.320   4.827 -23.323  0.00  0.00    +0.032 C 
ATOM      8  C   UNL     1       3.852   3.687 -22.990  0.00  0.00    -0.060 C 
ATOM      9  C   UNL     1       5.143   3.538 -23.023  0.00  0.00    +0.046 C 
ATOM     10  C   UNL     1       5.675   2.399 -22.691  0.00  0.00    +0.156 C 
ATOM     11  C   UNL     1       4.915   1.409 -22.326  0.00  0.00    +0.080 C 
ATOM     12  C   UNL     1       3.624   1.559 -22.293  0.00  0.00    +0.019 C 
ATOM     13  O   UNL     1       6.965   2.250 -22.723  0.00  0.00    -0.293 OA
ATOM     14  C   UNL     1       3.092   2.697 -22.625  0.00  0.00    -0.007 C 
ATOM     15  C   UNL     1       2.333   1.708 -22.261  0.00  0.00    +0.016 C 
ATOM     16  C   UNL     1       1.801   2.847 -22.593  0.00  0.00    +0.002 C 
ATOM     17  C   UNL     1       1.041   1.857 -22.228  0.00  0.00    +0.005 C 
ATOM     18  C   UNL     1      -0.250   2.006 -22.195  0.00  0.00    +0.011 C 
ATOM     19  C   UNL     1      -0.780   3.145 -22.528  0.00  0.00    +0.008 C 
ATOM     20  C   UNL     1      -1.646   2.240 -22.183  0.00  0.00    +0.015 C 
ENDROOT
BRANCH   1  21
ATOM     21  O   UNL     1      -3.063   2.836 -22.286  0.00  0.00    -0.461 OA
BRANCH  21  22
ATOM     22  C   UNL     1      -4.206   3.418 -22.070  0.00  0.00    +0.307 C 
ATOM     23  O   UNL     1      -4.394   4.094 -20.976  0.00  0.00    -0.251 OA
BRANCH  22  24
ATOM     24  C   UNL     1      -5.160   3.324 -22.948  0.00  0.00    +0.120 C 
BRANCH  24  25
ATOM     25  C   UNL     1      -5.152   4.086 -24.001  0.00  0.00    +0.011 C 
BRANCH  25  26
ATOM     26  C   UNL     1      -4.876   3.582 -25.167  0.00  0.00    +0.000 C 
BRANCH  26  28
ATOM     27  C   UNL     1      -2.869   3.346 -26.160  0.00  0.00    +0.004 C 
ATOM     28  C   UNL     1      -3.906   4.077 -25.876  0.00  0.00    -0.003 C 
ENDBRANCH  26  28
ENDBRANCH  25  26
ENDBRANCH  24  25
ENDBRANCH  22  24
ENDBRANCH  21  22
ENDBRANCH   1  21
TORSDOF 6
ENDMDL
MODEL 5
REMARK VINA RESULT:   -10.297      0.798      2.084
REMARK INTER + INTRA:         -13.337
REMARK INTER:                 -12.829
REMARK INTRA:                  -0.509
REMARK UNBOUND:                 0.571
REMARK  Name = ZINC000004104674
REMARK  9 active torsions:
REMARK  status: ('A' for Active; 'I' for Inactive)
REMARK    1  A    between atoms: C_1  and  C_2
REMARK    2  A    between atoms: C_2  and  C_3
REMARK    3  A    between atoms: C_3  and  C_4
REMARK    4  A    between atoms: C_4  and  C_5
REMARK    5  A    between atoms: C_5  and  C_6
REMARK    6  A    between atoms: C_6  and  O_8
REMARK    7  A    between atoms: O_8  and  C_9
REMARK    8  A    between atoms: C_22  and  C_23
REMARK    9  A    between atoms: C_27  and  C_28
REMARK                            x       y       z     vdW  Elec       q    Type
REMARK                         _______ _______ _______ _____ _____    ______ ____
ROOT
ATOM      1  C   UNL     1      -1.740   3.667 -23.863  0.00  0.00    +0.183 C 
ATOM      2  C   UNL     1      -1.847   4.962 -23.846  0.00  0.00    +0.045 C 
ATOM      3  C   UNL     1      -0.662   5.461 -23.654  0.00  0.00    +0.008 C 
ATOM      4  C   UNL     1       0.177   4.473 -23.554  0.00  0.00    +0.002 C 
ATOM      5  C   UNL     1       1.462   4.440 -23.362  0.00  0.00    -0.003 C 
ATOM      6  C   UNL     1       2.129   5.549 -23.233  0.00  0.00    +0.008 C 
ATOM      7  C   UNL     1       3.414   5.516 -23.040  0.00  0.00    +0.032 C 
ATOM      8  C   UNL     1       4.033   4.374 -22.977  0.00  0.00    -0.060 C 
ATOM      9  C   UNL     1       5.318   4.341 -22.785  0.00  0.00    +0.046 C 
ATOM     10  C   UNL     1       5.937   3.199 -22.721  0.00  0.00    +0.156 C 
ATOM     11  C   UNL     1       5.270   2.090 -22.850  0.00  0.00    +0.080 C 
ATOM     12  C   UNL     1       3.985   2.124 -23.043  0.00  0.00    +0.019 C 
ATOM     13  O   UNL     1       7.222   3.166 -22.529  0.00  0.00    -0.293 OA
ATOM     14  C   UNL     1       3.366   3.265 -23.106  0.00  0.00    -0.007 C 
ATOM     15  C   UNL     1       2.700   2.157 -23.235  0.00  0.00    +0.016 C 
ATOM     16  C   UNL     1       2.081   3.299 -23.298  0.00  0.00    +0.002 C 
ATOM     17  C   UNL     1       1.414   2.189 -23.428  0.00  0.00    +0.005 C 
ATOM     18  C   UNL     1       0.129   2.223 -23.620  0.00  0.00    +0.011 C 
ATOM     19  C   UNL     1      -0.489   3.364 -23.683  0.00  0.00    +0.008 C 
ATOM     20  C   UNL     1      -1.267   2.334 -23.827  0.00  0.00    +0.015 C 
ENDROOT
BRANCH   1  21
ATOM     21  O   UNL     1      -2.714   2.823 -24.032  0.00  0.00    -0.461 OA
BRANCH  21  22
ATOM     22  C   UNL     1      -3.923   3.256 -24.238  0.00  0.00    +0.307 C 
ATOM     23  O   UNL     1      -4.395   3.312 -25.448  0.00  0.00    -0.251 OA
BRANCH  22  24
ATOM     24  C   UNL     1      -4.659   3.632 -23.235  0.00  0.00    +0.120 C 
BRANCH  24  25
ATOM     25  C   UNL     1      -4.592   2.995 -22.103  0.00  0.00    +0.011 C 
BRANCH  25  26
ATOM     26  C   UNL     1      -4.456   3.655 -20.992  0.00  0.00    +0.000 C 
BRANCH  26  28
ATOM     27  C   UNL     1      -2.349   3.026 -20.508  0.00  0.00    +0.004 C 
ATOM     28  C   UNL     1      -3.269   3.944 -20.548  0.00  0.00    -0.003 C 
ENDBRANCH  26  28
ENDBRANCH  25  26
ENDBRANCH  24  25
ENDBRANCH  22  24
ENDBRANCH  21  22
ENDBRANCH   1  21
TORSDOF 6
ENDMDL
MODEL 6
REMARK VINA RESULT:    -8.475      1.983      3.236
REMARK INTER + INTRA:         -10.877
REMARK INTER:                 -11.726
REMARK INTRA:                   0.849
REMARK UNBOUND:                 0.571
REMARK  Name = ZINC000004104674
REMARK  9 active torsions:
REMARK  status: ('A' for Active; 'I' for Inactive)
REMARK    1  A    between atoms: C_1  and  C_2
REMARK    2  A    between atoms: C_2  and  C_3
REMARK    3  A    between atoms: C_3  and  C_4
REMARK    4  A    between atoms: C_4  and  C_5
REMARK    5  A    between atoms: C_5  and  C_6
REMARK    6  A    between atoms: C_6  and  O_8
REMARK    7  A    between atoms: O_8  and  C_9
REMARK    8  A    between atoms: C_22  and  C_23
REMARK    9  A    between atoms: C_27  and  C_28
REMARK                            x       y       z     vdW  Elec       q    Type
REMARK                         _______ _______ _______ _____ _____    ______ ____
ROOT
ATOM      1  C   UNL     1       1.237   3.152 -24.224  0.00  0.00    +0.183 C 
ATOM      2  C   UNL     1       1.868   2.067 -24.561  0.00  0.00    +0.045 C 
ATOM      3  C   UNL     1       3.128   2.232 -24.287  0.00  0.00    +0.008 C 
ATOM      4  C   UNL     1       3.275   3.420 -23.781  0.00  0.00    +0.002 C 
ATOM      5  C   UNL     1       4.323   4.057 -23.350  0.00  0.00    -0.003 C 
ATOM      6  C   UNL     1       5.492   3.489 -23.388  0.00  0.00    +0.008 C 
ATOM      7  C   UNL     1       6.540   4.126 -22.957  0.00  0.00    +0.032 C 
ATOM      8  C   UNL     1       6.419   5.333 -22.487  0.00  0.00    -0.060 C 
ATOM      9  C   UNL     1       7.467   5.970 -22.057  0.00  0.00    +0.046 C 
ATOM     10  C   UNL     1       7.346   7.177 -21.587  0.00  0.00    +0.156 C 
ATOM     11  C   UNL     1       6.178   7.745 -21.548  0.00  0.00    +0.080 C 
ATOM     12  C   UNL     1       5.130   7.107 -21.979  0.00  0.00    +0.019 C 
ATOM     13  O   UNL     1       8.394   7.814 -21.156  0.00  0.00    -0.293 OA
ATOM     14  C   UNL     1       5.250   5.901 -22.449  0.00  0.00    -0.007 C 
ATOM     15  C   UNL     1       4.083   6.470 -22.410  0.00  0.00    +0.016 C 
ATOM     16  C   UNL     1       4.203   5.263 -22.880  0.00  0.00    +0.002 C 
ATOM     17  C   UNL     1       3.034   5.833 -22.841  0.00  0.00    +0.005 C 
ATOM     18  C   UNL     1       1.987   5.195 -23.272  0.00  0.00    +0.011 C 
ATOM     19  C   UNL     1       2.108   3.989 -23.742  0.00  0.00    +0.008 C 
ATOM     20  C   UNL     1       0.890   4.442 -23.758  0.00  0.00    +0.015 C 
ENDROOT
BRANCH   1  21
ATOM     21  O   UNL     1      -0.039   3.364 -24.349  0.00  0.00    -0.461 OA
BRANCH  21  22
ATOM     22  C   UNL     1      -0.890   2.488 -23.903  0.00  0.00    +0.307 C 
ATOM     23  O   UNL     1      -0.502   1.572 -23.066  0.00  0.00    -0.251 OA
BRANCH  22  24
ATOM     24  C   UNL     1      -2.129   2.527 -24.294  0.00  0.00    +0.120 C 
BRANCH  24  25
ATOM     25  C   UNL     1      -2.450   3.176 -25.374  0.00  0.00    +0.011 C 
BRANCH  25  26
ATOM     26  C   UNL     1      -3.659   3.627 -25.526  0.00  0.00    +0.000 C 
BRANCH  26  28
ATOM     27  C   UNL     1      -5.368   4.020 -24.113  0.00  0.00    +0.004 C 
ATOM     28  C   UNL     1      -4.206   4.349 -24.595  0.00  0.00    -0.003 C 
ENDBRANCH  26  28
ENDBRANCH  25  26
ENDBRANCH  24  25
ENDBRANCH  22  24
ENDBRANCH  21  22
ENDBRANCH   1  21
TORSDOF 6
ENDMDL
