MODEL 1
REMARK VINA RESULT:   -13.250      0.000      0.000
REMARK INTER + INTRA:         -13.250
REMARK INTER:                 -13.250
REMARK INTRA:                   0.000
REMARK UNBOUND:                 0.000
REMARK  Name = ZINC000004387860
REMARK  2 active torsions:
REMARK  status: ('A' for Active; 'I' for Inactive)
REMARK    1  A    between atoms: C_1  and  C_2
REMARK    2  A    between atoms: C_14  and  C_15
REMARK                            x       y       z     vdW  Elec       q    Type
REMARK                         _______ _______ _______ _____ _____    ______ ____
ROOT
ATOM      1  C   UNL     1      -4.879   2.891 -21.650  0.00  0.00    +0.019 C 
ATOM      2  C   UNL     1      -3.993   3.112 -22.574  0.00  0.00    +0.029 C 
ATOM      3  C   UNL     1      -3.520   2.514 -21.521  0.00  0.00    +0.015 C 
ATOM      4  C   UNL     1      -2.262   2.195 -21.465  0.00  0.00    +0.005 C 
ATOM      5  C   UNL     1      -1.474   2.473 -22.462  0.00  0.00    +0.003 C 
ATOM      6  C   UNL     1      -1.947   3.071 -23.515  0.00  0.00    +0.001 C 
ATOM      7  C   UNL     1      -1.160   3.350 -24.511  0.00  0.00    +0.031 C 
ATOM      8  C   UNL     1       0.099   3.030 -24.455  0.00  0.00    -0.027 C 
ATOM      9  C   UNL     1       0.571   2.432 -23.401  0.00  0.00    -0.062 C 
ATOM     10  C   UNL     1       1.830   2.113 -23.344  0.00  0.00    +0.096 C 
ATOM     11  C   UNL     1       2.302   1.515 -22.291  0.00  0.00    +0.174 C 
ATOM     12  O   UNL     1       2.895   0.918 -21.301  0.00  0.00    -0.346 OA
ATOM     13  C   UNL     1       4.149   0.770 -21.613  0.00  0.00    +0.191 C 
ATOM     14  C   UNL     1       4.330   1.276 -22.796  0.00  0.00    +0.191 C 
ATOM     15  C   UNL     1       1.516   1.236 -21.295  0.00  0.00    +0.066 C 
ATOM     16  C   UNL     1       0.256   1.556 -21.351  0.00  0.00    +0.016 C 
ATOM     17  O   UNL     1       3.189   1.737 -23.216  0.00  0.00    -0.346 OA
ATOM     18  C   UNL     1      -0.216   2.154 -22.405  0.00  0.00    -0.008 C 
ATOM     19  C   UNL     1      -1.003   1.875 -21.408  0.00  0.00    +0.016 C 
ATOM     20  C   UNL     1      -5.186   3.530 -22.875  0.00  0.00    +0.139 C 
ATOM     21  O   UNL     1      -6.243   3.429 -22.127  0.00  0.00    -0.297 OA
ATOM     22  C   UNL     1      -5.137   4.067 -24.059  0.00  0.00    +0.075 C 
ATOM     23  C   UNL     1      -3.913   3.981 -24.489  0.00  0.00    +0.012 C 
ATOM     24  C   UNL     1      -3.206   3.391 -23.572  0.00  0.00    +0.006 C 
ENDROOT
TORSDOF 0
ENDMDL
MODEL 2
REMARK VINA RESULT:   -12.995      0.924      2.404
REMARK INTER + INTRA:         -12.995
REMARK INTER:                 -12.995
REMARK INTRA:                   0.000
REMARK UNBOUND:                 0.000
REMARK  Name = ZINC000004387860
REMARK  2 active torsions:
REMARK  status: ('A' for Active; 'I' for Inactive)
REMARK    1  A    between atoms: C_1  and  C_2
REMARK    2  A    between atoms: C_14  and  C_15
REMARK                            x       y       z     vdW  Elec       q    Type
REMARK                         _______ _______ _______ _____ _____    ______ ____
ROOT
ATOM      1  C   UNL     1      -3.687   4.496 -25.143  0.00  0.00    +0.019 C 
ATOM      2  C   UNL     1      -3.412   3.823 -24.066  0.00  0.00    +0.029 C 
ATOM      3  C   UNL     1      -2.389   4.014 -24.845  0.00  0.00    +0.015 C 
ATOM      4  C   UNL     1      -1.224   3.544 -24.514  0.00  0.00    +0.005 C 
ATOM      5  C   UNL     1      -1.080   2.883 -23.403  0.00  0.00    +0.003 C 
ATOM      6  C   UNL     1      -2.103   2.693 -22.624  0.00  0.00    +0.001 C 
ATOM      7  C   UNL     1      -1.959   2.032 -21.513  0.00  0.00    +0.031 C 
ATOM      8  C   UNL     1      -0.793   1.563 -21.182  0.00  0.00    -0.027 C 
ATOM      9  C   UNL     1       0.230   1.754 -21.962  0.00  0.00    -0.062 C 
ATOM     10  C   UNL     1       1.396   1.285 -21.631  0.00  0.00    +0.096 C 
ATOM     11  C   UNL     1       2.419   1.475 -22.410  0.00  0.00    +0.174 C 
ATOM     12  O   UNL     1       3.515   1.597 -23.098  0.00  0.00    -0.346 OA
ATOM     13  C   UNL     1       4.467   0.999 -22.446  0.00  0.00    +0.191 C 
ATOM     14  C   UNL     1       3.959   0.507 -21.355  0.00  0.00    +0.191 C 
ATOM     15  C   UNL     1       2.276   2.136 -23.520  0.00  0.00    +0.066 C 
ATOM     16  C   UNL     1       1.109   2.605 -23.852  0.00  0.00    +0.016 C 
ATOM     17  O   UNL     1       2.693   0.801 -21.332  0.00  0.00    -0.346 OA
ATOM     18  C   UNL     1       0.086   2.414 -23.072  0.00  0.00    -0.008 C 
ATOM     19  C   UNL     1      -0.057   3.075 -24.183  0.00  0.00    +0.016 C 
ATOM     20  C   UNL     1      -4.659   4.180 -24.164  0.00  0.00    +0.139 C 
ATOM     21  O   UNL     1      -5.185   4.857 -25.139  0.00  0.00    -0.297 OA
ATOM     22  C   UNL     1      -5.285   3.739 -23.112  0.00  0.00    +0.075 C 
ATOM     23  C   UNL     1      -4.427   3.111 -22.366  0.00  0.00    +0.012 C 
ATOM     24  C   UNL     1      -3.269   3.162 -22.955  0.00  0.00    +0.006 C 
ENDROOT
TORSDOF 0
ENDMDL
MODEL 3
REMARK VINA RESULT:   -12.206      0.968      6.403
REMARK INTER + INTRA:         -12.206
REMARK INTER:                 -12.206
REMARK INTRA:                   0.000
REMARK UNBOUND:                 0.000
REMARK  Name = ZINC000004387860
REMARK  2 active torsions:
REMARK  status: ('A' for Active; 'I' for Inactive)
REMARK    1  A    between atoms: C_1  and  C_2
REMARK    2  A    between atoms: C_14  and  C_15
REMARK                            x       y       z     vdW  Elec       q    Type
REMARK                         _______ _______ _______ _____ _____    ______ ____
ROOT
ATOM      1  C   UNL     1       3.296   1.245 -21.316  0.00  0.00    +0.019 C 
ATOM      2  C   UNL     1       2.681   1.824 -22.304  0.00  0.00    +0.029 C 
ATOM      3  C   UNL     1       1.901   1.489 -21.319  0.00  0.00    +0.015 C 
ATOM      4  C   UNL     1       0.628   1.741 -21.384  0.00  0.00    +0.005 C 
ATOM      5  C   UNL     1       0.133   2.329 -22.433  0.00  0.00    +0.003 C 
ATOM      6  C   UNL     1       0.913   2.663 -23.418  0.00  0.00    +0.001 C 
ATOM      7  C   UNL     1       0.418   3.251 -24.467  0.00  0.00    +0.031 C 
ATOM      8  C   UNL     1      -0.855   3.503 -24.532  0.00  0.00    -0.027 C 
ATOM      9  C   UNL     1      -1.634   3.168 -23.546  0.00  0.00    -0.062 C 
ATOM     10  C   UNL     1      -2.908   3.420 -23.611  0.00  0.00    +0.096 C 
ATOM     11  C   UNL     1      -3.688   3.085 -22.626  0.00  0.00    +0.174 C 
ATOM     12  O   UNL     1      -4.570   2.803 -21.714  0.00  0.00    -0.346 OA
ATOM     13  C   UNL     1      -5.730   3.207 -22.138  0.00  0.00    +0.191 C 
ATOM     14  C   UNL     1      -5.565   3.739 -23.312  0.00  0.00    +0.191 C 
ATOM     15  C   UNL     1      -3.194   2.498 -21.577  0.00  0.00    +0.066 C 
ATOM     16  C   UNL     1      -1.920   2.246 -21.512  0.00  0.00    +0.016 C 
ATOM     17  O   UNL     1      -4.303   3.664 -23.615  0.00  0.00    -0.346 OA
ATOM     18  C   UNL     1      -1.141   2.581 -22.498  0.00  0.00    -0.008 C 
ATOM     19  C   UNL     1      -0.646   1.993 -21.448  0.00  0.00    +0.016 C 
ATOM     20  C   UNL     1       3.961   1.688 -22.485  0.00  0.00    +0.139 C 
ATOM     21  O   UNL     1       4.797   1.145 -21.652  0.00  0.00    -0.297 OA
ATOM     22  C   UNL     1       4.258   2.191 -23.647  0.00  0.00    +0.075 C 
ATOM     23  C   UNL     1       3.162   2.638 -24.183  0.00  0.00    +0.012 C 
ATOM     24  C   UNL     1       2.187   2.411 -23.354  0.00  0.00    +0.006 C 
ENDROOT
TORSDOF 0
ENDMDL
MODEL 4
REMARK VINA RESULT:   -11.814      1.379      6.864
REMARK INTER + INTRA:         -11.814
REMARK INTER:                 -11.814
REMARK INTRA:                   0.000
REMARK UNBOUND:                 0.000
REMARK  Name = ZINC000004387860
REMARK  2 active torsions:
REMARK  status: ('A' for Active; 'I' for Inactive)
REMARK    1  A    between atoms: C_1  and  C_2
REMARK    2  A    between atoms: C_14  and  C_15
REMARK                            x       y       z     vdW  Elec       q    Type
REMARK                         _______ _______ _______ _____ _____    ______ ____
ROOT
ATOM      1  C   UNL     1       4.181   2.849 -23.324  0.00  0.00    +0.019 C 
ATOM      2  C   UNL     1       3.189   2.379 -22.629  0.00  0.00    +0.029 C 
ATOM      3  C   UNL     1       2.829   3.173 -23.593  0.00  0.00    +0.015 C 
ATOM      4  C   UNL     1       1.570   3.430 -23.787  0.00  0.00    +0.005 C 
ATOM      5  C   UNL     1       0.669   2.894 -23.017  0.00  0.00    +0.003 C 
ATOM      6  C   UNL     1       1.029   2.099 -22.053  0.00  0.00    +0.001 C 
ATOM      7  C   UNL     1       0.129   1.563 -21.283  0.00  0.00    +0.031 C 
ATOM      8  C   UNL     1      -1.130   1.820 -21.478  0.00  0.00    -0.027 C 
ATOM      9  C   UNL     1      -1.489   2.615 -22.443  0.00  0.00    -0.062 C 
ATOM     10  C   UNL     1      -2.748   2.872 -22.637  0.00  0.00    +0.096 C 
ATOM     11  C   UNL     1      -3.108   3.667 -23.602  0.00  0.00    +0.174 C 
ATOM     12  O   UNL     1      -3.597   4.439 -24.525  0.00  0.00    -0.346 OA
ATOM     13  C   UNL     1      -4.890   4.447 -24.401  0.00  0.00    +0.191 C 
ATOM     14  C   UNL     1      -5.202   3.679 -23.400  0.00  0.00    +0.191 C 
ATOM     15  C   UNL     1      -2.209   4.203 -24.371  0.00  0.00    +0.066 C 
ATOM     16  C   UNL     1      -0.949   3.945 -24.176  0.00  0.00    +0.016 C 
ATOM     17  O   UNL     1      -4.101   3.196 -22.905  0.00  0.00    -0.346 OA
ATOM     18  C   UNL     1      -0.590   3.151 -23.212  0.00  0.00    -0.008 C 
ATOM     19  C   UNL     1       0.310   3.688 -23.982  0.00  0.00    +0.016 C 
ATOM     20  C   UNL     1       4.356   1.967 -22.230  0.00  0.00    +0.139 C 
ATOM     21  O   UNL     1       5.499   2.289 -22.755  0.00  0.00    -0.297 OA
ATOM     22  C   UNL     1       4.177   1.176 -21.214  0.00  0.00    +0.075 C 
ATOM     23  C   UNL     1       2.900   1.098 -20.984  0.00  0.00    +0.012 C 
ATOM     24  C   UNL     1       2.289   1.842 -21.858  0.00  0.00    +0.006 C 
ENDROOT
TORSDOF 0
ENDMDL
