MODEL 1
REMARK VINA RESULT:   -10.954      0.000      0.000
REMARK INTER + INTRA:         -10.910
REMARK INTER:                 -11.750
REMARK INTRA:                   0.840
REMARK UNBOUND:                 1.005
REMARK  Name = ZINC000001280593
REMARK  6 active torsions:
REMARK  status: ('A' for Active; 'I' for Inactive)
REMARK    1  A    between atoms: C_1  and  O_2
REMARK    2  A    between atoms: O_2  and  C_3
REMARK    3  A    between atoms: C_11  and  O_12
REMARK    4  A    between atoms: O_12  and  C_13
REMARK    5  A    between atoms: C_14  and  O_15
REMARK    6  A    between atoms: N_20  and  C_21
REMARK                            x       y       z     vdW  Elec       q    Type
REMARK                         _______ _______ _______ _____ _____    ______ ____
ROOT
ATOM      1  C   UNL     1      -2.362   3.510 -25.037  0.00  0.00    +0.159 C 
ATOM      2  C   UNL     1      -3.086   3.438 -24.406  0.00  0.00    +0.032 C 
ATOM      3  C   UNL     1      -2.946   3.126 -22.933  0.00  0.00    +0.075 C 
ATOM      4  C   UNL     1      -3.836   3.218 -23.046  0.00  0.00    +0.076 C 
ATOM      5  C   UNL     1      -3.696   3.399 -23.984  0.00  0.00    +0.090 C 
ATOM      6  C   UNL     1      -2.058   3.292 -24.087  0.00  0.00    -0.035 A 
ATOM      7  C   UNL     1      -0.858   3.424 -25.192  0.00  0.00    +0.008 A 
ATOM      8  C   UNL     1       0.302   3.262 -24.845  0.00  0.00    +0.049 A 
ATOM      9  C   UNL     1       0.559   2.995 -23.639  0.00  0.00    +0.162 A 
ATOM     10  C   UNL     1      -0.394   2.889 -22.755  0.00  0.00    +0.163 A 
ATOM     11  C   UNL     1      -1.657   3.054 -23.076  0.00  0.00    +0.009 A 
ATOM     12  N   UNL     1      -4.481   3.049 -21.972  0.00  0.00    +0.236 N 
ATOM     13  H   UNL     1      -5.497   3.128 -21.969  0.00  0.00    +0.203 HD
ATOM     14  C   UNL     1      -5.739   3.136 -21.916  0.00  0.00    +0.190 C 
ATOM     15  C   UNL     1      -3.745   2.774 -20.908  0.00  0.00    +0.132 C 
ATOM     16  C   UNL     1      -2.452   2.715 -21.113  0.00  0.00    +0.064 C 
ATOM     17  C   UNL     1      -2.108   2.927 -22.286  0.00  0.00    +0.023 C 
ATOM     18  C   UNL     1      -0.982   3.048 -23.307  0.00  0.00    +0.095 C 
ATOM     19  C   UNL     1      -1.377   3.370 -24.732  0.00  0.00    +0.198 C 
ATOM     20  O   UNL     1      -2.389   3.784 -26.370  0.00  0.00    -0.289 OA
ENDROOT
BRANCH   1  22
ATOM     21  C   UNL     1      -3.235   3.465 -27.526  0.00  0.00    +0.277 C 
ATOM     22  O   UNL     1      -3.497   3.824 -26.137  0.00  0.00    -0.492 OA
ENDBRANCH   1  22
BRANCH  10  23
ATOM     23  O   UNL     1       0.504   2.660 -21.978  0.00  0.00    -0.503 OA
ATOM     24  H   UNL     1       1.254   2.175 -22.261  0.00  0.00    +0.292 HD
ENDBRANCH  10  23
BRANCH   9  25
ATOM     25  O   UNL     1       1.756   2.803 -23.159  0.00  0.00    -0.491 OA
ATOM     26  C   UNL     1       2.808   2.905 -23.804  0.00  0.00    +0.277 C 
ENDBRANCH   9  25
TORSDOF 3
ENDMDL
MODEL 2
REMARK VINA RESULT:   -10.711      1.703      3.354
REMARK INTER + INTRA:         -10.646
REMARK INTER:                 -11.547
REMARK INTRA:                   0.901
REMARK UNBOUND:                 1.005
REMARK  Name = ZINC000001280593
REMARK  6 active torsions:
REMARK  status: ('A' for Active; 'I' for Inactive)
REMARK    1  A    between atoms: C_1  and  O_2
REMARK    2  A    between atoms: O_2  and  C_3
REMARK    3  A    between atoms: C_11  and  O_12
REMARK    4  A    between atoms: O_12  and  C_13
REMARK    5  A    between atoms: C_14  and  O_15
REMARK    6  A    between atoms: N_20  and  C_21
REMARK                            x       y       z     vdW  Elec       q    Type
REMARK                         _______ _______ _______ _____ _____    ______ ____
ROOT
ATOM      1  C   UNL     1      -2.452   2.864 -21.933  0.00  0.00    +0.159 C 
ATOM      2  C   UNL     1      -3.107   3.145 -22.580  0.00  0.00    +0.032 C 
ATOM      3  C   UNL     1      -2.878   3.270 -24.070  0.00  0.00    +0.075 C 
ATOM      4  C   UNL     1      -3.739   3.516 -23.967  0.00  0.00    +0.076 C 
ATOM      5  C   UNL     1      -3.665   3.370 -23.016  0.00  0.00    +0.090 C 
ATOM      6  C   UNL     1      -2.099   2.882 -22.891  0.00  0.00    -0.035 A 
ATOM      7  C   UNL     1      -1.019   2.409 -21.757  0.00  0.00    +0.008 A 
ATOM      8  C   UNL     1       0.117   2.110 -22.093  0.00  0.00    +0.049 A 
ATOM      9  C   UNL     1       0.442   2.171 -23.310  0.00  0.00    +0.162 A 
ATOM     10  C   UNL     1      -0.416   2.547 -24.218  0.00  0.00    +0.163 A 
ATOM     11  C   UNL     1      -1.649   2.879 -23.908  0.00  0.00    +0.009 A 
ATOM     12  N   UNL     1      -4.289   3.824 -25.063  0.00  0.00    +0.236 N 
ATOM     13  H   UNL     1      -5.265   4.120 -25.079  0.00  0.00    +0.203 HD
ATOM     14  C   UNL     1      -5.493   4.196 -25.136  0.00  0.00    +0.190 C 
ATOM     15  C   UNL     1      -3.515   3.730 -26.131  0.00  0.00    +0.132 C 
ATOM     16  C   UNL     1      -2.287   3.330 -25.907  0.00  0.00    +0.064 C 
ATOM     17  C   UNL     1      -2.031   3.099 -24.715  0.00  0.00    +0.023 C 
ATOM     18  C   UNL     1      -1.017   2.657 -23.666  0.00  0.00    +0.095 C 
ATOM     19  C   UNL     1      -1.487   2.611 -22.229  0.00  0.00    +0.198 C 
ATOM     20  O   UNL     1      -2.564   2.722 -20.584  0.00  0.00    -0.289 OA
ENDROOT
BRANCH   1  22
ATOM     21  C   UNL     1      -3.270   3.732 -19.580  0.00  0.00    +0.277 C 
ATOM     22  O   UNL     1      -3.612   3.070 -20.834  0.00  0.00    -0.492 OA
ENDBRANCH   1  22
BRANCH  10  23
ATOM     23  O   UNL     1       0.495   2.373 -24.992  0.00  0.00    -0.503 OA
ATOM     24  H   UNL     1       0.718   3.042 -25.610  0.00  0.00    +0.292 HD
ENDBRANCH  10  23
BRANCH   9  25
ATOM     25  O   UNL     1       1.621   1.877 -23.781  0.00  0.00    -0.491 OA
ATOM     26  C   UNL     1       2.563   1.427 -23.115  0.00  0.00    +0.277 C 
ENDBRANCH   9  25
TORSDOF 3
ENDMDL
MODEL 3
REMARK VINA RESULT:   -10.404      1.951      4.109
REMARK INTER + INTRA:         -10.312
REMARK INTER:                 -11.490
REMARK INTRA:                   1.178
REMARK UNBOUND:                 1.005
REMARK  Name = ZINC000001280593
REMARK  6 active torsions:
REMARK  status: ('A' for Active; 'I' for Inactive)
REMARK    1  A    between atoms: C_1  and  O_2
REMARK    2  A    between atoms: O_2  and  C_3
REMARK    3  A    between atoms: C_11  and  O_12
REMARK    4  A    between atoms: O_12  and  C_13
REMARK    5  A    between atoms: C_14  and  O_15
REMARK    6  A    between atoms: N_20  and  C_21
REMARK                            x       y       z     vdW  Elec       q    Type
REMARK                         _______ _______ _______ _____ _____    ______ ____
ROOT
ATOM      1  C   UNL     1      -2.950   3.545 -25.113  0.00  0.00    +0.159 C 
ATOM      2  C   UNL     1      -2.047   3.308 -24.876  0.00  0.00    +0.032 C 
ATOM      3  C   UNL     1      -1.576   2.894 -23.501  0.00  0.00    +0.075 C 
ATOM      4  C   UNL     1      -0.826   2.859 -24.000  0.00  0.00    +0.076 C 
ATOM      5  C   UNL     1      -1.331   3.140 -24.773  0.00  0.00    +0.090 C 
ATOM      6  C   UNL     1      -2.838   3.294 -24.131  0.00  0.00    -0.035 A 
ATOM      7  C   UNL     1      -4.357   3.703 -24.578  0.00  0.00    +0.008 A 
ATOM      8  C   UNL     1      -5.254   3.691 -23.748  0.00  0.00    +0.049 A 
ATOM      9  C   UNL     1      -4.996   3.363 -22.558  0.00  0.00    +0.162 A 
ATOM     10  C   UNL     1      -3.786   3.036 -22.197  0.00  0.00    +0.163 A 
ATOM     11  C   UNL     1      -2.787   3.033 -23.050  0.00  0.00    +0.009 A 
ATOM     12  N   UNL     1       0.185   2.500 -23.332  0.00  0.00    +0.236 N 
ATOM     13  H   UNL     1       1.095   2.422 -23.785  0.00  0.00    +0.203 HD
ATOM     14  C   UNL     1       1.332   2.389 -23.846  0.00  0.00    +0.190 C 
ATOM     15  C   UNL     1      -0.042   2.249 -22.054  0.00  0.00    +0.132 C 
ATOM     16  C   UNL     1      -1.281   2.406 -21.656  0.00  0.00    +0.064 C 
ATOM     17  C   UNL     1      -2.064   2.771 -22.547  0.00  0.00    +0.023 C 
ATOM     18  C   UNL     1      -3.483   3.150 -22.953  0.00  0.00    +0.095 C 
ATOM     19  C   UNL     1      -3.708   3.532 -24.400  0.00  0.00    +0.198 C 
ATOM     20  O   UNL     1      -3.465   3.927 -26.314  0.00  0.00    -0.289 OA
ENDROOT
BRANCH   1  22
ATOM     21  C   UNL     1      -3.268   3.523 -27.733  0.00  0.00    +0.277 C 
ATOM     22  O   UNL     1      -2.381   3.776 -26.603  0.00  0.00    -0.492 OA
ENDBRANCH   1  22
BRANCH  10  23
ATOM     23  O   UNL     1      -4.274   2.880 -21.102  0.00  0.00    -0.503 OA
ATOM     24  H   UNL     1      -5.182   2.662 -21.022  0.00  0.00    +0.292 HD
ENDBRANCH  10  23
BRANCH   9  25
ATOM     25  O   UNL     1      -5.872   3.315 -21.593  0.00  0.00    -0.491 OA
ATOM     26  C   UNL     1      -6.923   2.662 -21.616  0.00  0.00    +0.277 C 
ENDBRANCH   9  25
TORSDOF 3
ENDMDL
MODEL 4
REMARK VINA RESULT:   -10.365      1.167      1.427
REMARK INTER + INTRA:         -10.269
REMARK INTER:                 -11.679
REMARK INTRA:                   1.410
REMARK UNBOUND:                 1.005
REMARK  Name = ZINC000001280593
REMARK  6 active torsions:
REMARK  status: ('A' for Active; 'I' for Inactive)
REMARK    1  A    between atoms: C_1  and  O_2
REMARK    2  A    between atoms: O_2  and  C_3
REMARK    3  A    between atoms: C_11  and  O_12
REMARK    4  A    between atoms: O_12  and  C_13
REMARK    5  A    between atoms: C_14  and  O_15
REMARK    6  A    between atoms: N_20  and  C_21
REMARK                            x       y       z     vdW  Elec       q    Type
REMARK                         _______ _______ _______ _____ _____    ______ ____
ROOT
ATOM      1  C   UNL     1      -1.508   3.337 -24.137  0.00  0.00    +0.159 C 
ATOM      2  C   UNL     1      -2.399   3.357 -23.774  0.00  0.00    +0.032 C 
ATOM      3  C   UNL     1      -2.826   2.765 -22.449  0.00  0.00    +0.075 C 
ATOM      4  C   UNL     1      -3.588   3.117 -22.778  0.00  0.00    +0.076 C 
ATOM      5  C   UNL     1      -3.109   3.414 -23.562  0.00  0.00    +0.090 C 
ATOM      6  C   UNL     1      -1.590   2.881 -23.228  0.00  0.00    -0.035 A 
ATOM      7  C   UNL     1      -0.091   2.870 -23.884  0.00  0.00    +0.008 A 
ATOM      8  C   UNL     1       0.829   2.338 -23.280  0.00  0.00    +0.049 A 
ATOM      9  C   UNL     1       0.609   1.804 -22.159  0.00  0.00    +0.162 A 
ATOM     10  C   UNL     1      -0.584   1.810 -21.632  0.00  0.00    +0.163 A 
ATOM     11  C   UNL     1      -1.606   2.369 -22.240  0.00  0.00    +0.009 A 
ATOM     12  N   UNL     1      -4.574   2.946 -22.006  0.00  0.00    +0.236 N 
ATOM     13  H   UNL     1      -5.494   3.299 -22.266  0.00  0.00    +0.203 HD
ATOM     14  C   UNL     1      -5.732   3.364 -22.282  0.00  0.00    +0.190 C 
ATOM     15  C   UNL     1      -4.307   2.297 -20.885  0.00  0.00    +0.132 C 
ATOM     16  C   UNL     1      -3.062   1.922 -20.729  0.00  0.00    +0.064 C 
ATOM     17  C   UNL     1      -2.310   2.234 -21.665  0.00  0.00    +0.023 C 
ATOM     18  C   UNL     1      -0.910   2.218 -22.267  0.00  0.00    +0.095 C 
ATOM     19  C   UNL     1      -0.732   2.881 -23.616  0.00  0.00    +0.198 C 
ATOM     20  O   UNL     1      -1.033   3.838 -25.311  0.00  0.00    -0.289 OA
ENDROOT
BRANCH   1  22
ATOM     21  C   UNL     1      -2.465   3.387 -26.595  0.00  0.00    +0.277 C 
ATOM     22  O   UNL     1      -2.121   4.138 -25.394  0.00  0.00    -0.492 OA
ENDBRANCH   1  22
BRANCH  10  23
ATOM     23  O   UNL     1      -0.064   1.210 -20.720  0.00  0.00    -0.503 OA
ATOM     24  H   UNL     1      -0.550   0.563 -20.248  0.00  0.00    +0.292 HD
ENDBRANCH  10  23
BRANCH   9  25
ATOM     25  O   UNL     1       1.511   1.209 -21.429  0.00  0.00    -0.491 OA
ATOM     26  C   UNL     1       2.685   1.010 -21.767  0.00  0.00    +0.277 C 
ENDBRANCH   9  25
TORSDOF 3
ENDMDL
MODEL 5
REMARK VINA RESULT:   -10.237      1.888      4.590
REMARK INTER + INTRA:         -10.130
REMARK INTER:                 -11.205
REMARK INTRA:                   1.075
REMARK UNBOUND:                 1.005
REMARK  Name = ZINC000001280593
REMARK  6 active torsions:
REMARK  status: ('A' for Active; 'I' for Inactive)
REMARK    1  A    between atoms: C_1  and  O_2
REMARK    2  A    between atoms: O_2  and  C_3
REMARK    3  A    between atoms: C_11  and  O_12
REMARK    4  A    between atoms: O_12  and  C_13
REMARK    5  A    between atoms: C_14  and  O_15
REMARK    6  A    between atoms: N_20  and  C_21
REMARK                            x       y       z     vdW  Elec       q    Type
REMARK                         _______ _______ _______ _____ _____    ______ ____
ROOT
ATOM      1  C   UNL     1      -2.190   2.839 -22.158  0.00  0.00    +0.159 C 
ATOM      2  C   UNL     1      -1.297   2.576 -21.913  0.00  0.00    +0.032 C 
ATOM      3  C   UNL     1      -0.118   2.472 -22.853  0.00  0.00    +0.075 C 
ATOM      4  C   UNL     1       0.227   2.234 -22.055  0.00  0.00    +0.076 C 
ATOM      5  C   UNL     1      -0.637   2.365 -21.646  0.00  0.00    +0.090 C 
ATOM      6  C   UNL     1      -1.536   2.832 -22.941  0.00  0.00    -0.035 A 
ATOM      7  C   UNL     1      -3.066   3.274 -23.313  0.00  0.00    +0.008 A 
ATOM      8  C   UNL     1      -3.347   3.565 -24.466  0.00  0.00    +0.049 A 
ATOM      9  C   UNL     1      -2.453   3.520 -25.354  0.00  0.00    +0.162 A 
ATOM     10  C   UNL     1      -1.231   3.168 -25.063  0.00  0.00    +0.163 A 
ATOM     11  C   UNL     1      -0.878   2.846 -23.839  0.00  0.00    +0.009 A 
ATOM     12  N   UNL     1       1.457   1.950 -22.124  0.00  0.00    +0.236 N 
ATOM     13  H   UNL     1       1.963   1.666 -21.286  0.00  0.00    +0.203 HD
ATOM     14  C   UNL     1       2.128   1.593 -21.116  0.00  0.00    +0.190 C 
ATOM     15  C   UNL     1       1.994   2.052 -23.328  0.00  0.00    +0.132 C 
ATOM     16  C   UNL     1       1.180   2.433 -24.282  0.00  0.00    +0.064 C 
ATOM     17  C   UNL     1       0.016   2.643 -23.909  0.00  0.00    +0.023 C 
ATOM     18  C   UNL     1      -1.407   3.057 -24.267  0.00  0.00    +0.095 C 
ATOM     19  C   UNL     1      -2.420   3.085 -23.143  0.00  0.00    +0.198 C 
ATOM     20  O   UNL     1      -3.307   2.961 -21.388  0.00  0.00    -0.289 OA
ENDROOT
BRANCH   1  22
ATOM     21  C   UNL     1      -3.302   3.681 -19.918  0.00  0.00    +0.277 C 
ATOM     22  O   UNL     1      -2.561   2.629 -20.604  0.00  0.00    -0.492 OA
ENDBRANCH   1  22
BRANCH  10  23
ATOM     23  O   UNL     1      -1.018   3.343 -26.239  0.00  0.00    -0.503 OA
ATOM     24  H   UNL     1      -1.167   2.649 -26.850  0.00  0.00    +0.292 HD
ENDBRANCH  10  23
BRANCH   9  25
ATOM     25  O   UNL     1      -2.639   3.808 -26.612  0.00  0.00    -0.491 OA
ATOM     26  C   UNL     1      -3.658   3.541 -27.262  0.00  0.00    +0.277 C 
ENDBRANCH   9  25
TORSDOF 3
ENDMDL
MODEL 6
REMARK VINA RESULT:   -10.184      1.249      3.738
REMARK INTER + INTRA:         -10.072
REMARK INTER:                 -10.926
REMARK INTRA:                   0.854
REMARK UNBOUND:                 1.005
REMARK  Name = ZINC000001280593
REMARK  6 active torsions:
REMARK  status: ('A' for Active; 'I' for Inactive)
REMARK    1  A    between atoms: C_1  and  O_2
REMARK    2  A    between atoms: O_2  and  C_3
REMARK    3  A    between atoms: C_11  and  O_12
REMARK    4  A    between atoms: O_12  and  C_13
REMARK    5  A    between atoms: C_14  and  O_15
REMARK    6  A    between atoms: N_20  and  C_21
REMARK                            x       y       z     vdW  Elec       q    Type
REMARK                         _______ _______ _______ _____ _____    ______ ____
ROOT
ATOM      1  C   UNL     1      -1.094   3.776 -23.724  0.00  0.00    +0.159 C 
ATOM      2  C   UNL     1      -1.529   3.768 -22.865  0.00  0.00    +0.032 C 
ATOM      3  C   UNL     1      -3.013   3.607 -22.628  0.00  0.00    +0.075 C 
ATOM      4  C   UNL     1      -2.674   3.687 -21.796  0.00  0.00    +0.076 C 
ATOM      5  C   UNL     1      -1.788   3.772 -22.169  0.00  0.00    +0.090 C 
ATOM      6  C   UNL     1      -2.106   3.656 -23.778  0.00  0.00    -0.035 A 
ATOM      7  C   UNL     1      -1.327   3.676 -25.216  0.00  0.00    +0.008 A 
ATOM      8  C   UNL     1      -1.965   3.551 -26.251  0.00  0.00    +0.049 A 
ATOM      9  C   UNL     1      -3.217   3.407 -26.195  0.00  0.00    +0.162 A 
ATOM     10  C   UNL     1      -3.843   3.391 -25.051  0.00  0.00    +0.163 A 
ATOM     11  C   UNL     1      -3.203   3.521 -23.911  0.00  0.00    +0.009 A 
ATOM     12  N   UNL     1      -3.566   3.627 -20.902  0.00  0.00    +0.236 N 
ATOM     13  H   UNL     1      -3.309   3.705 -19.919  0.00  0.00    +0.203 HD
ATOM     14  C   UNL     1      -3.299   3.719 -19.672  0.00  0.00    +0.190 C 
ATOM     15  C   UNL     1      -4.801   3.461 -21.345  0.00  0.00    +0.132 C 
ATOM     16  C   UNL     1      -4.931   3.382 -22.646  0.00  0.00    +0.064 C 
ATOM     17  C   UNL     1      -3.865   3.475 -23.275  0.00  0.00    +0.023 C 
ATOM     18  C   UNL     1      -3.149   3.493 -24.621  0.00  0.00    +0.095 C 
ATOM     19  C   UNL     1      -1.646   3.669 -24.599  0.00  0.00    +0.198 C 
ATOM     20  O   UNL     1       0.224   3.915 -24.034  0.00  0.00    -0.289 OA
ENDROOT
BRANCH   1  22
ATOM     21  C   UNL     1       1.369   4.704 -23.544  0.00  0.00    +0.277 C 
ATOM     22  O   UNL     1       0.279   3.977 -22.905  0.00  0.00    -0.492 OA
ENDBRANCH   1  22
BRANCH  10  23
ATOM     23  O   UNL     1      -4.836   3.242 -25.723  0.00  0.00    -0.503 OA
ATOM     24  H   UNL     1      -4.849   2.597 -26.402  0.00  0.00    +0.292 HD
ENDBRANCH  10  23
BRANCH   9  25
ATOM     25  O   UNL     1      -3.996   3.266 -27.231  0.00  0.00    -0.491 OA
ATOM     26  C   UNL     1      -3.649   3.414 -28.410  0.00  0.00    +0.277 C 
ENDBRANCH   9  25
TORSDOF 3
ENDMDL
MODEL 7
REMARK VINA RESULT:   -10.050      2.784      5.836
REMARK INTER + INTRA:          -9.927
REMARK INTER:                 -10.776
REMARK INTRA:                   0.849
REMARK UNBOUND:                 1.005
REMARK  Name = ZINC000001280593
REMARK  6 active torsions:
REMARK  status: ('A' for Active; 'I' for Inactive)
REMARK    1  A    between atoms: C_1  and  O_2
REMARK    2  A    between atoms: O_2  and  C_3
REMARK    3  A    between atoms: C_11  and  O_12
REMARK    4  A    between atoms: O_12  and  C_13
REMARK    5  A    between atoms: C_14  and  O_15
REMARK    6  A    between atoms: N_20  and  C_21
REMARK                            x       y       z     vdW  Elec       q    Type
REMARK                         _______ _______ _______ _____ _____    ______ ____
ROOT
ATOM      1  C   UNL     1       2.559   4.627 -23.115  0.00  0.00    +0.159 C 
ATOM      2  C   UNL     1       3.134   3.893 -22.875  0.00  0.00    +0.032 C 
ATOM      3  C   UNL     1       2.730   2.437 -22.821  0.00  0.00    +0.075 C 
ATOM      4  C   UNL     1       3.600   2.424 -22.582  0.00  0.00    +0.076 C 
ATOM      5  C   UNL     1       3.638   3.384 -22.680  0.00  0.00    +0.090 C 
ATOM      6  C   UNL     1       2.094   3.719 -23.139  0.00  0.00    -0.035 A 
ATOM      7  C   UNL     1       1.153   4.995 -23.540  0.00  0.00    +0.008 A 
ATOM      8  C   UNL     1      -0.018   4.812 -23.838  0.00  0.00    +0.049 A 
ATOM      9  C   UNL     1      -0.484   3.641 -23.833  0.00  0.00    +0.162 A 
ATOM     10  C   UNL     1       0.262   2.620 -23.514  0.00  0.00    +0.163 A 
ATOM     11  C   UNL     1       1.526   2.763 -23.186  0.00  0.00    +0.009 A 
ATOM     12  N   UNL     1       4.018   1.257 -22.336  0.00  0.00    +0.236 N 
ATOM     13  H   UNL     1       4.987   1.110 -22.056  0.00  0.00    +0.203 HD
ATOM     14  C   UNL     1       5.207   1.022 -21.986  0.00  0.00    +0.190 C 
ATOM     15  C   UNL     1       3.120   0.295 -22.472  0.00  0.00    +0.132 C 
ATOM     16  C   UNL     1       1.925   0.683 -22.842  0.00  0.00    +0.064 C 
ATOM     17  C   UNL     1       1.811   1.907 -23.011  0.00  0.00    +0.023 C 
ATOM     18  C   UNL     1       0.925   3.089 -23.386  0.00  0.00    +0.095 C 
ATOM     19  C   UNL     1       1.563   4.462 -23.367  0.00  0.00    +0.198 C 
ATOM     20  O   UNL     1       2.830   5.959 -23.192  0.00  0.00    -0.289 OA
ENDROOT
BRANCH   1  22
ATOM     21  C   UNL     1       3.629   6.919 -22.362  0.00  0.00    +0.277 C 
ATOM     22  O   UNL     1       3.843   5.569 -22.871  0.00  0.00    -0.492 OA
ENDBRANCH   1  22
BRANCH  10  23
ATOM     23  O   UNL     1      -0.737   1.969 -23.712  0.00  0.00    -0.503 OA
ATOM     24  H   UNL     1      -1.525   2.168 -23.247  0.00  0.00    +0.292 HD
ENDBRANCH  10  23
BRANCH   9  25
ATOM     25  O   UNL     1      -1.714   3.329 -24.132  0.00  0.00    -0.491 OA
ATOM     26  C   UNL     1      -2.591   4.133 -24.475  0.00  0.00    +0.277 C 
ENDBRANCH   9  25
TORSDOF 3
ENDMDL
MODEL 8
REMARK VINA RESULT:   -10.029      1.949      4.048
REMARK INTER + INTRA:          -9.903
REMARK INTER:                 -10.780
REMARK INTRA:                   0.877
REMARK UNBOUND:                 1.005
REMARK  Name = ZINC000001280593
REMARK  6 active torsions:
REMARK  status: ('A' for Active; 'I' for Inactive)
REMARK    1  A    between atoms: C_1  and  O_2
REMARK    2  A    between atoms: O_2  and  C_3
REMARK    3  A    between atoms: C_11  and  O_12
REMARK    4  A    between atoms: O_12  and  C_13
REMARK    5  A    between atoms: C_14  and  O_15
REMARK    6  A    between atoms: N_20  and  C_21
REMARK                            x       y       z     vdW  Elec       q    Type
REMARK                         _______ _______ _______ _____ _____    ______ ____
ROOT
ATOM      1  C   UNL     1      -0.954   3.377 -24.260  0.00  0.00    +0.159 C 
ATOM      2  C   UNL     1      -1.452   3.397 -25.084  0.00  0.00    +0.032 C 
ATOM      3  C   UNL     1      -2.959   3.442 -25.203  0.00  0.00    +0.075 C 
ATOM      4  C   UNL     1      -2.680   3.440 -26.060  0.00  0.00    +0.076 C 
ATOM      5  C   UNL     1      -1.763   3.411 -25.759  0.00  0.00    +0.090 C 
ATOM      6  C   UNL     1      -1.965   3.405 -24.126  0.00  0.00    -0.035 A 
ATOM      7  C   UNL     1      -1.079   3.370 -22.752  0.00  0.00    +0.008 A 
ATOM      8  C   UNL     1      -1.644   3.378 -21.668  0.00  0.00    +0.049 A 
ATOM      9  C   UNL     1      -2.904   3.414 -21.625  0.00  0.00    +0.162 A 
ATOM     10  C   UNL     1      -3.615   3.443 -22.718  0.00  0.00    +0.163 A 
ATOM     11  C   UNL     1      -3.056   3.435 -23.907  0.00  0.00    +0.009 A 
ATOM     12  N   UNL     1      -3.639   3.473 -26.883  0.00  0.00    +0.236 N 
ATOM     13  H   UNL     1      -3.453   3.475 -27.885  0.00  0.00    +0.203 HD
ATOM     14  C   UNL     1      -3.461   3.477 -28.132  0.00  0.00    +0.190 C 
ATOM     15  C   UNL     1      -4.846   3.504 -26.343  0.00  0.00    +0.132 C 
ATOM     16  C   UNL     1      -4.881   3.496 -25.033  0.00  0.00    +0.064 C 
ATOM     17  C   UNL     1      -3.767   3.460 -24.489  0.00  0.00    +0.023 C 
ATOM     18  C   UNL     1      -2.950   3.427 -23.202  0.00  0.00    +0.095 C 
ATOM     19  C   UNL     1      -1.444   3.385 -23.343  0.00  0.00    +0.198 C 
ATOM     20  O   UNL     1       0.391   3.337 -24.056  0.00  0.00    -0.289 OA
ENDROOT
BRANCH   1  22
ATOM     21  C   UNL     1       1.564   2.703 -24.666  0.00  0.00    +0.277 C 
ATOM     22  O   UNL     1       0.364   3.346 -25.187  0.00  0.00    -0.492 OA
ENDBRANCH   1  22
BRANCH  10  23
ATOM     23  O   UNL     1      -4.563   3.465 -21.969  0.00  0.00    -0.503 OA
ATOM     24  H   UNL     1      -5.302   4.006 -22.165  0.00  0.00    +0.292 HD
ENDBRANCH  10  23
BRANCH   9  25
ATOM     25  O   UNL     1      -3.609   3.427 -20.529  0.00  0.00    -0.491 OA
ATOM     26  C   UNL     1      -3.184   3.740 -19.410  0.00  0.00    +0.277 C 
ENDBRANCH   9  25
TORSDOF 3
ENDMDL
MODEL 9
REMARK VINA RESULT:    -9.676      1.997      5.259
REMARK INTER + INTRA:          -9.520
REMARK INTER:                 -10.525
REMARK INTRA:                   1.005
REMARK UNBOUND:                 1.005
REMARK  Name = ZINC000001280593
REMARK  6 active torsions:
REMARK  status: ('A' for Active; 'I' for Inactive)
REMARK    1  A    between atoms: C_1  and  O_2
REMARK    2  A    between atoms: O_2  and  C_3
REMARK    3  A    between atoms: C_11  and  O_12
REMARK    4  A    between atoms: O_12  and  C_13
REMARK    5  A    between atoms: C_14  and  O_15
REMARK    6  A    between atoms: N_20  and  C_21
REMARK                            x       y       z     vdW  Elec       q    Type
REMARK                         _______ _______ _______ _____ _____    ______ ____
ROOT
ATOM      1  C   UNL     1      -0.409   1.842 -21.916  0.00  0.00    +0.159 C 
ATOM      2  C   UNL     1       0.174   2.032 -22.659  0.00  0.00    +0.032 C 
ATOM      3  C   UNL     1      -0.208   2.791 -23.909  0.00  0.00    +0.075 C 
ATOM      4  C   UNL     1       0.658   2.582 -24.046  0.00  0.00    +0.076 C 
ATOM      5  C   UNL     1       0.683   2.138 -23.189  0.00  0.00    +0.090 C 
ATOM      6  C   UNL     1      -0.859   2.369 -22.666  0.00  0.00    -0.035 A 
ATOM      7  C   UNL     1      -1.814   2.024 -21.383  0.00  0.00    +0.008 A 
ATOM      8  C   UNL     1      -2.978   2.397 -21.379  0.00  0.00    +0.049 A 
ATOM      9  C   UNL     1      -3.427   3.042 -22.365  0.00  0.00    +0.162 A 
ATOM     10  C   UNL     1      -2.669   3.320 -23.390  0.00  0.00    +0.163 A 
ATOM     11  C   UNL     1      -1.412   2.942 -23.443  0.00  0.00    +0.009 A 
ATOM     12  N   UNL     1       1.090   3.006 -25.156  0.00  0.00    +0.236 N 
ATOM     13  H   UNL     1       2.057   2.833 -25.427  0.00  0.00    +0.203 HD
ATOM     14  C   UNL     1       2.278   2.818 -25.537  0.00  0.00    +0.190 C 
ATOM     15  C   UNL     1       0.209   3.664 -25.891  0.00  0.00    +0.132 C 
ATOM     16  C   UNL     1      -0.987   3.784 -25.370  0.00  0.00    +0.064 C 
ATOM     17  C   UNL     1      -1.116   3.259 -24.254  0.00  0.00    +0.023 C 
ATOM     18  C   UNL     1      -2.015   2.943 -23.063  0.00  0.00    +0.095 C 
ATOM     19  C   UNL     1      -1.398   2.164 -21.922  0.00  0.00    +0.198 C 
ATOM     20  O   UNL     1      -0.157   1.172 -20.758  0.00  0.00    -0.289 OA
ENDROOT
BRANCH   1  22
ATOM     21  C   UNL     1       1.282   1.503 -19.919  0.00  0.00    +0.277 C 
ATOM     22  O   UNL     1       0.858   1.098 -21.254  0.00  0.00    -0.492 OA
ENDBRANCH   1  22
BRANCH  10  23
ATOM     23  O   UNL     1      -3.655   3.862 -23.831  0.00  0.00    -0.503 OA
ATOM     24  H   UNL     1      -3.569   4.542 -24.470  0.00  0.00    +0.292 HD
ENDBRANCH  10  23
BRANCH   9  25
ATOM     25  O   UNL     1      -4.647   3.488 -22.468  0.00  0.00    -0.491 OA
ATOM     26  C   UNL     1      -5.607   3.106 -21.785  0.00  0.00    +0.277 C 
ENDBRANCH   9  25
TORSDOF 3
ENDMDL
