MODEL 1
REMARK VINA RESULT:   -10.027      0.000      0.000
REMARK INTER + INTRA:         -10.027
REMARK INTER:                 -10.027
REMARK INTRA:                   0.000
REMARK UNBOUND:                 0.000
REMARK  Name = ZINC000004104821
REMARK  3 active torsions:
REMARK  status: ('A' for Active; 'I' for Inactive)
REMARK    1  A    between atoms: C_1  and  C_2
REMARK    2  A    between atoms: C_10  and  C_11
REMARK    3  A    between atoms: C_16  and  C_17
REMARK                            x       y       z     vdW  Elec       q    Type
REMARK                         _______ _______ _______ _____ _____    ______ ____
ROOT
ATOM      1  C   UNL     1      -0.696   2.013 -21.260  0.00  0.00    +0.019 C 
ATOM      2  C   UNL     1      -0.498   2.311 -22.509  0.00  0.00    +0.101 C 
ATOM      3  C   UNL     1       0.632   2.223 -23.147  0.00  0.00    +0.311 C 
ATOM      4  O   UNL     1       0.433   2.607 -24.372  0.00  0.00    -0.458 OA
ATOM      5  C   UNL     1      -0.819   2.933 -24.493  0.00  0.00    +0.212 C 
ATOM      6  C   UNL     1      -1.511   3.372 -25.502  0.00  0.00    +0.191 C 
ATOM      7  O   UNL     1      -2.202   3.812 -26.512  0.00  0.00    -0.361 OA
ATOM      8  C   UNL     1      -2.777   3.629 -25.361  0.00  0.00    +0.097 C 
ATOM      9  C   UNL     1      -3.908   4.031 -25.861  0.00  0.00    +0.044 C 
ATOM     10  C   UNL     1      -3.352   3.446 -24.209  0.00  0.00    +0.040 C 
ATOM     11  C   UNL     1      -4.619   3.704 -24.068  0.00  0.00    +0.037 C 
ATOM     12  C   UNL     1      -5.194   3.521 -22.916  0.00  0.00    +0.151 C 
ATOM     13  O   UNL     1      -5.769   3.338 -21.765  0.00  0.00    -0.365 OA
ATOM     14  C   UNL     1      -4.503   3.081 -21.907  0.00  0.00    +0.093 C 
ATOM     15  C   UNL     1      -4.436   2.722 -20.659  0.00  0.00    +0.044 C 
ATOM     16  C   UNL     1      -3.237   2.824 -22.048  0.00  0.00    +0.038 C 
ATOM     17  C   UNL     1      -2.662   3.007 -23.200  0.00  0.00    +0.011 C 
ATOM     18  O   UNL     1       1.762   1.820 -22.646  0.00  0.00    -0.251 OA
ATOM     19  C   UNL     1      -1.395   2.750 -23.342  0.00  0.00    +0.046 C 
ENDROOT
TORSDOF 0
ENDMDL
MODEL 2
REMARK VINA RESULT:    -9.601      1.261      3.427
REMARK INTER + INTRA:          -9.601
REMARK INTER:                  -9.601
REMARK INTRA:                   0.000
REMARK UNBOUND:                 0.000
REMARK  Name = ZINC000004104821
REMARK  3 active torsions:
REMARK  status: ('A' for Active; 'I' for Inactive)
REMARK    1  A    between atoms: C_1  and  C_2
REMARK    2  A    between atoms: C_10  and  C_11
REMARK    3  A    between atoms: C_16  and  C_17
REMARK                            x       y       z     vdW  Elec       q    Type
REMARK                         _______ _______ _______ _____ _____    ______ ____
ROOT
ATOM      1  C   UNL     1       0.096   2.636 -24.394  0.00  0.00    +0.019 C 
ATOM      2  C   UNL     1      -0.427   2.527 -23.210  0.00  0.00    +0.101 C 
ATOM      3  C   UNL     1       0.199   2.173 -22.127  0.00  0.00    +0.311 C 
ATOM      4  O   UNL     1      -0.655   2.180 -21.148  0.00  0.00    -0.458 OA
ATOM      5  C   UNL     1      -1.810   2.538 -21.625  0.00  0.00    +0.212 C 
ATOM      6  C   UNL     1      -2.972   2.697 -21.064  0.00  0.00    +0.191 C 
ATOM      7  O   UNL     1      -4.135   2.856 -20.503  0.00  0.00    -0.361 OA
ATOM      8  C   UNL     1      -3.993   3.070 -21.778  0.00  0.00    +0.097 C 
ATOM      9  C   UNL     1      -5.253   3.377 -21.866  0.00  0.00    +0.044 C 
ATOM     10  C   UNL     1      -3.852   3.284 -23.052  0.00  0.00    +0.040 C 
ATOM     11  C   UNL     1      -4.873   3.657 -23.765  0.00  0.00    +0.037 C 
ATOM     12  C   UNL     1      -4.732   3.871 -25.040  0.00  0.00    +0.151 C 
ATOM     13  O   UNL     1      -4.590   4.085 -26.314  0.00  0.00    -0.365 OA
ATOM     14  C   UNL     1      -3.570   3.713 -25.601  0.00  0.00    +0.093 C 
ATOM     15  C   UNL     1      -2.817   3.745 -26.661  0.00  0.00    +0.044 C 
ATOM     16  C   UNL     1      -2.549   3.340 -24.888  0.00  0.00    +0.038 C 
ATOM     17  C   UNL     1      -2.690   3.126 -23.613  0.00  0.00    +0.011 C 
ATOM     18  O   UNL     1       1.459   1.866 -22.038  0.00  0.00    -0.251 OA
ATOM     19  C   UNL     1      -1.670   2.753 -22.900  0.00  0.00    +0.046 C 
ENDROOT
TORSDOF 0
ENDMDL
MODEL 3
REMARK VINA RESULT:    -9.213      1.147      4.574
REMARK INTER + INTRA:          -9.213
REMARK INTER:                  -9.213
REMARK INTRA:                   0.000
REMARK UNBOUND:                 0.000
REMARK  Name = ZINC000004104821
REMARK  3 active torsions:
REMARK  status: ('A' for Active; 'I' for Inactive)
REMARK    1  A    between atoms: C_1  and  C_2
REMARK    2  A    between atoms: C_10  and  C_11
REMARK    3  A    between atoms: C_16  and  C_17
REMARK                            x       y       z     vdW  Elec       q    Type
REMARK                         _______ _______ _______ _____ _____    ______ ____
ROOT
ATOM      1  C   UNL     1      -1.583   3.502 -25.933  0.00  0.00    +0.019 C 
ATOM      2  C   UNL     1      -2.798   3.690 -25.511  0.00  0.00    +0.101 C 
ATOM      3  C   UNL     1      -3.795   4.129 -26.221  0.00  0.00    +0.311 C 
ATOM      4  O   UNL     1      -4.842   4.182 -25.454  0.00  0.00    -0.458 OA
ATOM      5  C   UNL     1      -4.494   3.776 -24.269  0.00  0.00    +0.212 C 
ATOM      6  C   UNL     1      -5.164   3.644 -23.163  0.00  0.00    +0.191 C 
ATOM      7  O   UNL     1      -5.834   3.512 -22.056  0.00  0.00    -0.361 OA
ATOM      8  C   UNL     1      -4.570   3.207 -22.092  0.00  0.00    +0.097 C 
ATOM      9  C   UNL     1      -4.614   2.879 -20.834  0.00  0.00    +0.044 C 
ATOM     10  C   UNL     1      -3.307   2.903 -22.127  0.00  0.00    +0.040 C 
ATOM     11  C   UNL     1      -2.714   2.467 -21.055  0.00  0.00    +0.037 C 
ATOM     12  C   UNL     1      -1.450   2.163 -21.091  0.00  0.00    +0.151 C 
ATOM     13  O   UNL     1      -0.187   1.858 -21.126  0.00  0.00    -0.365 OA
ATOM     14  C   UNL     1      -0.780   2.295 -22.197  0.00  0.00    +0.093 C 
ATOM     15  C   UNL     1       0.336   2.195 -22.856  0.00  0.00    +0.044 C 
ATOM     16  C   UNL     1      -1.374   2.731 -23.268  0.00  0.00    +0.038 C 
ATOM     17  C   UNL     1      -2.637   3.035 -23.233  0.00  0.00    +0.011 C 
ATOM     18  O   UNL     1      -3.751   4.457 -27.478  0.00  0.00    -0.251 OA
ATOM     19  C   UNL     1      -3.230   3.471 -24.304  0.00  0.00    +0.046 C 
ENDROOT
TORSDOF 0
ENDMDL
MODEL 4
REMARK VINA RESULT:    -8.791      2.039      3.044
REMARK INTER + INTRA:          -8.791
REMARK INTER:                  -8.791
REMARK INTRA:                   0.000
REMARK UNBOUND:                 0.000
REMARK  Name = ZINC000004104821
REMARK  3 active torsions:
REMARK  status: ('A' for Active; 'I' for Inactive)
REMARK    1  A    between atoms: C_1  and  C_2
REMARK    2  A    between atoms: C_10  and  C_11
REMARK    3  A    between atoms: C_16  and  C_17
REMARK                            x       y       z     vdW  Elec       q    Type
REMARK                         _______ _______ _______ _____ _____    ______ ____
ROOT
ATOM      1  C   UNL     1       0.780   1.435 -20.402  0.00  0.00    +0.019 C 
ATOM      2  C   UNL     1       1.469   1.513 -21.501  0.00  0.00    +0.101 C 
ATOM      3  C   UNL     1       2.654   1.016 -21.697  0.00  0.00    +0.311 C 
ATOM      4  O   UNL     1       3.011   1.298 -22.915  0.00  0.00    -0.458 OA
ATOM      5  C   UNL     1       2.047   1.970 -23.471  0.00  0.00    +0.212 C 
ATOM      6  C   UNL     1       1.914   2.477 -24.661  0.00  0.00    +0.191 C 
ATOM      7  O   UNL     1       1.781   2.985 -25.850  0.00  0.00    -0.361 OA
ATOM      8  C   UNL     1       0.827   3.118 -24.976  0.00  0.00    +0.097 C 
ATOM      9  C   UNL     1       0.123   3.780 -25.845  0.00  0.00    +0.044 C 
ATOM     10  C   UNL     1      -0.126   3.250 -24.102  0.00  0.00    +0.040 C 
ATOM     11  C   UNL     1      -1.213   3.891 -24.419  0.00  0.00    +0.037 C 
ATOM     12  C   UNL     1      -2.166   4.024 -23.545  0.00  0.00    +0.151 C 
ATOM     13  O   UNL     1      -3.119   4.156 -22.671  0.00  0.00    -0.365 OA
ATOM     14  C   UNL     1      -2.033   3.516 -22.355  0.00  0.00    +0.093 C 
ATOM     15  C   UNL     1      -2.506   3.300 -21.164  0.00  0.00    +0.044 C 
ATOM     16  C   UNL     1      -0.946   2.876 -22.039  0.00  0.00    +0.038 C 
ATOM     17  C   UNL     1       0.007   2.743 -22.913  0.00  0.00    +0.011 C 
ATOM     18  O   UNL     1       3.358   0.353 -20.829  0.00  0.00    -0.251 OA
ATOM     19  C   UNL     1       1.093   2.103 -22.598  0.00  0.00    +0.046 C 
ENDROOT
TORSDOF 0
ENDMDL
MODEL 5
REMARK VINA RESULT:    -8.734      1.644      5.543
REMARK INTER + INTRA:          -8.734
REMARK INTER:                  -8.734
REMARK INTRA:                   0.000
REMARK UNBOUND:                 0.000
REMARK  Name = ZINC000004104821
REMARK  3 active torsions:
REMARK  status: ('A' for Active; 'I' for Inactive)
REMARK    1  A    between atoms: C_1  and  C_2
REMARK    2  A    between atoms: C_10  and  C_11
REMARK    3  A    between atoms: C_16  and  C_17
REMARK                            x       y       z     vdW  Elec       q    Type
REMARK                         _______ _______ _______ _____ _____    ______ ____
ROOT
ATOM      1  C   UNL     1      -3.021   3.946 -24.103  0.00  0.00    +0.019 C 
ATOM      2  C   UNL     1      -2.721   3.333 -22.998  0.00  0.00    +0.101 C 
ATOM      3  C   UNL     1      -3.527   3.112 -22.002  0.00  0.00    +0.311 C 
ATOM      4  O   UNL     1      -2.866   2.475 -21.083  0.00  0.00    -0.458 OA
ATOM      5  C   UNL     1      -1.650   2.302 -21.509  0.00  0.00    +0.212 C 
ATOM      6  C   UNL     1      -0.613   1.730 -20.973  0.00  0.00    +0.191 C 
ATOM      7  O   UNL     1       0.425   1.159 -20.436  0.00  0.00    -0.361 OA
ATOM      8  C   UNL     1       0.514   1.689 -21.620  0.00  0.00    +0.097 C 
ATOM      9  C   UNL     1       1.763   1.335 -21.684  0.00  0.00    +0.044 C 
ATOM     10  C   UNL     1       0.603   2.219 -22.803  0.00  0.00    +0.040 C 
ATOM     11  C   UNL     1       1.731   2.177 -23.451  0.00  0.00    +0.037 C 
ATOM     12  C   UNL     1       1.820   2.707 -24.634  0.00  0.00    +0.151 C 
ATOM     13  O   UNL     1       1.909   3.237 -25.818  0.00  0.00    -0.365 OA
ATOM     14  C   UNL     1       0.782   3.279 -25.171  0.00  0.00    +0.093 C 
ATOM     15  C   UNL     1       0.236   3.915 -26.164  0.00  0.00    +0.044 C 
ATOM     16  C   UNL     1      -0.344   3.320 -24.524  0.00  0.00    +0.038 C 
ATOM     17  C   UNL     1      -0.433   2.790 -23.340  0.00  0.00    +0.011 C 
ATOM     18  O   UNL     1      -4.777   3.466 -21.938  0.00  0.00    -0.251 OA
ATOM     19  C   UNL     1      -1.560   2.832 -22.693  0.00  0.00    +0.046 C 
ENDROOT
TORSDOF 0
ENDMDL
MODEL 6
REMARK VINA RESULT:    -8.614      1.310      3.286
REMARK INTER + INTRA:          -8.614
REMARK INTER:                  -8.614
REMARK INTRA:                   0.000
REMARK UNBOUND:                 0.000
REMARK  Name = ZINC000004104821
REMARK  3 active torsions:
REMARK  status: ('A' for Active; 'I' for Inactive)
REMARK    1  A    between atoms: C_1  and  C_2
REMARK    2  A    between atoms: C_10  and  C_11
REMARK    3  A    between atoms: C_16  and  C_17
REMARK                            x       y       z     vdW  Elec       q    Type
REMARK                         _______ _______ _______ _____ _____    ______ ____
ROOT
ATOM      1  C   UNL     1      -1.114   3.688 -26.200  0.00  0.00    +0.019 C 
ATOM      2  C   UNL     1      -0.546   3.308 -25.095  0.00  0.00    +0.101 C 
ATOM      3  C   UNL     1       0.717   3.043 -24.936  0.00  0.00    +0.311 C 
ATOM      4  O   UNL     1       0.902   2.698 -23.697  0.00  0.00    -0.458 OA
ATOM      5  C   UNL     1      -0.246   2.748 -23.090  0.00  0.00    +0.212 C 
ATOM      6  C   UNL     1      -0.592   2.499 -21.861  0.00  0.00    +0.191 C 
ATOM      7  O   UNL     1      -0.938   2.250 -20.633  0.00  0.00    -0.361 OA
ATOM      8  C   UNL     1      -1.833   2.627 -21.497  0.00  0.00    +0.097 C 
ATOM      9  C   UNL     1      -2.750   2.558 -20.578  0.00  0.00    +0.044 C 
ATOM     10  C   UNL     1      -2.728   3.005 -22.361  0.00  0.00    +0.040 C 
ATOM     11  C   UNL     1      -3.970   3.133 -21.996  0.00  0.00    +0.037 C 
ATOM     12  C   UNL     1      -4.865   3.510 -22.860  0.00  0.00    +0.151 C 
ATOM     13  O   UNL     1      -5.760   3.887 -23.724  0.00  0.00    -0.365 OA
ATOM     14  C   UNL     1      -4.519   3.759 -24.089  0.00  0.00    +0.093 C 
ATOM     15  C   UNL     1      -4.836   4.120 -25.296  0.00  0.00    +0.044 C 
ATOM     16  C   UNL     1      -3.278   3.631 -24.453  0.00  0.00    +0.038 C 
ATOM     17  C   UNL     1      -2.383   3.253 -23.589  0.00  0.00    +0.011 C 
ATOM     18  O   UNL     1       1.634   3.113 -25.855  0.00  0.00    -0.251 OA
ATOM     19  C   UNL     1      -1.142   3.125 -23.953  0.00  0.00    +0.046 C 
ENDROOT
TORSDOF 0
ENDMDL
MODEL 7
REMARK VINA RESULT:    -8.256      2.965      5.394
REMARK INTER + INTRA:          -8.256
REMARK INTER:                  -8.256
REMARK INTRA:                   0.000
REMARK UNBOUND:                 0.000
REMARK  Name = ZINC000004104821
REMARK  3 active torsions:
REMARK  status: ('A' for Active; 'I' for Inactive)
REMARK    1  A    between atoms: C_1  and  C_2
REMARK    2  A    between atoms: C_10  and  C_11
REMARK    3  A    between atoms: C_16  and  C_17
REMARK                            x       y       z     vdW  Elec       q    Type
REMARK                         _______ _______ _______ _____ _____    ______ ____
ROOT
ATOM      1  C   UNL     1       4.360   3.328 -23.866  0.00  0.00    +0.019 C 
ATOM      2  C   UNL     1       3.960   2.735 -22.781  0.00  0.00    +0.101 C 
ATOM      3  C   UNL     1       4.722   2.302 -21.821  0.00  0.00    +0.311 C 
ATOM      4  O   UNL     1       3.961   1.769 -20.913  0.00  0.00    -0.458 OA
ATOM      5  C   UNL     1       2.728   1.873 -21.311  0.00  0.00    +0.212 C 
ATOM      6  C   UNL     1       1.605   1.501 -20.771  0.00  0.00    +0.191 C 
ATOM      7  O   UNL     1       0.482   1.129 -20.231  0.00  0.00    -0.361 OA
ATOM      8  C   UNL     1       0.482   1.725 -21.386  0.00  0.00    +0.097 C 
ATOM      9  C   UNL     1      -0.815   1.640 -21.430  0.00  0.00    +0.044 C 
ATOM     10  C   UNL     1       0.482   2.322 -22.541  0.00  0.00    +0.040 C 
ATOM     11  C   UNL     1      -0.642   2.546 -23.157  0.00  0.00    +0.037 C 
ATOM     12  C   UNL     1      -0.642   3.143 -24.312  0.00  0.00    +0.151 C 
ATOM     13  O   UNL     1      -0.642   3.740 -25.467  0.00  0.00    -0.365 OA
ATOM     14  C   UNL     1       0.481   3.515 -24.852  0.00  0.00    +0.093 C 
ATOM     15  C   UNL     1       1.129   4.074 -25.830  0.00  0.00    +0.044 C 
ATOM     16  C   UNL     1       1.604   3.291 -24.236  0.00  0.00    +0.038 C 
ATOM     17  C   UNL     1       1.604   2.694 -23.081  0.00  0.00    +0.011 C 
ATOM     18  O   UNL     1       6.019   2.387 -21.777  0.00  0.00    -0.251 OA
ATOM     19  C   UNL     1       2.727   2.469 -22.466  0.00  0.00    +0.046 C 
ENDROOT
TORSDOF 0
ENDMDL
MODEL 8
REMARK VINA RESULT:    -8.199      1.562      5.379
REMARK INTER + INTRA:          -8.199
REMARK INTER:                  -8.199
REMARK INTRA:                   0.000
REMARK UNBOUND:                 0.000
REMARK  Name = ZINC000004104821
REMARK  3 active torsions:
REMARK  status: ('A' for Active; 'I' for Inactive)
REMARK    1  A    between atoms: C_1  and  C_2
REMARK    2  A    between atoms: C_10  and  C_11
REMARK    3  A    between atoms: C_16  and  C_17
REMARK                            x       y       z     vdW  Elec       q    Type
REMARK                         _______ _______ _______ _____ _____    ______ ____
ROOT
ATOM      1  C   UNL     1      -2.432   3.774 -26.395  0.00  0.00    +0.019 C 
ATOM      2  C   UNL     1      -2.997   3.568 -25.242  0.00  0.00    +0.101 C 
ATOM      3  C   UNL     1      -4.261   3.711 -24.974  0.00  0.00    +0.311 C 
ATOM      4  O   UNL     1      -4.442   3.415 -23.722  0.00  0.00    -0.458 OA
ATOM      5  C   UNL     1      -3.290   3.089 -23.216  0.00  0.00    +0.212 C 
ATOM      6  C   UNL     1      -2.939   2.718 -22.020  0.00  0.00    +0.191 C 
ATOM      7  O   UNL     1      -2.588   2.347 -20.824  0.00  0.00    -0.361 OA
ATOM      8  C   UNL     1      -1.695   2.442 -21.764  0.00  0.00    +0.097 C 
ATOM      9  C   UNL     1      -0.774   2.068 -20.926  0.00  0.00    +0.044 C 
ATOM     10  C   UNL     1      -0.802   2.536 -22.704  0.00  0.00    +0.040 C 
ATOM     11  C   UNL     1       0.443   2.260 -22.447  0.00  0.00    +0.037 C 
ATOM     12  C   UNL     1       1.336   2.355 -23.387  0.00  0.00    +0.151 C 
ATOM     13  O   UNL     1       2.229   2.449 -24.327  0.00  0.00    -0.365 OA
ATOM     14  C   UNL     1       0.985   2.726 -24.583  0.00  0.00    +0.093 C 
ATOM     15  C   UNL     1       1.298   2.994 -25.816  0.00  0.00    +0.044 C 
ATOM     16  C   UNL     1      -0.259   3.002 -24.839  0.00  0.00    +0.038 C 
ATOM     17  C   UNL     1      -1.152   2.907 -23.899  0.00  0.00    +0.011 C 
ATOM     18  O   UNL     1      -5.182   4.085 -25.812  0.00  0.00    -0.251 OA
ATOM     19  C   UNL     1      -2.396   3.183 -24.155  0.00  0.00    +0.046 C 
ENDROOT
TORSDOF 0
ENDMDL
MODEL 9
REMARK VINA RESULT:    -7.977      2.932      6.447
REMARK INTER + INTRA:          -7.977
REMARK INTER:                  -7.977
REMARK INTRA:                   0.000
REMARK UNBOUND:                 0.000
REMARK  Name = ZINC000004104821
REMARK  3 active torsions:
REMARK  status: ('A' for Active; 'I' for Inactive)
REMARK    1  A    between atoms: C_1  and  C_2
REMARK    2  A    between atoms: C_10  and  C_11
REMARK    3  A    between atoms: C_16  and  C_17
REMARK                            x       y       z     vdW  Elec       q    Type
REMARK                         _______ _______ _______ _____ _____    ______ ____
ROOT
ATOM      1  C   UNL     1      -0.484   4.829 -22.897  0.00  0.00    +0.019 C 
ATOM      2  C   UNL     1      -0.317   3.540 -22.864  0.00  0.00    +0.101 C 
ATOM      3  C   UNL     1      -1.261   2.647 -22.846  0.00  0.00    +0.311 C 
ATOM      4  O   UNL     1      -0.704   1.474 -22.814  0.00  0.00    -0.458 OA
ATOM      5  C   UNL     1       0.585   1.641 -22.813  0.00  0.00    +0.212 C 
ATOM      6  C   UNL     1       1.572   0.795 -22.787  0.00  0.00    +0.191 C 
ATOM      7  O   UNL     1       2.560  -0.051 -22.762  0.00  0.00    -0.361 OA
ATOM      8  C   UNL     1       2.799   1.226 -22.793  0.00  0.00    +0.097 C 
ATOM      9  C   UNL     1       4.077   0.988 -22.781  0.00  0.00    +0.044 C 
ATOM     10  C   UNL     1       3.038   2.504 -22.824  0.00  0.00    +0.040 C 
ATOM     11  C   UNL     1       4.265   2.935 -22.829  0.00  0.00    +0.037 C 
ATOM     12  C   UNL     1       4.504   4.213 -22.860  0.00  0.00    +0.151 C 
ATOM     13  O   UNL     1       4.743   5.490 -22.891  0.00  0.00    -0.365 OA
ATOM     14  C   UNL     1       3.516   5.059 -22.885  0.00  0.00    +0.093 C 
ATOM     15  C   UNL     1       3.085   6.284 -22.918  0.00  0.00    +0.044 C 
ATOM     16  C   UNL     1       2.290   4.627 -22.880  0.00  0.00    +0.038 C 
ATOM     17  C   UNL     1       2.051   3.350 -22.849  0.00  0.00    +0.011 C 
ATOM     18  O   UNL     1      -2.539   2.886 -22.858  0.00  0.00    -0.251 OA
ATOM     19  C   UNL     1       0.825   2.918 -22.844  0.00  0.00    +0.046 C 
ENDROOT
TORSDOF 0
ENDMDL
