MODEL 1
REMARK VINA RESULT:   -10.403      0.000      0.000
REMARK INTER + INTRA:         -11.735
REMARK INTER:                 -11.632
REMARK INTRA:                  -0.103
REMARK UNBOUND:                -0.115
REMARK  Name = ZINC000096316331
REMARK  4 active torsions:
REMARK  status: ('A' for Active; 'I' for Inactive)
REMARK    1  A    between atoms: C_1  and  O_2
REMARK    2  A    between atoms: O_2  and  C_3
REMARK    3  A    between atoms: C_8  and  O_9
REMARK    4  A    between atoms: N_18  and  C_19
REMARK                            x       y       z     vdW  Elec       q    Type
REMARK                         _______ _______ _______ _____ _____    ______ ____
ROOT
ATOM      1  C   UNL     1       0.945   2.179 -23.380  0.00  0.00    +0.162 A 
ATOM      2  C   UNL     1       0.900   1.791 -22.124  0.00  0.00    +0.050 A 
ATOM      3  C   UNL     1      -0.243   1.851 -21.424  0.00  0.00    +0.008 A 
ATOM      4  C   UNL     1      -1.467   2.347 -22.037  0.00  0.00    -0.034 A 
ATOM      5  C   UNL     1      -1.341   2.673 -23.159  0.00  0.00    +0.012 A 
ATOM      6  C   UNL     1      -2.118   3.072 -23.815  0.00  0.00    +0.034 C 
ATOM      7  C   UNL     1      -0.781   2.700 -23.681  0.00  0.00    +0.043 C 
ATOM      8  C   UNL     1      -0.266   2.180 -22.444  0.00  0.00    -0.026 C 
ATOM      9  C   UNL     1      -1.059   2.015 -21.305  0.00  0.00    -0.004 C 
ATOM     10  C   UNL     1      -2.042   2.283 -21.387  0.00  0.00    +0.005 C 
ATOM     11  C   UNL     1      -2.926   3.540 -24.662  0.00  0.00    +0.067 C 
ATOM     12  C   UNL     1      -4.171   3.701 -24.202  0.00  0.00    +0.133 C 
ATOM     13  N   UNL     1      -4.396   3.345 -22.906  0.00  0.00    +0.239 N 
ATOM     14  H   UNL     1      -4.796   3.153 -21.988  0.00  0.00    +0.204 HD
ATOM     15  C   UNL     1      -5.562   3.484 -22.436  0.00  0.00    +0.191 C 
ATOM     16  C   UNL     1      -3.361   2.885 -22.260  0.00  0.00    +0.096 C 
ATOM     17  C   UNL     1      -2.610   2.858 -22.758  0.00  0.00    -0.011 C 
ATOM     18  C   UNL     1      -2.906   2.535 -21.509  0.00  0.00    +0.094 C 
ATOM     19  C   UNL     1      -0.095   2.610 -23.931  0.00  0.00    +0.163 A 
ENDROOT
BRANCH   1  21
ATOM     20  C   UNL     1       2.987   1.533 -24.759  0.00  0.00    +0.277 C 
ATOM     21  O   UNL     1       1.975   2.254 -24.417  0.00  0.00    -0.491 OA
ENDBRANCH   1  21
BRANCH  19  22
ATOM     22  O   UNL     1       0.700   2.775 -25.068  0.00  0.00    -0.503 OA
ATOM     23  H   UNL     1       1.013   3.626 -25.301  0.00  0.00    +0.292 HD
ENDBRANCH  19  22
TORSDOF 2
ENDMDL
MODEL 2
REMARK VINA RESULT:   -10.147      2.521      5.192
REMARK INTER + INTRA:         -11.448
REMARK INTER:                 -11.343
REMARK INTRA:                  -0.105
REMARK UNBOUND:                -0.115
REMARK  Name = ZINC000096316331
REMARK  4 active torsions:
REMARK  status: ('A' for Active; 'I' for Inactive)
REMARK    1  A    between atoms: C_1  and  O_2
REMARK    2  A    between atoms: O_2  and  C_3
REMARK    3  A    between atoms: C_8  and  O_9
REMARK    4  A    between atoms: N_18  and  C_19
REMARK                            x       y       z     vdW  Elec       q    Type
REMARK                         _______ _______ _______ _____ _____    ______ ____
ROOT
ATOM      1  C   UNL     1      -4.880   3.682 -23.273  0.00  0.00    +0.162 A 
ATOM      2  C   UNL     1      -4.855   4.132 -24.510  0.00  0.00    +0.050 A 
ATOM      3  C   UNL     1      -3.722   4.116 -25.227  0.00  0.00    +0.008 A 
ATOM      4  C   UNL     1      -2.486   3.599 -24.657  0.00  0.00    -0.034 A 
ATOM      5  C   UNL     1      -2.594   3.217 -23.551  0.00  0.00    +0.012 A 
ATOM      6  C   UNL     1      -1.806   2.791 -22.926  0.00  0.00    +0.034 C 
ATOM      7  C   UNL     1      -3.147   3.159 -23.023  0.00  0.00    +0.043 C 
ATOM      8  C   UNL     1      -3.683   3.737 -24.226  0.00  0.00    -0.026 C 
ATOM      9  C   UNL     1      -2.907   3.965 -25.365  0.00  0.00    -0.004 C 
ATOM     10  C   UNL     1      -1.922   3.700 -25.311  0.00  0.00    +0.005 C 
ATOM     11  C   UNL     1      -0.982   2.287 -22.115  0.00  0.00    +0.067 C 
ATOM     12  C   UNL     1       0.257   2.159 -22.600  0.00  0.00    +0.133 C 
ATOM     13  N   UNL     1       0.461   2.581 -23.880  0.00  0.00    +0.239 N 
ATOM     14  H   UNL     1       0.846   2.822 -24.792  0.00  0.00    +0.204 HD
ATOM     15  C   UNL     1       1.621   2.474 -24.372  0.00  0.00    +0.191 C 
ATOM     16  C   UNL     1      -0.586   3.065 -24.487  0.00  0.00    +0.096 C 
ATOM     17  C   UNL     1      -1.330   3.062 -23.979  0.00  0.00    -0.011 C 
ATOM     18  C   UNL     1      -1.054   3.449 -25.213  0.00  0.00    +0.094 C 
ATOM     19  C   UNL     1      -3.830   3.232 -22.759  0.00  0.00    +0.163 A 
ENDROOT
BRANCH   1  21
ATOM     20  C   UNL     1      -6.512   2.563 -21.670  0.00  0.00    +0.277 C 
ATOM     21  O   UNL     1      -5.895   3.548 -22.227  0.00  0.00    -0.491 OA
ENDBRANCH   1  21
BRANCH  19  22
ATOM     22  O   UNL     1      -4.608   3.004 -21.621  0.00  0.00    -0.503 OA
ATOM     23  H   UNL     1      -4.435   3.480 -20.834  0.00  0.00    +0.292 HD
ENDBRANCH  19  22
TORSDOF 2
ENDMDL
MODEL 3
REMARK VINA RESULT:   -10.133      1.418      2.470
REMARK INTER + INTRA:         -11.433
REMARK INTER:                 -11.332
REMARK INTRA:                  -0.101
REMARK UNBOUND:                -0.115
REMARK  Name = ZINC000096316331
REMARK  4 active torsions:
REMARK  status: ('A' for Active; 'I' for Inactive)
REMARK    1  A    between atoms: C_1  and  O_2
REMARK    2  A    between atoms: O_2  and  C_3
REMARK    3  A    between atoms: C_8  and  O_9
REMARK    4  A    between atoms: N_18  and  C_19
REMARK                            x       y       z     vdW  Elec       q    Type
REMARK                         _______ _______ _______ _____ _____    ______ ____
ROOT
ATOM      1  C   UNL     1       0.812   1.927 -22.245  0.00  0.00    +0.162 A 
ATOM      2  C   UNL     1       0.971   2.438 -23.447  0.00  0.00    +0.050 A 
ATOM      3  C   UNL     1      -0.065   2.970 -24.114  0.00  0.00    +0.008 A 
ATOM      4  C   UNL     1      -1.396   2.997 -23.524  0.00  0.00    -0.034 A 
ATOM      5  C   UNL     1      -1.451   2.521 -22.450  0.00  0.00    +0.012 A 
ATOM      6  C   UNL     1      -2.340   2.431 -21.820  0.00  0.00    +0.034 C 
ATOM      7  C   UNL     1      -0.973   2.189 -21.952  0.00  0.00    +0.043 C 
ATOM      8  C   UNL     1      -0.254   2.569 -23.138  0.00  0.00    -0.026 C 
ATOM      9  C   UNL     1      -0.866   3.198 -24.225  0.00  0.00    -0.004 C 
ATOM     10  C   UNL     1      -1.868   3.383 -24.143  0.00  0.00    +0.005 C 
ATOM     11  C   UNL     1      -3.290   2.273 -21.007  0.00  0.00    +0.067 C 
ATOM     12  C   UNL     1      -4.468   2.732 -21.444  0.00  0.00    +0.133 C 
ATOM     13  N   UNL     1      -4.483   3.298 -22.683  0.00  0.00    +0.239 N 
ATOM     14  H   UNL     1      -4.736   3.752 -23.560  0.00  0.00    +0.204 HD
ATOM     15  C   UNL     1      -5.579   3.743 -23.129  0.00  0.00    +0.191 C 
ATOM     16  C   UNL     1      -3.337   3.326 -23.304  0.00  0.00    +0.096 C 
ATOM     17  C   UNL     1      -2.662   2.962 -22.830  0.00  0.00    -0.011 C 
ATOM     18  C   UNL     1      -2.758   3.525 -24.024  0.00  0.00    +0.094 C 
ATOM     19  C   UNL     1      -0.323   1.938 -21.715  0.00  0.00    +0.163 A 
ENDROOT
BRANCH   1  21
ATOM     20  C   UNL     1       2.940   1.310 -20.989  0.00  0.00    +0.277 C 
ATOM     21  O   UNL     1       1.679   1.286 -21.256  0.00  0.00    -0.491 OA
ENDBRANCH   1  21
BRANCH  19  22
ATOM     22  O   UNL     1       0.292   1.309 -20.630  0.00  0.00    -0.503 OA
ATOM     23  H   UNL     1       1.132   0.910 -20.735  0.00  0.00    +0.292 HD
ENDBRANCH  19  22
TORSDOF 2
ENDMDL
MODEL 4
REMARK VINA RESULT:    -9.837      1.028      2.428
REMARK INTER + INTRA:         -11.103
REMARK INTER:                 -10.999
REMARK INTRA:                  -0.103
REMARK UNBOUND:                -0.115
REMARK  Name = ZINC000096316331
REMARK  4 active torsions:
REMARK  status: ('A' for Active; 'I' for Inactive)
REMARK    1  A    between atoms: C_1  and  O_2
REMARK    2  A    between atoms: O_2  and  C_3
REMARK    3  A    between atoms: C_8  and  O_9
REMARK    4  A    between atoms: N_18  and  C_19
REMARK                            x       y       z     vdW  Elec       q    Type
REMARK                         _______ _______ _______ _____ _____    ______ ____
ROOT
ATOM      1  C   UNL     1       0.803   2.993 -24.107  0.00  0.00    +0.162 A 
ATOM      2  C   UNL     1       0.319   3.449 -25.243  0.00  0.00    +0.050 A 
ATOM      3  C   UNL     1      -0.991   3.706 -25.381  0.00  0.00    +0.008 A 
ATOM      4  C   UNL     1      -1.914   3.486 -24.277  0.00  0.00    -0.034 A 
ATOM      5  C   UNL     1      -1.402   3.078 -23.300  0.00  0.00    +0.012 A 
ATOM      6  C   UNL     1      -1.894   2.841 -22.354  0.00  0.00    +0.034 C 
ATOM      7  C   UNL     1      -0.697   2.887 -23.068  0.00  0.00    +0.043 C 
ATOM      8  C   UNL     1      -0.653   3.336 -24.434  0.00  0.00    -0.026 C 
ATOM      9  C   UNL     1      -1.792   3.751 -25.130  0.00  0.00    -0.004 C 
ATOM     10  C   UNL     1      -2.677   3.723 -24.620  0.00  0.00    +0.005 C 
ATOM     11  C   UNL     1      -2.348   2.536 -21.218  0.00  0.00    +0.067 C 
ATOM     12  C   UNL     1      -3.668   2.706 -21.091  0.00  0.00    +0.133 C 
ATOM     13  N   UNL     1      -4.332   3.177 -22.183  0.00  0.00    +0.239 N 
ATOM     14  H   UNL     1      -5.027   3.511 -22.850  0.00  0.00    +0.204 HD
ATOM     15  C   UNL     1      -5.582   3.350 -22.100  0.00  0.00    +0.191 C 
ATOM     16  C   UNL     1      -3.597   3.409 -23.235  0.00  0.00    +0.096 C 
ATOM     17  C   UNL     1      -2.723   3.227 -23.109  0.00  0.00    -0.011 C 
ATOM     18  C   UNL     1      -3.438   3.681 -24.126  0.00  0.00    +0.094 C 
ATOM     19  C   UNL     1       0.029   2.795 -23.142  0.00  0.00    +0.163 A 
ENDROOT
BRANCH   1  21
ATOM     20  C   UNL     1       3.157   2.020 -24.105  0.00  0.00    +0.277 C 
ATOM     21  O   UNL     1       2.126   2.614 -23.609  0.00  0.00    -0.491 OA
ENDBRANCH   1  21
BRANCH  19  22
ATOM     22  O   UNL     1       1.169   2.381 -22.448  0.00  0.00    -0.503 OA
ATOM     23  H   UNL     1       1.294   1.473 -22.253  0.00  0.00    +0.292 HD
ENDBRANCH  19  22
TORSDOF 2
ENDMDL
MODEL 5
REMARK VINA RESULT:    -9.672      2.057      4.333
REMARK INTER + INTRA:         -10.918
REMARK INTER:                 -10.813
REMARK INTRA:                  -0.105
REMARK UNBOUND:                -0.115
REMARK  Name = ZINC000096316331
REMARK  4 active torsions:
REMARK  status: ('A' for Active; 'I' for Inactive)
REMARK    1  A    between atoms: C_1  and  O_2
REMARK    2  A    between atoms: O_2  and  C_3
REMARK    3  A    between atoms: C_8  and  O_9
REMARK    4  A    between atoms: N_18  and  C_19
REMARK                            x       y       z     vdW  Elec       q    Type
REMARK                         _______ _______ _______ _____ _____    ______ ____
ROOT
ATOM      1  C   UNL     1      -2.930   3.503 -23.470  0.00  0.00    +0.162 A 
ATOM      2  C   UNL     1      -3.306   3.054 -22.291  0.00  0.00    +0.050 A 
ATOM      3  C   UNL     1      -2.448   2.393 -21.499  0.00  0.00    +0.008 A 
ATOM      4  C   UNL     1      -1.076   2.153 -21.923  0.00  0.00    -0.034 A 
ATOM      5  C   UNL     1      -0.822   2.586 -22.986  0.00  0.00    +0.012 A 
ATOM      6  C   UNL     1       0.138   2.525 -23.504  0.00  0.00    +0.034 C 
ATOM      7  C   UNL     1      -1.183   2.971 -23.541  0.00  0.00    +0.043 C 
ATOM      8  C   UNL     1      -2.086   2.735 -22.448  0.00  0.00    -0.026 C 
ATOM      9  C   UNL     1      -1.709   2.052 -21.289  0.00  0.00    -0.004 C 
ATOM     10  C   UNL     1      -0.744   1.719 -21.246  0.00  0.00    +0.005 C 
ATOM     11  C   UNL     1       1.191   2.519 -24.197  0.00  0.00    +0.067 C 
ATOM     12  C   UNL     1       2.226   1.903 -23.616  0.00  0.00    +0.133 C 
ATOM     13  N   UNL     1       2.008   1.375 -22.379  0.00  0.00    +0.239 N 
ATOM     14  H   UNL     1       2.084   0.912 -21.474  0.00  0.00    +0.204 HD
ATOM     15  C   UNL     1       2.964   0.784 -21.799  0.00  0.00    +0.191 C 
ATOM     16  C   UNL     1       0.806   1.533 -21.901  0.00  0.00    +0.096 C 
ATOM     17  C   UNL     1       0.255   1.981 -22.457  0.00  0.00    -0.011 C 
ATOM     18  C   UNL     1       0.122   1.443 -21.255  0.00  0.00    +0.094 C 
ATOM     19  C   UNL     1      -1.754   3.310 -23.858  0.00  0.00    +0.163 A 
ENDROOT
BRANCH   1  21
ATOM     20  C   UNL     1      -4.695   4.165 -25.183  0.00  0.00    +0.277 C 
ATOM     21  O   UNL     1      -3.567   4.238 -24.563  0.00  0.00    -0.491 OA
ENDBRANCH   1  21
BRANCH  19  22
ATOM     22  O   UNL     1      -2.135   3.993 -25.016  0.00  0.00    -0.503 OA
ATOM     23  H   UNL     1      -1.486   4.259 -25.636  0.00  0.00    +0.292 HD
ENDBRANCH  19  22
TORSDOF 2
ENDMDL
MODEL 6
REMARK VINA RESULT:    -9.351      2.408      5.081
REMARK INTER + INTRA:         -10.559
REMARK INTER:                 -10.446
REMARK INTRA:                  -0.113
REMARK UNBOUND:                -0.115
REMARK  Name = ZINC000096316331
REMARK  4 active torsions:
REMARK  status: ('A' for Active; 'I' for Inactive)
REMARK    1  A    between atoms: C_1  and  O_2
REMARK    2  A    between atoms: O_2  and  C_3
REMARK    3  A    between atoms: C_8  and  O_9
REMARK    4  A    between atoms: N_18  and  C_19
REMARK                            x       y       z     vdW  Elec       q    Type
REMARK                         _______ _______ _______ _____ _____    ______ ____
ROOT
ATOM      1  C   UNL     1      -2.857   3.044 -23.345  0.00  0.00    +0.162 A 
ATOM      2  C   UNL     1      -2.770   3.610 -24.530  0.00  0.00    +0.050 A 
ATOM      3  C   UNL     1      -1.590   3.716 -25.160  0.00  0.00    +0.008 A 
ATOM      4  C   UNL     1      -0.371   3.208 -24.547  0.00  0.00    -0.034 A 
ATOM      5  C   UNL     1      -0.535   2.718 -23.491  0.00  0.00    +0.012 A 
ATOM      6  C   UNL     1       0.230   2.273 -22.850  0.00  0.00    +0.034 C 
ATOM      7  C   UNL     1      -1.120   2.584 -23.014  0.00  0.00    +0.043 C 
ATOM      8  C   UNL     1      -1.600   3.246 -24.196  0.00  0.00    -0.026 C 
ATOM      9  C   UNL     1      -0.760   3.618 -25.249  0.00  0.00    -0.004 C 
ATOM     10  C   UNL     1       0.232   3.397 -25.144  0.00  0.00    +0.005 C 
ATOM     11  C   UNL     1       1.020   1.735 -22.028  0.00  0.00    +0.067 C 
ATOM     12  C   UNL     1       2.296   1.713 -22.428  0.00  0.00    +0.133 C 
ATOM     13  N   UNL     1       2.566   2.263 -23.646  0.00  0.00    +0.239 N 
ATOM     14  H   UNL     1       3.001   2.608 -24.501  0.00  0.00    +0.204 HD
ATOM     15  C   UNL     1       3.761   2.260 -24.056  0.00  0.00    +0.191 C 
ATOM     16  C   UNL     1       1.539   2.752 -24.284  0.00  0.00    +0.096 C 
ATOM     17  C   UNL     1       0.762   2.665 -23.835  0.00  0.00    -0.011 C 
ATOM     18  C   UNL     1       1.104   3.180 -25.005  0.00  0.00    +0.094 C 
ATOM     19  C   UNL     1      -1.822   2.598 -22.797  0.00  0.00    +0.163 A 
ENDROOT
BRANCH   1  21
ATOM     20  C   UNL     1      -4.654   3.466 -21.590  0.00  0.00    +0.277 C 
ATOM     21  O   UNL     1      -3.934   2.763 -22.395  0.00  0.00    -0.491 OA
ENDBRANCH   1  21
BRANCH  19  22
ATOM     22  O   UNL     1      -2.665   2.228 -21.746  0.00  0.00    -0.503 OA
ATOM     23  H   UNL     1      -2.937   1.336 -21.657  0.00  0.00    +0.292 HD
ENDBRANCH  19  22
TORSDOF 2
ENDMDL
MODEL 7
REMARK VINA RESULT:    -9.160      2.923      5.551
REMARK INTER + INTRA:         -10.346
REMARK INTER:                 -10.238
REMARK INTRA:                  -0.108
REMARK UNBOUND:                -0.115
REMARK  Name = ZINC000096316331
REMARK  4 active torsions:
REMARK  status: ('A' for Active; 'I' for Inactive)
REMARK    1  A    between atoms: C_1  and  O_2
REMARK    2  A    between atoms: O_2  and  C_3
REMARK    3  A    between atoms: C_8  and  O_9
REMARK    4  A    between atoms: N_18  and  C_19
REMARK                            x       y       z     vdW  Elec       q    Type
REMARK                         _______ _______ _______ _____ _____    ______ ____
ROOT
ATOM      1  C   UNL     1      -0.657   3.506 -23.887  0.00  0.00    +0.162 A 
ATOM      2  C   UNL     1      -0.221   4.744 -23.976  0.00  0.00    +0.050 A 
ATOM      3  C   UNL     1       1.060   5.046 -23.719  0.00  0.00    +0.008 A 
ATOM      4  C   UNL     1       2.007   4.008 -23.334  0.00  0.00    -0.034 A 
ATOM      5  C   UNL     1       1.539   2.932 -23.278  0.00  0.00    +0.012 A 
ATOM      6  C   UNL     1       2.056   2.007 -23.012  0.00  0.00    +0.034 C 
ATOM      7  C   UNL     1       0.854   2.605 -23.389  0.00  0.00    +0.043 C 
ATOM      8  C   UNL     1       0.763   4.020 -23.630  0.00  0.00    -0.026 C 
ATOM      9  C   UNL     1       1.856   4.880 -23.505  0.00  0.00    -0.004 C 
ATOM     10  C   UNL     1       2.744   4.457 -23.229  0.00  0.00    +0.005 C 
ATOM     11  C   UNL     1       2.542   0.880 -22.722  0.00  0.00    +0.067 C 
ATOM     12  C   UNL     1       3.844   0.907 -22.418  0.00  0.00    +0.133 C 
ATOM     13  N   UNL     1       4.458   2.123 -22.461  0.00  0.00    +0.239 N 
ATOM     14  H   UNL     1       5.117   2.900 -22.426  0.00  0.00    +0.204 HD
ATOM     15  C   UNL     1       5.689   2.186 -22.179  0.00  0.00    +0.191 C 
ATOM     16  C   UNL     1       3.698   3.127 -22.797  0.00  0.00    +0.096 C 
ATOM     17  C   UNL     1       2.844   2.891 -22.963  0.00  0.00    -0.011 C 
ATOM     18  C   UNL     1       3.510   4.035 -22.982  0.00  0.00    +0.094 C 
ATOM     19  C   UNL     1       0.138   2.594 -23.557  0.00  0.00    +0.163 A 
ENDROOT
BRANCH   1  21
ATOM     20  C   UNL     1      -2.796   2.750 -25.045  0.00  0.00    +0.277 C 
ATOM     21  O   UNL     1      -1.939   2.829 -24.085  0.00  0.00    -0.491 OA
ENDBRANCH   1  21
BRANCH  19  22
ATOM     22  O   UNL     1      -0.957   1.736 -23.683  0.00  0.00    -0.503 OA
ATOM     23  H   UNL     1      -1.134   1.320 -24.503  0.00  0.00    +0.292 HD
ENDBRANCH  19  22
TORSDOF 2
ENDMDL
MODEL 8
REMARK VINA RESULT:    -9.119      1.794      2.555
REMARK INTER + INTRA:         -10.300
REMARK INTER:                 -10.185
REMARK INTRA:                  -0.115
REMARK UNBOUND:                -0.115
REMARK  Name = ZINC000096316331
REMARK  4 active torsions:
REMARK  status: ('A' for Active; 'I' for Inactive)
REMARK    1  A    between atoms: C_1  and  O_2
REMARK    2  A    between atoms: O_2  and  C_3
REMARK    3  A    between atoms: C_8  and  O_9
REMARK    4  A    between atoms: N_18  and  C_19
REMARK                            x       y       z     vdW  Elec       q    Type
REMARK                         _______ _______ _______ _____ _____    ______ ____
ROOT
ATOM      1  C   UNL     1       3.273   2.837 -22.764  0.00  0.00    +0.162 A 
ATOM      2  C   UNL     1       3.113   1.724 -22.079  0.00  0.00    +0.050 A 
ATOM      3  C   UNL     1       1.888   1.288 -21.748  0.00  0.00    +0.008 A 
ATOM      4  C   UNL     1       0.700   2.035 -22.139  0.00  0.00    -0.034 A 
ATOM      5  C   UNL     1       0.931   3.015 -22.747  0.00  0.00    +0.012 A 
ATOM      6  C   UNL     1       0.202   3.727 -23.141  0.00  0.00    +0.034 C 
ATOM      7  C   UNL     1       1.548   3.388 -23.007  0.00  0.00    +0.043 C 
ATOM      8  C   UNL     1       1.958   2.201 -22.307  0.00  0.00    -0.026 C 
ATOM      9  C   UNL     1       1.048   1.316 -21.721  0.00  0.00    -0.004 C 
ATOM     10  C   UNL     1       0.058   1.551 -21.810  0.00  0.00    +0.005 C 
ATOM     11  C   UNL     1      -0.542   4.614 -23.640  0.00  0.00    +0.067 C 
ATOM     12  C   UNL     1      -1.849   4.408 -23.445  0.00  0.00    +0.133 C 
ATOM     13  N   UNL     1      -2.195   3.290 -22.747  0.00  0.00    +0.239 N 
ATOM     14  H   UNL     1      -2.685   2.538 -22.264  0.00  0.00    +0.204 HD
ATOM     15  C   UNL     1      -3.422   3.063 -22.544  0.00  0.00    +0.191 C 
ATOM     16  C   UNL     1      -1.202   2.545 -22.347  0.00  0.00    +0.096 C 
ATOM     17  C   UNL     1      -0.394   2.865 -22.585  0.00  0.00    -0.011 C 
ATOM     18  C   UNL     1      -0.810   1.801 -21.916  0.00  0.00    +0.094 C 
ATOM     19  C   UNL     1       2.268   3.498 -23.112  0.00  0.00    +0.163 A 
ENDROOT
BRANCH   1  21
ATOM     20  C   UNL     1       5.085   4.622 -22.897  0.00  0.00    +0.277 C 
ATOM     21  O   UNL     1       4.414   3.592 -23.284  0.00  0.00    -0.491 OA
ENDBRANCH   1  21
BRANCH  19  22
ATOM     22  O   UNL     1       3.179   4.380 -23.697  0.00  0.00    -0.503 OA
ATOM     23  H   UNL     1       2.972   4.797 -24.509  0.00  0.00    +0.292 HD
ENDBRANCH  19  22
TORSDOF 2
ENDMDL
MODEL 9
REMARK VINA RESULT:    -9.091      2.586      4.943
REMARK INTER + INTRA:         -10.269
REMARK INTER:                 -10.157
REMARK INTRA:                  -0.112
REMARK UNBOUND:                -0.115
REMARK  Name = ZINC000096316331
REMARK  4 active torsions:
REMARK  status: ('A' for Active; 'I' for Inactive)
REMARK    1  A    between atoms: C_1  and  O_2
REMARK    2  A    between atoms: O_2  and  C_3
REMARK    3  A    between atoms: C_8  and  O_9
REMARK    4  A    between atoms: N_18  and  C_19
REMARK                            x       y       z     vdW  Elec       q    Type
REMARK                         _______ _______ _______ _____ _____    ______ ____
ROOT
ATOM      1  C   UNL     1      -0.944   2.949 -23.678  0.00  0.00    +0.162 A 
ATOM      2  C   UNL     1      -1.306   2.082 -22.757  0.00  0.00    +0.050 A 
ATOM      3  C   UNL     1      -0.406   1.557 -21.912  0.00  0.00    +0.008 A 
ATOM      4  C   UNL     1       0.998   1.933 -21.991  0.00  0.00    -0.034 A 
ATOM      5  C   UNL     1       1.237   2.711 -22.839  0.00  0.00    +0.012 A 
ATOM      6  C   UNL     1       2.215   3.134 -23.082  0.00  0.00    +0.034 C 
ATOM      7  C   UNL     1       0.853   3.092 -23.382  0.00  0.00    +0.043 C 
ATOM      8  C   UNL     1      -0.054   2.258 -22.641  0.00  0.00    -0.026 C 
ATOM      9  C   UNL     1       0.360   1.444 -21.584  0.00  0.00    -0.004 C 
ATOM     10  C   UNL     1       1.354   1.464 -21.351  0.00  0.00    +0.005 C 
ATOM     11  C   UNL     1       3.285   3.687 -23.454  0.00  0.00    +0.067 C 
ATOM     12  C   UNL     1       4.363   3.323 -22.751  0.00  0.00    +0.133 C 
ATOM     13  N   UNL     1       4.165   2.422 -21.749  0.00  0.00    +0.239 N 
ATOM     14  H   UNL     1       4.263   1.775 -20.967  0.00  0.00    +0.204 HD
ATOM     15  C   UNL     1       5.162   2.055 -21.064  0.00  0.00    +0.191 C 
ATOM     16  C   UNL     1       2.936   2.016 -21.590  0.00  0.00    +0.096 C 
ATOM     17  C   UNL     1       2.357   2.387 -22.172  0.00  0.00    -0.011 C 
ATOM     18  C   UNL     1       2.246   1.516 -21.182  0.00  0.00    +0.094 C 
ATOM     19  C   UNL     1       0.258   3.290 -23.767  0.00  0.00    +0.163 A 
ENDROOT
BRANCH   1  21
ATOM     20  C   UNL     1      -2.205   3.404 -25.844  0.00  0.00    +0.277 C 
ATOM     21  O   UNL     1      -1.624   3.702 -24.732  0.00  0.00    -0.491 OA
ENDBRANCH   1  21
BRANCH  19  22
ATOM     22  O   UNL     1      -0.158   4.103 -24.824  0.00  0.00    -0.503 OA
ATOM     23  H   UNL     1      -1.072   4.223 -24.990  0.00  0.00    +0.292 HD
ENDBRANCH  19  22
TORSDOF 2
ENDMDL
