MODEL 1
REMARK VINA RESULT:   -10.358      0.000      0.000
REMARK INTER + INTRA:         -10.358
REMARK INTER:                 -10.358
REMARK INTRA:                   0.000
REMARK UNBOUND:                 0.000
REMARK  Name = C[C@@H]1CC[C@@H]2[C@@H](C)C(=O)O[C@@H]3O[C@]4(C)CC[C@@H]1[C@]32OO4   ZINC000100858739
REMARK  3 active torsions:
REMARK  status: ('A' for Active; 'I' for Inactive)
REMARK    1  A    between atoms: C_1  and  C_2
REMARK    2  A    between atoms: C_6  and  C_7
REMARK    3  A    between atoms: C_13  and  C_14
REMARK                            x       y       z     vdW  Elec       q    Type
REMARK                         _______ _______ _______ _____ _____    ______ ____
ROOT
ATOM      1  C   UNL     1      -5.719   3.438 -22.133  0.00  0.00    +0.008 C 
ATOM      2  C   UNL     1      -4.455   3.093 -22.127  0.00  0.00    -0.008 C 
ATOM      3  C   UNL     1      -3.879   2.737 -21.005  0.00  0.00    +0.004 C 
ATOM      4  C   UNL     1      -2.600   2.388 -20.998  0.00  0.00    +0.008 C 
ATOM      5  C   UNL     1      -1.912   2.398 -22.113  0.00  0.00    +0.044 C 
ATOM      6  C   UNL     1      -0.648   2.054 -22.106  0.00  0.00    +0.101 C 
ATOM      7  C   UNL     1       0.055   2.060 -23.220  0.00  0.00    +0.313 C 
ATOM      8  O   UNL     1      -0.535   2.422 -24.357  0.00  0.00    -0.432 OA
ATOM      9  C   UNL     1      -1.798   2.767 -24.365  0.00  0.00    +0.349 C 
ATOM     10  O   UNL     1      -2.076   3.064 -25.610  0.00  0.00    -0.305 OA
ATOM     11  C   UNL     1      -3.237   3.467 -26.105  0.00  0.00    +0.204 C 
ATOM     12  C   UNL     1      -4.364   3.660 -25.465  0.00  0.00    +0.068 C 
ATOM     13  C   UNL     1      -4.614   3.500 -24.175  0.00  0.00    +0.012 C 
ATOM     14  C   UNL     1      -3.261   3.705 -27.409  0.00  0.00    +0.077 C 
ATOM     15  O   UNL     1      -3.693   3.399 -25.021  0.00  0.00    -0.199 OA
ATOM     16  O   UNL     1      -3.410   3.123 -23.901  0.00  0.00    -0.218 OA
ATOM     17  O   UNL     1       1.325   1.712 -23.209  0.00  0.00    -0.250 OA
ATOM     18  C   UNL     1      -0.079   1.699 -20.980  0.00  0.00    +0.019 C 
ATOM     19  C   UNL     1      -2.488   2.754 -23.234  0.00  0.00    +0.173 C 
ATOM     20  C   UNL     1      -3.767   3.103 -23.241  0.00  0.00    +0.034 C 
ENDROOT
TORSDOF 0
ENDMDL
MODEL 2
REMARK VINA RESULT:    -9.895      1.084      4.003
REMARK INTER + INTRA:          -9.895
REMARK INTER:                  -9.895
REMARK INTRA:                   0.000
REMARK UNBOUND:                 0.000
REMARK  Name = C[C@@H]1CC[C@@H]2[C@@H](C)C(=O)O[C@@H]3O[C@]4(C)CC[C@@H]1[C@]32OO4   ZINC000100858739
REMARK  3 active torsions:
REMARK  status: ('A' for Active; 'I' for Inactive)
REMARK    1  A    between atoms: C_1  and  C_2
REMARK    2  A    between atoms: C_6  and  C_7
REMARK    3  A    between atoms: C_13  and  C_14
REMARK                            x       y       z     vdW  Elec       q    Type
REMARK                         _______ _______ _______ _____ _____    ______ ____
ROOT
ATOM      1  C   UNL     1      -3.631   2.933 -19.920  0.00  0.00    +0.008 C 
ATOM      2  C   UNL     1      -3.704   3.088 -21.218  0.00  0.00    -0.008 C 
ATOM      3  C   UNL     1      -4.832   3.460 -21.772  0.00  0.00    +0.004 C 
ATOM      4  C   UNL     1      -4.905   3.617 -23.086  0.00  0.00    +0.008 C 
ATOM      5  C   UNL     1      -3.851   3.399 -23.833  0.00  0.00    +0.044 C 
ATOM      6  C   UNL     1      -3.924   3.554 -25.131  0.00  0.00    +0.101 C 
ATOM      7  C   UNL     1      -2.870   3.338 -25.892  0.00  0.00    +0.313 C 
ATOM      8  O   UNL     1      -1.727   2.959 -25.325  0.00  0.00    -0.432 OA
ATOM      9  C   UNL     1      -1.653   2.805 -24.027  0.00  0.00    +0.349 C 
ATOM     10  O   UNL     1      -0.420   2.435 -23.785  0.00  0.00    -0.305 OA
ATOM     11  C   UNL     1       0.125   2.161 -22.609  0.00  0.00    +0.204 C 
ATOM     12  C   UNL     1      -0.442   2.197 -21.428  0.00  0.00    +0.068 C 
ATOM     13  C   UNL     1      -1.691   2.516 -21.126  0.00  0.00    +0.012 C 
ATOM     14  C   UNL     1       1.402   1.806 -22.629  0.00  0.00    +0.077 C 
ATOM     15  O   UNL     1      -0.912   2.399 -22.103  0.00  0.00    -0.199 OA
ATOM     16  O   UNL     1      -2.023   2.735 -22.354  0.00  0.00    -0.218 OA
ATOM     17  O   UNL     1      -2.948   3.494 -27.198  0.00  0.00    -0.250 OA
ATOM     18  C   UNL     1      -5.055   3.926 -25.677  0.00  0.00    +0.019 C 
ATOM     19  C   UNL     1      -2.723   3.027 -23.279  0.00  0.00    +0.173 C 
ATOM     20  C   UNL     1      -2.649   2.870 -21.965  0.00  0.00    +0.034 C 
ENDROOT
TORSDOF 0
ENDMDL
MODEL 3
REMARK VINA RESULT:    -9.812      1.646      4.038
REMARK INTER + INTRA:          -9.812
REMARK INTER:                  -9.812
REMARK INTRA:                   0.000
REMARK UNBOUND:                 0.000
REMARK  Name = C[C@@H]1CC[C@@H]2[C@@H](C)C(=O)O[C@@H]3O[C@]4(C)CC[C@@H]1[C@]32OO4   ZINC000100858739
REMARK  3 active torsions:
REMARK  status: ('A' for Active; 'I' for Inactive)
REMARK    1  A    between atoms: C_1  and  C_2
REMARK    2  A    between atoms: C_6  and  C_7
REMARK    3  A    between atoms: C_13  and  C_14
REMARK                            x       y       z     vdW  Elec       q    Type
REMARK                         _______ _______ _______ _____ _____    ______ ____
ROOT
ATOM      1  C   UNL     1      -2.945   3.677 -27.129  0.00  0.00    +0.008 C 
ATOM      2  C   UNL     1      -3.234   3.603 -25.854  0.00  0.00    -0.008 C 
ATOM      3  C   UNL     1      -4.485   3.541 -25.468  0.00  0.00    +0.004 C 
ATOM      4  C   UNL     1      -4.777   3.466 -24.177  0.00  0.00    +0.008 C 
ATOM      5  C   UNL     1      -3.816   3.454 -23.287  0.00  0.00    +0.044 C 
ATOM      6  C   UNL     1      -4.105   3.380 -22.011  0.00  0.00    +0.101 C 
ATOM      7  C   UNL     1      -3.148   3.366 -21.107  0.00  0.00    +0.313 C 
ATOM      8  O   UNL     1      -1.879   3.429 -21.504  0.00  0.00    -0.432 OA
ATOM      9  C   UNL     1      -1.589   3.503 -22.779  0.00  0.00    +0.349 C 
ATOM     10  O   UNL     1      -0.282   3.551 -22.841  0.00  0.00    -0.305 OA
ATOM     11  C   UNL     1       0.473   3.631 -23.928  0.00  0.00    +0.204 C 
ATOM     12  C   UNL     1       0.084   3.681 -25.178  0.00  0.00    +0.068 C 
ATOM     13  C   UNL     1      -1.150   3.663 -25.657  0.00  0.00    +0.012 C 
ATOM     14  C   UNL     1       1.783   3.665 -23.724  0.00  0.00    +0.077 C 
ATOM     15  O   UNL     1      -0.510   3.631 -24.578  0.00  0.00    -0.199 OA
ATOM     16  O   UNL     1      -1.693   3.586 -24.488  0.00  0.00    -0.218 OA
ATOM     17  O   UNL     1      -3.443   3.292 -19.825  0.00  0.00    -0.250 OA
ATOM     18  C   UNL     1      -5.358   3.318 -21.633  0.00  0.00    +0.019 C 
ATOM     19  C   UNL     1      -2.566   3.515 -23.672  0.00  0.00    +0.173 C 
ATOM     20  C   UNL     1      -2.273   3.590 -24.963  0.00  0.00    +0.034 C 
ENDROOT
TORSDOF 0
ENDMDL
MODEL 4
REMARK VINA RESULT:    -9.638      1.395      4.035
REMARK INTER + INTRA:          -9.638
REMARK INTER:                  -9.638
REMARK INTRA:                   0.000
REMARK UNBOUND:                 0.000
REMARK  Name = C[C@@H]1CC[C@@H]2[C@@H](C)C(=O)O[C@@H]3O[C@]4(C)CC[C@@H]1[C@]32OO4   ZINC000100858739
REMARK  3 active torsions:
REMARK  status: ('A' for Active; 'I' for Inactive)
REMARK    1  A    between atoms: C_1  and  C_2
REMARK    2  A    between atoms: C_6  and  C_7
REMARK    3  A    between atoms: C_13  and  C_14
REMARK                            x       y       z     vdW  Elec       q    Type
REMARK                         _______ _______ _______ _____ _____    ______ ____
ROOT
ATOM      1  C   UNL     1      -0.254   1.492 -20.915  0.00  0.00    +0.008 C 
ATOM      2  C   UNL     1      -1.266   2.033 -21.545  0.00  0.00    -0.008 C 
ATOM      3  C   UNL     1      -2.470   1.960 -21.035  0.00  0.00    +0.004 C 
ATOM      4  C   UNL     1      -3.495   2.509 -21.672  0.00  0.00    +0.008 C 
ATOM      5  C   UNL     1      -3.304   3.123 -22.813  0.00  0.00    +0.044 C 
ATOM      6  C   UNL     1      -4.317   3.665 -23.444  0.00  0.00    +0.101 C 
ATOM      7  C   UNL     1      -4.138   4.286 -24.591  0.00  0.00    +0.313 C 
ATOM      8  O   UNL     1      -2.912   4.357 -25.106  0.00  0.00    -0.432 OA
ATOM      9  C   UNL     1      -1.899   3.816 -24.477  0.00  0.00    +0.349 C 
ATOM     10  O   UNL     1      -0.851   4.053 -25.226  0.00  0.00    -0.305 OA
ATOM     11  C   UNL     1       0.404   3.695 -24.995  0.00  0.00    +0.204 C 
ATOM     12  C   UNL     1       0.878   3.027 -23.972  0.00  0.00    +0.068 C 
ATOM     13  C   UNL     1       0.221   2.550 -22.926  0.00  0.00    +0.012 C 
ATOM     14  C   UNL     1       1.289   4.057 -25.913  0.00  0.00    +0.077 C 
ATOM     15  O   UNL     1       0.047   3.189 -23.993  0.00  0.00    -0.199 OA
ATOM     16  O   UNL     1      -0.922   2.990 -23.336  0.00  0.00    -0.218 OA
ATOM     17  O   UNL     1      -5.159   4.829 -25.222  0.00  0.00    -0.250 OA
ATOM     18  C   UNL     1      -5.518   3.588 -22.927  0.00  0.00    +0.019 C 
ATOM     19  C   UNL     1      -2.100   3.196 -23.324  0.00  0.00    +0.173 C 
ATOM     20  C   UNL     1      -1.075   2.648 -22.686  0.00  0.00    +0.034 C 
ENDROOT
TORSDOF 0
ENDMDL
MODEL 5
REMARK VINA RESULT:    -9.523      1.589      3.659
REMARK INTER + INTRA:          -9.523
REMARK INTER:                  -9.523
REMARK INTRA:                   0.000
REMARK UNBOUND:                 0.000
REMARK  Name = C[C@@H]1CC[C@@H]2[C@@H](C)C(=O)O[C@@H]3O[C@]4(C)CC[C@@H]1[C@]32OO4   ZINC000100858739
REMARK  3 active torsions:
REMARK  status: ('A' for Active; 'I' for Inactive)
REMARK    1  A    between atoms: C_1  and  C_2
REMARK    2  A    between atoms: C_6  and  C_7
REMARK    3  A    between atoms: C_13  and  C_14
REMARK                            x       y       z     vdW  Elec       q    Type
REMARK                         _______ _______ _______ _____ _____    ______ ____
ROOT
ATOM      1  C   UNL     1      -5.164   3.391 -25.478  0.00  0.00    +0.008 C 
ATOM      2  C   UNL     1      -3.870   3.472 -25.288  0.00  0.00    -0.008 C 
ATOM      3  C   UNL     1      -3.059   3.524 -26.316  0.00  0.00    +0.004 C 
ATOM      4  C   UNL     1      -1.750   3.607 -26.123  0.00  0.00    +0.008 C 
ATOM      5  C   UNL     1      -1.267   3.636 -24.906  0.00  0.00    +0.044 C 
ATOM      6  C   UNL     1       0.027   3.717 -24.716  0.00  0.00    +0.101 C 
ATOM      7  C   UNL     1       0.525   3.747 -23.497  0.00  0.00    +0.313 C 
ATOM      8  O   UNL     1      -0.304   3.694 -22.456  0.00  0.00    -0.432 OA
ATOM      9  C   UNL     1      -1.597   3.613 -22.645  0.00  0.00    +0.349 C 
ATOM     10  O   UNL     1      -2.127   3.578 -21.448  0.00  0.00    -0.305 OA
ATOM     11  C   UNL     1      -3.412   3.497 -21.136  0.00  0.00    +0.204 C 
ATOM     12  C   UNL     1      -4.438   3.433 -21.949  0.00  0.00    +0.068 C 
ATOM     13  C   UNL     1      -4.439   3.434 -23.273  0.00  0.00    +0.012 C 
ATOM     14  C   UNL     1      -3.695   3.478 -19.841  0.00  0.00    +0.077 C 
ATOM     15  O   UNL     1      -3.664   3.482 -22.287  0.00  0.00    -0.199 OA
ATOM     16  O   UNL     1      -3.153   3.516 -23.358  0.00  0.00    -0.218 OA
ATOM     17  O   UNL     1       1.826   3.829 -23.310  0.00  0.00    -0.250 OA
ATOM     18  C   UNL     1       0.832   3.769 -25.749  0.00  0.00    +0.019 C 
ATOM     19  C   UNL     1      -2.078   3.584 -23.878  0.00  0.00    +0.173 C 
ATOM     20  C   UNL     1      -3.387   3.501 -24.071  0.00  0.00    +0.034 C 
ENDROOT
TORSDOF 0
ENDMDL
MODEL 6
REMARK VINA RESULT:    -9.367      1.566      3.648
REMARK INTER + INTRA:          -9.367
REMARK INTER:                  -9.367
REMARK INTRA:                   0.000
REMARK UNBOUND:                 0.000
REMARK  Name = C[C@@H]1CC[C@@H]2[C@@H](C)C(=O)O[C@@H]3O[C@]4(C)CC[C@@H]1[C@]32OO4   ZINC000100858739
REMARK  3 active torsions:
REMARK  status: ('A' for Active; 'I' for Inactive)
REMARK    1  A    between atoms: C_1  and  C_2
REMARK    2  A    between atoms: C_6  and  C_7
REMARK    3  A    between atoms: C_13  and  C_14
REMARK                            x       y       z     vdW  Elec       q    Type
REMARK                         _______ _______ _______ _____ _____    ______ ____
ROOT
ATOM      1  C   UNL     1      -2.826   4.074 -25.690  0.00  0.00    +0.008 C 
ATOM      2  C   UNL     1      -1.829   3.586 -24.994  0.00  0.00    -0.008 C 
ATOM      3  C   UNL     1      -0.624   3.558 -25.508  0.00  0.00    +0.004 C 
ATOM      4  C   UNL     1       0.385   3.064 -24.804  0.00  0.00    +0.008 C 
ATOM      5  C   UNL     1       0.179   2.605 -23.595  0.00  0.00    +0.044 C 
ATOM      6  C   UNL     1       1.176   2.117 -22.900  0.00  0.00    +0.101 C 
ATOM      7  C   UNL     1       0.980   1.652 -21.683  0.00  0.00    +0.313 C 
ATOM      8  O   UNL     1      -0.246   1.683 -21.166  0.00  0.00    -0.432 OA
ATOM      9  C   UNL     1      -1.243   2.170 -21.860  0.00  0.00    +0.349 C 
ATOM     10  O   UNL     1      -2.296   2.061 -21.089  0.00  0.00    -0.305 OA
ATOM     11  C   UNL     1      -3.540   2.425 -21.365  0.00  0.00    +0.204 C 
ATOM     12  C   UNL     1      -3.997   2.972 -22.465  0.00  0.00    +0.068 C 
ATOM     13  C   UNL     1      -3.328   3.293 -23.562  0.00  0.00    +0.012 C 
ATOM     14  C   UNL     1      -4.434   2.208 -20.410  0.00  0.00    +0.077 C 
ATOM     15  O   UNL     1      -3.171   2.789 -22.423  0.00  0.00    -0.199 OA
ATOM     16  O   UNL     1      -2.198   2.874 -23.098  0.00  0.00    -0.218 OA
ATOM     17  O   UNL     1       1.986   1.162 -20.987  0.00  0.00    -0.250 OA
ATOM     18  C   UNL     1       2.378   2.092 -23.421  0.00  0.00    +0.019 C 
ATOM     19  C   UNL     1      -1.026   2.633 -23.082  0.00  0.00    +0.173 C 
ATOM     20  C   UNL     1      -2.036   3.127 -23.785  0.00  0.00    +0.034 C 
ENDROOT
TORSDOF 0
ENDMDL
MODEL 7
REMARK VINA RESULT:    -9.141      1.818      5.060
REMARK INTER + INTRA:          -9.141
REMARK INTER:                  -9.141
REMARK INTRA:                   0.000
REMARK UNBOUND:                 0.000
REMARK  Name = C[C@@H]1CC[C@@H]2[C@@H](C)C(=O)O[C@@H]3O[C@]4(C)CC[C@@H]1[C@]32OO4   ZINC000100858739
REMARK  3 active torsions:
REMARK  status: ('A' for Active; 'I' for Inactive)
REMARK    1  A    between atoms: C_1  and  C_2
REMARK    2  A    between atoms: C_6  and  C_7
REMARK    3  A    between atoms: C_13  and  C_14
REMARK                            x       y       z     vdW  Elec       q    Type
REMARK                         _______ _______ _______ _____ _____    ______ ____
ROOT
ATOM      1  C   UNL     1       0.569   3.749 -25.879  0.00  0.00    +0.008 C 
ATOM      2  C   UNL     1      -0.430   3.567 -25.051  0.00  0.00    -0.008 C 
ATOM      3  C   UNL     1      -1.641   3.924 -25.398  0.00  0.00    +0.004 C 
ATOM      4  C   UNL     1      -2.653   3.739 -24.560  0.00  0.00    +0.008 C 
ATOM      5  C   UNL     1      -2.441   3.199 -23.386  0.00  0.00    +0.044 C 
ATOM      6  C   UNL     1      -3.439   3.016 -22.559  0.00  0.00    +0.101 C 
ATOM      7  C   UNL     1      -3.239   2.474 -21.375  0.00  0.00    +0.313 C 
ATOM      8  O   UNL     1      -2.006   2.112 -21.028  0.00  0.00    -0.432 OA
ATOM      9  C   UNL     1      -1.007   2.295 -21.854  0.00  0.00    +0.349 C 
ATOM     10  O   UNL     1       0.053   1.844 -21.231  0.00  0.00    -0.305 OA
ATOM     11  C   UNL     1       1.302   1.820 -21.675  0.00  0.00    +0.204 C 
ATOM     12  C   UNL     1       1.756   2.237 -22.831  0.00  0.00    +0.068 C 
ATOM     13  C   UNL     1       1.081   2.783 -23.831  0.00  0.00    +0.012 C 
ATOM     14  C   UNL     1       2.203   1.309 -20.847  0.00  0.00    +0.077 C 
ATOM     15  O   UNL     1       0.927   2.314 -22.676  0.00  0.00    -0.199 OA
ATOM     16  O   UNL     1      -0.052   2.714 -23.215  0.00  0.00    -0.218 OA
ATOM     17  O   UNL     1      -4.247   2.292 -20.546  0.00  0.00    -0.250 OA
ATOM     18  C   UNL     1      -4.649   3.377 -22.913  0.00  0.00    +0.019 C 
ATOM     19  C   UNL     1      -1.229   2.841 -23.039  0.00  0.00    +0.173 C 
ATOM     20  C   UNL     1      -0.218   3.026 -23.877  0.00  0.00    +0.034 C 
ENDROOT
TORSDOF 0
ENDMDL
MODEL 8
REMARK VINA RESULT:    -8.840      1.266      2.102
REMARK INTER + INTRA:          -8.840
REMARK INTER:                  -8.840
REMARK INTRA:                   0.000
REMARK UNBOUND:                 0.000
REMARK  Name = C[C@@H]1CC[C@@H]2[C@@H](C)C(=O)O[C@@H]3O[C@]4(C)CC[C@@H]1[C@]32OO4   ZINC000100858739
REMARK  3 active torsions:
REMARK  status: ('A' for Active; 'I' for Inactive)
REMARK    1  A    between atoms: C_1  and  C_2
REMARK    2  A    between atoms: C_6  and  C_7
REMARK    3  A    between atoms: C_13  and  C_14
REMARK                            x       y       z     vdW  Elec       q    Type
REMARK                         _______ _______ _______ _____ _____    ______ ____
ROOT
ATOM      1  C   UNL     1      -3.306   2.233 -20.672  0.00  0.00    +0.008 C 
ATOM      2  C   UNL     1      -2.274   2.317 -21.475  0.00  0.00    -0.008 C 
ATOM      3  C   UNL     1      -1.098   1.902 -21.075  0.00  0.00    +0.004 C 
ATOM      4  C   UNL     1      -0.053   1.987 -21.887  0.00  0.00    +0.008 C 
ATOM      5  C   UNL     1      -0.197   2.486 -23.090  0.00  0.00    +0.044 C 
ATOM      6  C   UNL     1       0.835   2.569 -23.893  0.00  0.00    +0.101 C 
ATOM      7  C   UNL     1       0.703   3.069 -25.104  0.00  0.00    +0.313 C 
ATOM      8  O   UNL     1      -0.495   3.489 -25.506  0.00  0.00    -0.432 OA
ATOM      9  C   UNL     1      -1.527   3.406 -24.704  0.00  0.00    +0.349 C 
ATOM     10  O   UNL     1      -2.538   3.891 -25.380  0.00  0.00    -0.305 OA
ATOM     11  C   UNL     1      -3.795   4.012 -24.977  0.00  0.00    +0.204 C 
ATOM     12  C   UNL     1      -4.308   3.676 -23.819  0.00  0.00    +0.068 C 
ATOM     13  C   UNL     1      -3.697   3.136 -22.776  0.00  0.00    +0.012 C 
ATOM     14  C   UNL     1      -4.639   4.539 -25.854  0.00  0.00    +0.077 C 
ATOM     15  O   UNL     1      -3.481   3.542 -23.943  0.00  0.00    -0.199 OA
ATOM     16  O   UNL     1      -2.544   3.107 -23.357  0.00  0.00    -0.218 OA
ATOM     17  O   UNL     1       1.743   3.151 -25.909  0.00  0.00    -0.250 OA
ATOM     18  C   UNL     1       2.008   2.152 -23.486  0.00  0.00    +0.019 C 
ATOM     19  C   UNL     1      -1.374   2.901 -23.490  0.00  0.00    +0.173 C 
ATOM     20  C   UNL     1      -2.418   2.816 -22.678  0.00  0.00    +0.034 C 
ENDROOT
TORSDOF 0
ENDMDL
MODEL 9
REMARK VINA RESULT:    -8.552      2.588      5.094
REMARK INTER + INTRA:          -8.552
REMARK INTER:                  -8.552
REMARK INTRA:                   0.000
REMARK UNBOUND:                 0.000
REMARK  Name = C[C@@H]1CC[C@@H]2[C@@H](C)C(=O)O[C@@H]3O[C@]4(C)CC[C@@H]1[C@]32OO4   ZINC000100858739
REMARK  3 active torsions:
REMARK  status: ('A' for Active; 'I' for Inactive)
REMARK    1  A    between atoms: C_1  and  C_2
REMARK    2  A    between atoms: C_6  and  C_7
REMARK    3  A    between atoms: C_13  and  C_14
REMARK                            x       y       z     vdW  Elec       q    Type
REMARK                         _______ _______ _______ _____ _____    ______ ____
ROOT
ATOM      1  C   UNL     1       0.694   3.937 -25.781  0.00  0.00    +0.008 C 
ATOM      2  C   UNL     1       1.369   3.249 -24.894  0.00  0.00    -0.008 C 
ATOM      3  C   UNL     1       2.618   2.929 -25.125  0.00  0.00    +0.004 C 
ATOM      4  C   UNL     1       3.301   2.233 -24.227  0.00  0.00    +0.008 C 
ATOM      5  C   UNL     1       2.728   1.864 -23.109  0.00  0.00    +0.044 C 
ATOM      6  C   UNL     1       3.403   1.176 -22.222  0.00  0.00    +0.101 C 
ATOM      7  C   UNL     1       2.837   0.800 -21.094  0.00  0.00    +0.313 C 
ATOM      8  O   UNL     1       1.567   1.127 -20.863  0.00  0.00    -0.432 OA
ATOM      9  C   UNL     1       0.892   1.815 -21.750  0.00  0.00    +0.349 C 
ATOM     10  O   UNL     1      -0.303   1.973 -21.237  0.00  0.00    -0.305 OA
ATOM     11  C   UNL     1      -1.335   2.608 -21.775  0.00  0.00    +0.204 C 
ATOM     12  C   UNL     1      -1.393   3.218 -22.933  0.00  0.00    +0.068 C 
ATOM     13  C   UNL     1      -0.440   3.347 -23.843  0.00  0.00    +0.012 C 
ATOM     14  C   UNL     1      -2.446   2.628 -21.051  0.00  0.00    +0.077 C 
ATOM     15  O   UNL     1      -0.663   2.850 -22.712  0.00  0.00    -0.199 OA
ATOM     16  O   UNL     1       0.429   2.690 -23.149  0.00  0.00    -0.218 OA
ATOM     17  O   UNL     1       3.519   0.108 -20.204  0.00  0.00    -0.250 OA
ATOM     18  C   UNL     1       4.652   0.860 -22.460  0.00  0.00    +0.019 C 
ATOM     19  C   UNL     1       1.478   2.184 -22.878  0.00  0.00    +0.173 C 
ATOM     20  C   UNL     1       0.795   2.881 -23.776  0.00  0.00    +0.034 C 
ENDROOT
TORSDOF 0
ENDMDL
