MODEL 1
REMARK VINA RESULT:    -6.167      0.000      0.000
REMARK INTER + INTRA:          -6.348
REMARK INTER:                  -6.348
REMARK INTRA:                   0.000
REMARK UNBOUND:                 0.000
REMARK  Name = CN1[C@H]2CC[C@@H]1C[C@@H](O)C2                                       ZINC000100019971
REMARK  2 active torsions:
REMARK  status: ('A' for Active; 'I' for Inactive)
REMARK    1  A    between atoms: C_1  and  N_2
REMARK    2  A    between atoms: C_8  and  O_9
REMARK                            x       y       z     vdW  Elec       q    Type
REMARK                         _______ _______ _______ _____ _____    ______ ____
ROOT
ATOM      1  C   UNL     1      -4.166   3.614 -23.710  0.00  0.00    +0.191 C 
ATOM      2  N   UNL     1      -4.009   3.308 -22.997  0.00  0.00    +0.238 N 
ATOM      3  H   UNL     1      -3.807   2.913 -22.078  0.00  0.00    +0.204 HD
ATOM      4  C   UNL     1      -4.850   3.277 -22.444  0.00  0.00    +0.067 C 
ATOM      5  C   UNL     1      -4.346   2.721 -21.273  0.00  0.00    +0.060 C 
ATOM      6  C   UNL     1      -2.997   2.570 -21.633  0.00  0.00    +0.060 C 
ATOM      7  C   UNL     1      -5.522   3.778 -23.382  0.00  0.00    +0.086 C 
ATOM      8  C   UNL     1      -4.363   4.000 -24.611  0.00  0.00    +0.125 C 
ATOM      9  C   UNL     1      -2.823   3.476 -24.102  0.00  0.00    +0.086 C 
ATOM     10  C   UNL     1      -3.033   3.073 -22.929  0.00  0.00    +0.067 C 
ENDROOT
BRANCH   8  11
ATOM     11  O   UNL     1      -4.636   4.535 -25.858  0.00  0.00    -0.391 OA
ATOM     12  H   UNL     1      -3.870   5.045 -26.166  0.00  0.00    +0.210 HD
ENDBRANCH   8  11
TORSDOF 1
ENDMDL
MODEL 2
REMARK VINA RESULT:    -5.969      1.774      2.614
REMARK INTER + INTRA:          -6.143
REMARK INTER:                  -6.143
REMARK INTRA:                   0.000
REMARK UNBOUND:                 0.000
REMARK  Name = CN1[C@H]2CC[C@@H]1C[C@@H](O)C2                                       ZINC000100019971
REMARK  2 active torsions:
REMARK  status: ('A' for Active; 'I' for Inactive)
REMARK    1  A    between atoms: C_1  and  N_2
REMARK    2  A    between atoms: C_8  and  O_9
REMARK                            x       y       z     vdW  Elec       q    Type
REMARK                         _______ _______ _______ _____ _____    ______ ____
ROOT
ATOM      1  C   UNL     1      -2.758   2.808 -23.357  0.00  0.00    +0.191 C 
ATOM      2  N   UNL     1      -3.481   3.065 -23.160  0.00  0.00    +0.238 N 
ATOM      3  H   UNL     1      -4.412   3.395 -22.906  0.00  0.00    +0.204 HD
ATOM      4  C   UNL     1      -3.965   3.390 -23.980  0.00  0.00    +0.067 C 
ATOM      5  C   UNL     1      -5.171   3.779 -23.407  0.00  0.00    +0.060 C 
ATOM      6  C   UNL     1      -4.918   3.461 -22.063  0.00  0.00    +0.060 C 
ATOM      7  C   UNL     1      -2.979   3.115 -24.710  0.00  0.00    +0.086 C 
ATOM      8  C   UNL     1      -1.845   2.484 -23.605  0.00  0.00    +0.125 C 
ATOM      9  C   UNL     1      -2.473   2.478 -22.020  0.00  0.00    +0.086 C 
ATOM     10  C   UNL     1      -3.625   2.962 -22.169  0.00  0.00    +0.067 C 
ENDROOT
BRANCH   8  11
ATOM     11  O   UNL     1      -0.582   2.035 -23.949  0.00  0.00    -0.391 OA
ATOM     12  H   UNL     1       0.043   2.777 -23.926  0.00  0.00    +0.210 HD
ENDBRANCH   8  11
TORSDOF 1
ENDMDL
MODEL 3
REMARK VINA RESULT:    -5.874      2.004      3.305
REMARK INTER + INTRA:          -6.046
REMARK INTER:                  -6.046
REMARK INTRA:                   0.000
REMARK UNBOUND:                 0.000
REMARK  Name = CN1[C@H]2CC[C@@H]1C[C@@H](O)C2                                       ZINC000100019971
REMARK  2 active torsions:
REMARK  status: ('A' for Active; 'I' for Inactive)
REMARK    1  A    between atoms: C_1  and  N_2
REMARK    2  A    between atoms: C_8  and  O_9
REMARK                            x       y       z     vdW  Elec       q    Type
REMARK                         _______ _______ _______ _____ _____    ______ ____
ROOT
ATOM      1  C   UNL     1      -4.224   3.189 -22.489  0.00  0.00    +0.191 C 
ATOM      2  N   UNL     1      -4.254   3.512 -23.211  0.00  0.00    +0.238 N 
ATOM      3  H   UNL     1      -4.293   3.928 -24.142  0.00  0.00    +0.204 HD
ATOM      4  C   UNL     1      -3.334   3.526 -23.620  0.00  0.00    +0.067 C 
ATOM      5  C   UNL     1      -3.626   4.117 -24.845  0.00  0.00    +0.060 C 
ATOM      6  C   UNL     1      -5.010   4.303 -24.704  0.00  0.00    +0.060 C 
ATOM      7  C   UNL     1      -2.837   2.989 -22.597  0.00  0.00    +0.086 C 
ATOM      8  C   UNL     1      -4.186   2.782 -21.576  0.00  0.00    +0.125 C 
ATOM      9  C   UNL     1      -5.608   3.362 -22.316  0.00  0.00    +0.086 C 
ATOM     10  C   UNL     1      -5.199   3.778 -23.431  0.00  0.00    +0.067 C 
ENDROOT
BRANCH   8  11
ATOM     11  O   UNL     1      -4.134   2.218 -20.313  0.00  0.00    -0.391 OA
ATOM     12  H   UNL     1      -4.129   1.251 -20.390  0.00  0.00    +0.210 HD
ENDBRANCH   8  11
TORSDOF 1
ENDMDL
MODEL 4
REMARK VINA RESULT:    -5.855      1.902      2.767
REMARK INTER + INTRA:          -6.026
REMARK INTER:                  -6.026
REMARK INTRA:                   0.000
REMARK UNBOUND:                 0.000
REMARK  Name = CN1[C@H]2CC[C@@H]1C[C@@H](O)C2                                       ZINC000100019971
REMARK  2 active torsions:
REMARK  status: ('A' for Active; 'I' for Inactive)
REMARK    1  A    between atoms: C_1  and  N_2
REMARK    2  A    between atoms: C_8  and  O_9
REMARK                            x       y       z     vdW  Elec       q    Type
REMARK                         _______ _______ _______ _____ _____    ______ ____
ROOT
ATOM      1  C   UNL     1      -2.283   2.614 -22.905  0.00  0.00    +0.191 C 
ATOM      2  N   UNL     1      -2.926   2.754 -22.465  0.00  0.00    +0.238 N 
ATOM      3  H   UNL     1      -3.755   2.934 -21.898  0.00  0.00    +0.204 HD
ATOM      4  C   UNL     1      -2.753   2.488 -21.510  0.00  0.00    +0.067 C 
ATOM      5  C   UNL     1      -3.982   2.813 -20.945  0.00  0.00    +0.060 C 
ATOM      6  C   UNL     1      -4.653   3.298 -22.079  0.00  0.00    +0.060 C 
ATOM      7  C   UNL     1      -1.583   2.123 -21.790  0.00  0.00    +0.086 C 
ATOM      8  C   UNL     1      -1.471   2.437 -23.462  0.00  0.00    +0.125 C 
ATOM      9  C   UNL     1      -2.926   3.092 -24.060  0.00  0.00    +0.086 C 
ATOM     10  C   UNL     1      -3.658   3.141 -23.038  0.00  0.00    +0.067 C 
ENDROOT
BRANCH   8  11
ATOM     11  O   UNL     1      -0.347   2.193 -24.231  0.00  0.00    -0.391 OA
ATOM     12  H   UNL     1      -0.021   3.028 -24.602  0.00  0.00    +0.210 HD
ENDBRANCH   8  11
TORSDOF 1
ENDMDL
MODEL 5
REMARK VINA RESULT:    -5.790      1.562      2.517
REMARK INTER + INTRA:          -5.959
REMARK INTER:                  -5.959
REMARK INTRA:                   0.000
REMARK UNBOUND:                 0.000
REMARK  Name = CN1[C@H]2CC[C@@H]1C[C@@H](O)C2                                       ZINC000100019971
REMARK  2 active torsions:
REMARK  status: ('A' for Active; 'I' for Inactive)
REMARK    1  A    between atoms: C_1  and  N_2
REMARK    2  A    between atoms: C_8  and  O_9
REMARK                            x       y       z     vdW  Elec       q    Type
REMARK                         _______ _______ _______ _____ _____    ______ ____
ROOT
ATOM      1  C   UNL     1      -3.693   3.001 -22.391  0.00  0.00    +0.191 C 
ATOM      2  N   UNL     1      -2.942   2.751 -22.370  0.00  0.00    +0.238 N 
ATOM      3  H   UNL     1      -1.974   2.429 -22.342  0.00  0.00    +0.204 HD
ATOM      4  C   UNL     1      -2.517   2.863 -23.276  0.00  0.00    +0.067 C 
ATOM      5  C   UNL     1      -1.244   2.374 -23.003  0.00  0.00    +0.060 C 
ATOM      6  C   UNL     1      -1.390   2.047 -21.646  0.00  0.00    +0.060 C 
ATOM      7  C   UNL     1      -3.580   3.339 -23.750  0.00  0.00    +0.086 C 
ATOM      8  C   UNL     1      -4.642   3.316 -22.417  0.00  0.00    +0.125 C 
ATOM      9  C   UNL     1      -3.873   2.685 -21.033  0.00  0.00    +0.086 C 
ATOM     10  C   UNL     1      -2.714   2.422 -21.446  0.00  0.00    +0.067 C 
ENDROOT
BRANCH   8  11
ATOM     11  O   UNL     1      -5.955   3.753 -22.454  0.00  0.00    -0.391 OA
ATOM     12  H   UNL     1      -6.241   3.842 -23.376  0.00  0.00    +0.210 HD
ENDBRANCH   8  11
TORSDOF 1
ENDMDL
MODEL 6
REMARK VINA RESULT:    -5.591      1.547      2.676
REMARK INTER + INTRA:          -5.755
REMARK INTER:                  -5.755
REMARK INTRA:                   0.000
REMARK UNBOUND:                 0.000
REMARK  Name = CN1[C@H]2CC[C@@H]1C[C@@H](O)C2                                       ZINC000100019971
REMARK  2 active torsions:
REMARK  status: ('A' for Active; 'I' for Inactive)
REMARK    1  A    between atoms: C_1  and  N_2
REMARK    2  A    between atoms: C_8  and  O_9
REMARK                            x       y       z     vdW  Elec       q    Type
REMARK                         _______ _______ _______ _____ _____    ______ ____
ROOT
ATOM      1  C   UNL     1      -4.051   3.548 -23.820  0.00  0.00    +0.191 C 
ATOM      2  N   UNL     1      -3.421   3.490 -24.296  0.00  0.00    +0.238 N 
ATOM      3  H   UNL     1      -2.609   3.416 -24.910  0.00  0.00    +0.204 HD
ATOM      4  C   UNL     1      -3.691   3.680 -25.248  0.00  0.00    +0.067 C 
ATOM      5  C   UNL     1      -2.462   3.525 -25.880  0.00  0.00    +0.060 C 
ATOM      6  C   UNL     1      -1.655   3.206 -24.776  0.00  0.00    +0.060 C 
ATOM      7  C   UNL     1      -4.886   3.869 -24.903  0.00  0.00    +0.086 C 
ATOM      8  C   UNL     1      -4.845   3.621 -23.218  0.00  0.00    +0.125 C 
ATOM      9  C   UNL     1      -3.271   3.232 -22.694  0.00  0.00    +0.086 C 
ATOM     10  C   UNL     1      -2.604   3.251 -23.760  0.00  0.00    +0.067 C 
ENDROOT
BRANCH   8  11
ATOM     11  O   UNL     1      -5.946   3.722 -22.384  0.00  0.00    -0.391 OA
ATOM     12  H   UNL     1      -6.598   4.321 -22.780  0.00  0.00    +0.210 HD
ENDBRANCH   8  11
TORSDOF 1
ENDMDL
MODEL 7
REMARK VINA RESULT:    -5.286      3.002      3.871
REMARK INTER + INTRA:          -5.441
REMARK INTER:                  -5.441
REMARK INTRA:                   0.000
REMARK UNBOUND:                 0.000
REMARK  Name = CN1[C@H]2CC[C@@H]1C[C@@H](O)C2                                       ZINC000100019971
REMARK  2 active torsions:
REMARK  status: ('A' for Active; 'I' for Inactive)
REMARK    1  A    between atoms: C_1  and  N_2
REMARK    2  A    between atoms: C_8  and  O_9
REMARK                            x       y       z     vdW  Elec       q    Type
REMARK                         _______ _______ _______ _____ _____    ______ ____
ROOT
ATOM      1  C   UNL     1      -0.632   4.374 -23.841  0.00  0.00    +0.191 C 
ATOM      2  N   UNL     1      -1.294   3.947 -23.927  0.00  0.00    +0.238 N 
ATOM      3  H   UNL     1      -2.146   3.397 -24.037  0.00  0.00    +0.204 HD
ATOM      4  C   UNL     1      -1.917   4.122 -23.155  0.00  0.00    +0.067 C 
ATOM      5  C   UNL     1      -2.974   3.291 -23.511  0.00  0.00    +0.060 C 
ATOM      6  C   UNL     1      -2.476   2.757 -24.710  0.00  0.00    +0.060 C 
ATOM      7  C   UNL     1      -1.102   4.928 -22.638  0.00  0.00    +0.086 C 
ATOM      8  C   UNL     1       0.203   4.913 -23.735  0.00  0.00    +0.125 C 
ATOM      9  C   UNL     1      -0.104   3.859 -25.038  0.00  0.00    +0.086 C 
ATOM     10  C   UNL     1      -1.246   3.402 -24.771  0.00  0.00    +0.067 C 
ENDROOT
BRANCH   8  11
ATOM     11  O   UNL     1       1.359   5.659 -23.586  0.00  0.00    -0.391 OA
ATOM     12  H   UNL     1       1.196   6.571 -23.875  0.00  0.00    +0.210 HD
ENDBRANCH   8  11
TORSDOF 1
ENDMDL
MODEL 8
REMARK VINA RESULT:    -5.225      1.494      2.381
REMARK INTER + INTRA:          -5.378
REMARK INTER:                  -5.378
REMARK INTRA:                   0.000
REMARK UNBOUND:                 0.000
REMARK  Name = CN1[C@H]2CC[C@@H]1C[C@@H](O)C2                                       ZINC000100019971
REMARK  2 active torsions:
REMARK  status: ('A' for Active; 'I' for Inactive)
REMARK    1  A    between atoms: C_1  and  N_2
REMARK    2  A    between atoms: C_8  and  O_9
REMARK                            x       y       z     vdW  Elec       q    Type
REMARK                         _______ _______ _______ _____ _____    ______ ____
ROOT
ATOM      1  C   UNL     1      -3.580   3.740 -23.328  0.00  0.00    +0.191 C 
ATOM      2  N   UNL     1      -2.789   3.754 -23.375  0.00  0.00    +0.238 N 
ATOM      3  H   UNL     1      -1.771   3.771 -23.435  0.00  0.00    +0.204 HD
ATOM      4  C   UNL     1      -2.388   3.432 -22.509  0.00  0.00    +0.067 C 
ATOM      5  C   UNL     1      -1.037   3.540 -22.817  0.00  0.00    +0.060 C 
ATOM      6  C   UNL     1      -1.122   4.025 -24.132  0.00  0.00    +0.060 C 
ATOM      7  C   UNL     1      -3.529   3.254 -22.010  0.00  0.00    +0.086 C 
ATOM      8  C   UNL     1      -4.578   3.723 -23.270  0.00  0.00    +0.125 C 
ATOM      9  C   UNL     1      -3.700   4.225 -24.642  0.00  0.00    +0.086 C 
ATOM     10  C   UNL     1      -2.503   4.086 -24.280  0.00  0.00    +0.067 C 
ENDROOT
BRANCH   8  11
ATOM     11  O   UNL     1      -5.959   3.700 -23.189  0.00  0.00    -0.391 OA
ATOM     12  H   UNL     1      -6.292   4.602 -23.060  0.00  0.00    +0.210 HD
ENDBRANCH   8  11
TORSDOF 1
ENDMDL
MODEL 9
REMARK VINA RESULT:    -5.154      3.766      4.523
REMARK INTER + INTRA:          -5.304
REMARK INTER:                  -5.304
REMARK INTRA:                   0.000
REMARK UNBOUND:                 0.000
REMARK  Name = CN1[C@H]2CC[C@@H]1C[C@@H](O)C2                                       ZINC000100019971
REMARK  2 active torsions:
REMARK  status: ('A' for Active; 'I' for Inactive)
REMARK    1  A    between atoms: C_1  and  N_2
REMARK    2  A    between atoms: C_8  and  O_9
REMARK                            x       y       z     vdW  Elec       q    Type
REMARK                         _______ _______ _______ _____ _____    ______ ____
ROOT
ATOM      1  C   UNL     1       0.408   2.636 -23.848  0.00  0.00    +0.191 C 
ATOM      2  N   UNL     1       0.150   2.358 -23.153  0.00  0.00    +0.238 N 
ATOM      3  H   UNL     1      -0.183   2.000 -22.257  0.00  0.00    +0.204 HD
ATOM      4  C   UNL     1      -0.844   2.499 -23.075  0.00  0.00    +0.067 C 
ATOM      5  C   UNL     1      -1.064   1.952 -21.816  0.00  0.00    +0.060 C 
ATOM      6  C   UNL     1       0.243   1.563 -21.483  0.00  0.00    +0.060 C 
ATOM      7  C   UNL     1      -0.889   3.037 -24.211  0.00  0.00    +0.086 C 
ATOM      8  C   UNL     1       0.735   2.987 -24.725  0.00  0.00    +0.125 C 
ATOM      9  C   UNL     1       1.728   2.260 -23.546  0.00  0.00    +0.086 C 
ATOM     10  C   UNL     1       0.918   1.976 -22.627  0.00  0.00    +0.067 C 
ENDROOT
BRANCH   8  11
ATOM     11  O   UNL     1       1.188   3.472 -25.940  0.00  0.00    -0.391 OA
ATOM     12  H   UNL     1       1.706   2.787 -26.390  0.00  0.00    +0.210 HD
ENDBRANCH   8  11
TORSDOF 1
ENDMDL
