MODEL 1
REMARK VINA RESULT:   -10.144      0.000      0.000
REMARK INTER + INTRA:          -9.935
REMARK INTER:                 -11.030
REMARK INTRA:                   1.096
REMARK UNBOUND:                 1.099
REMARK  Name = ZINC000004104846
REMARK  4 active torsions:
REMARK  status: ('A' for Active; 'I' for Inactive)
REMARK    1  A    between atoms: C_1  and  O_2
REMARK    2  A    between atoms: O_2  and  C_3
REMARK    3  A    between atoms: C_4  and  C_5
REMARK    4  A    between atoms: C_6  and  O_7
REMARK                            x       y       z     vdW  Elec       q    Type
REMARK                         _______ _______ _______ _____ _____    ______ ____
ROOT
ATOM      1  C   UNL     1       0.184   2.848 -23.166  0.00  0.00    +0.138 A 
ATOM      2  C   UNL     1       0.935   3.165 -24.178  0.00  0.00    +0.033 A 
ATOM      3  C   UNL     1       0.402   3.683 -25.245  0.00  0.00    +0.124 A 
ATOM      4  C   UNL     1      -0.881   3.884 -25.299  0.00  0.00    +0.058 A 
ATOM      5  C   UNL     1      -1.632   3.567 -24.287  0.00  0.00    +0.040 A 
ATOM      6  C   UNL     1      -2.915   3.768 -24.342  0.00  0.00    +0.195 C 
ATOM      7  O   UNL     1      -3.448   4.286 -25.409  0.00  0.00    -0.287 OA
ATOM      8  C   UNL     1      -3.667   3.450 -23.329  0.00  0.00    +0.033 A 
ATOM      9  C   UNL     1      -4.950   3.651 -23.384  0.00  0.00    +0.012 A 
ATOM     10  C   UNL     1      -5.701   3.334 -22.371  0.00  0.00    +0.001 A 
ATOM     11  C   UNL     1      -5.169   2.816 -21.304  0.00  0.00    +0.001 A 
ATOM     12  C   UNL     1      -3.886   2.615 -21.250  0.00  0.00    +0.012 A 
ATOM     13  C   UNL     1      -3.134   2.932 -22.263  0.00  0.00    +0.033 A 
ATOM     14  C   UNL     1      -1.851   2.731 -22.208  0.00  0.00    +0.198 C 
ATOM     15  O   UNL     1      -1.319   2.213 -21.141  0.00  0.00    -0.286 OA
ATOM     16  C   UNL     1       2.217   2.964 -24.124  0.00  0.00    +0.051 C 
ATOM     17  C   UNL     1      -1.100   3.048 -23.220  0.00  0.00    +0.075 A 
ENDROOT
BRANCH   1  19
ATOM     18  C   UNL     1       1.349   1.196 -22.173  0.00  0.00    +0.277 C 
ATOM     19  O   UNL     1       0.716   2.329 -22.099  0.00  0.00    -0.494 OA
ENDBRANCH   1  19
BRANCH   3  20
ATOM     20  O   UNL     1       1.153   4.001 -26.258  0.00  0.00    -0.506 OA
ATOM     21  H   UNL     1       1.773   4.699 -26.180  0.00  0.00    +0.292 HD
ENDBRANCH   3  20
TORSDOF 2
ENDMDL
MODEL 2
REMARK VINA RESULT:    -9.876      1.249      3.192
REMARK INTER + INTRA:          -9.643
REMARK INTER:                 -10.721
REMARK INTRA:                   1.078
REMARK UNBOUND:                 1.099
REMARK  Name = ZINC000004104846
REMARK  4 active torsions:
REMARK  status: ('A' for Active; 'I' for Inactive)
REMARK    1  A    between atoms: C_1  and  O_2
REMARK    2  A    between atoms: O_2  and  C_3
REMARK    3  A    between atoms: C_4  and  C_5
REMARK    4  A    between atoms: C_6  and  O_7
REMARK                            x       y       z     vdW  Elec       q    Type
REMARK                         _______ _______ _______ _____ _____    ______ ____
ROOT
ATOM      1  C   UNL     1       0.266   2.611 -23.633  0.00  0.00    +0.138 A 
ATOM      2  C   UNL     1       1.014   2.066 -22.721  0.00  0.00    +0.033 A 
ATOM      3  C   UNL     1       0.497   1.713 -21.581  0.00  0.00    +0.124 A 
ATOM      4  C   UNL     1      -0.769   1.906 -21.355  0.00  0.00    +0.058 A 
ATOM      5  C   UNL     1      -1.517   2.451 -22.268  0.00  0.00    +0.040 A 
ATOM      6  C   UNL     1      -2.783   2.644 -22.040  0.00  0.00    +0.195 C 
ATOM      7  O   UNL     1      -3.300   2.291 -20.901  0.00  0.00    -0.287 OA
ATOM      8  C   UNL     1      -3.532   3.189 -22.953  0.00  0.00    +0.033 A 
ATOM      9  C   UNL     1      -4.797   3.382 -22.727  0.00  0.00    +0.012 A 
ATOM     10  C   UNL     1      -5.545   3.927 -23.639  0.00  0.00    +0.001 A 
ATOM     11  C   UNL     1      -5.027   4.280 -24.778  0.00  0.00    +0.001 A 
ATOM     12  C   UNL     1      -3.762   4.087 -25.005  0.00  0.00    +0.012 A 
ATOM     13  C   UNL     1      -3.013   3.542 -24.092  0.00  0.00    +0.033 A 
ATOM     14  C   UNL     1      -1.748   3.349 -24.319  0.00  0.00    +0.198 C 
ATOM     15  O   UNL     1      -1.231   3.702 -25.458  0.00  0.00    -0.286 OA
ATOM     16  C   UNL     1       2.279   1.873 -22.947  0.00  0.00    +0.051 C 
ATOM     17  C   UNL     1      -1.000   2.804 -23.407  0.00  0.00    +0.075 A 
ENDROOT
BRANCH   1  19
ATOM     18  C   UNL     1       1.583   3.988 -24.834  0.00  0.00    +0.277 C 
ATOM     19  O   UNL     1       0.784   2.964 -24.773  0.00  0.00    -0.494 OA
ENDBRANCH   1  19
BRANCH   3  20
ATOM     20  O   UNL     1       1.244   1.168 -20.669  0.00  0.00    -0.506 OA
ATOM     21  H   UNL     1       1.135   1.407 -19.769  0.00  0.00    +0.292 HD
ENDBRANCH   3  20
TORSDOF 2
ENDMDL
MODEL 3
REMARK VINA RESULT:    -9.434      1.153      4.695
REMARK INTER + INTRA:          -9.162
REMARK INTER:                 -10.232
REMARK INTRA:                   1.070
REMARK UNBOUND:                 1.099
REMARK  Name = ZINC000004104846
REMARK  4 active torsions:
REMARK  status: ('A' for Active; 'I' for Inactive)
REMARK    1  A    between atoms: C_1  and  O_2
REMARK    2  A    between atoms: O_2  and  C_3
REMARK    3  A    between atoms: C_4  and  C_5
REMARK    4  A    between atoms: C_6  and  O_7
REMARK                            x       y       z     vdW  Elec       q    Type
REMARK                         _______ _______ _______ _____ _____    ______ ____
ROOT
ATOM      1  C   UNL     1      -3.356   3.074 -23.211  0.00  0.00    +0.138 A 
ATOM      2  C   UNL     1      -4.007   3.624 -24.193  0.00  0.00    +0.033 A 
ATOM      3  C   UNL     1      -3.376   3.991 -25.268  0.00  0.00    +0.124 A 
ATOM      4  C   UNL     1      -2.092   3.809 -25.362  0.00  0.00    +0.058 A 
ATOM      5  C   UNL     1      -1.440   3.260 -24.380  0.00  0.00    +0.040 A 
ATOM      6  C   UNL     1      -0.156   3.078 -24.475  0.00  0.00    +0.195 C 
ATOM      7  O   UNL     1       0.476   3.446 -25.550  0.00  0.00    -0.287 OA
ATOM      8  C   UNL     1       0.497   2.528 -23.494  0.00  0.00    +0.033 A 
ATOM      9  C   UNL     1       1.780   2.347 -23.588  0.00  0.00    +0.012 A 
ATOM     10  C   UNL     1       2.432   1.797 -22.607  0.00  0.00    +0.001 A 
ATOM     11  C   UNL     1       1.801   1.430 -21.531  0.00  0.00    +0.001 A 
ATOM     12  C   UNL     1       0.517   1.612 -21.437  0.00  0.00    +0.012 A 
ATOM     13  C   UNL     1      -0.135   2.161 -22.419  0.00  0.00    +0.033 A 
ATOM     14  C   UNL     1      -1.419   2.343 -22.325  0.00  0.00    +0.198 C 
ATOM     15  O   UNL     1      -2.050   1.976 -21.250  0.00  0.00    -0.286 OA
ATOM     16  C   UNL     1      -5.291   3.806 -24.099  0.00  0.00    +0.051 C 
ATOM     17  C   UNL     1      -2.071   2.892 -23.305  0.00  0.00    +0.075 A 
ENDROOT
BRANCH   1  19
ATOM     18  C   UNL     1      -4.495   3.603 -21.342  0.00  0.00    +0.277 C 
ATOM     19  O   UNL     1      -3.987   2.707 -22.136  0.00  0.00    -0.494 OA
ENDBRANCH   1  19
BRANCH   3  20
ATOM     20  O   UNL     1      -4.028   4.541 -26.249  0.00  0.00    -0.506 OA
ATOM     21  H   UNL     1      -4.827   5.001 -26.081  0.00  0.00    +0.292 HD
ENDBRANCH   3  20
TORSDOF 2
ENDMDL
MODEL 4
REMARK VINA RESULT:    -9.293      1.312      5.676
REMARK INTER + INTRA:          -9.009
REMARK INTER:                 -10.078
REMARK INTRA:                   1.070
REMARK UNBOUND:                 1.099
REMARK  Name = ZINC000004104846
REMARK  4 active torsions:
REMARK  status: ('A' for Active; 'I' for Inactive)
REMARK    1  A    between atoms: C_1  and  O_2
REMARK    2  A    between atoms: O_2  and  C_3
REMARK    3  A    between atoms: C_4  and  C_5
REMARK    4  A    between atoms: C_6  and  O_7
REMARK                            x       y       z     vdW  Elec       q    Type
REMARK                         _______ _______ _______ _____ _____    ______ ____
ROOT
ATOM      1  C   UNL     1      -2.616   3.326 -23.738  0.00  0.00    +0.138 A 
ATOM      2  C   UNL     1      -3.603   3.183 -22.904  0.00  0.00    +0.033 A 
ATOM      3  C   UNL     1      -3.404   2.615 -21.752  0.00  0.00    +0.124 A 
ATOM      4  C   UNL     1      -2.217   2.188 -21.434  0.00  0.00    +0.058 A 
ATOM      5  C   UNL     1      -1.230   2.331 -22.268  0.00  0.00    +0.040 A 
ATOM      6  C   UNL     1      -0.044   1.904 -21.948  0.00  0.00    +0.195 C 
ATOM      7  O   UNL     1       0.154   1.336 -20.796  0.00  0.00    -0.287 OA
ATOM      8  C   UNL     1       0.944   2.046 -22.782  0.00  0.00    +0.033 A 
ATOM      9  C   UNL     1       2.129   1.620 -22.464  0.00  0.00    +0.012 A 
ATOM     10  C   UNL     1       3.116   1.762 -23.298  0.00  0.00    +0.001 A 
ATOM     11  C   UNL     1       2.918   2.331 -24.450  0.00  0.00    +0.001 A 
ATOM     12  C   UNL     1       1.732   2.757 -24.768  0.00  0.00    +0.012 A 
ATOM     13  C   UNL     1       0.744   2.615 -23.934  0.00  0.00    +0.033 A 
ATOM     14  C   UNL     1      -0.442   3.041 -24.253  0.00  0.00    +0.198 C 
ATOM     15  O   UNL     1      -0.640   3.610 -25.405  0.00  0.00    -0.286 OA
ATOM     16  C   UNL     1      -4.788   3.610 -23.223  0.00  0.00    +0.051 C 
ATOM     17  C   UNL     1      -1.429   2.899 -23.420  0.00  0.00    +0.075 A 
ENDROOT
BRANCH   1  19
ATOM     18  C   UNL     1      -3.538   3.299 -25.792  0.00  0.00    +0.277 C 
ATOM     19  O   UNL     1      -2.814   3.894 -24.890  0.00  0.00    -0.494 OA
ENDBRANCH   1  19
BRANCH   3  20
ATOM     20  O   UNL     1      -4.391   2.473 -20.919  0.00  0.00    -0.506 OA
ATOM     21  H   UNL     1      -5.268   2.647 -21.197  0.00  0.00    +0.292 HD
ENDBRANCH   3  20
TORSDOF 2
ENDMDL
MODEL 5
REMARK VINA RESULT:    -9.252      1.872      3.806
REMARK INTER + INTRA:          -8.964
REMARK INTER:                 -10.046
REMARK INTRA:                   1.082
REMARK UNBOUND:                 1.099
REMARK  Name = ZINC000004104846
REMARK  4 active torsions:
REMARK  status: ('A' for Active; 'I' for Inactive)
REMARK    1  A    between atoms: C_1  and  O_2
REMARK    2  A    between atoms: O_2  and  C_3
REMARK    3  A    between atoms: C_4  and  C_5
REMARK    4  A    between atoms: C_6  and  O_7
REMARK                            x       y       z     vdW  Elec       q    Type
REMARK                         _______ _______ _______ _____ _____    ______ ____
ROOT
ATOM      1  C   UNL     1       1.857   2.241 -22.911  0.00  0.00    +0.138 A 
ATOM      2  C   UNL     1       2.290   1.821 -21.760  0.00  0.00    +0.033 A 
ATOM      3  C   UNL     1       1.452   1.599 -20.791  0.00  0.00    +0.124 A 
ATOM      4  C   UNL     1       0.180   1.798 -20.975  0.00  0.00    +0.058 A 
ATOM      5  C   UNL     1      -0.253   2.218 -22.126  0.00  0.00    +0.040 A 
ATOM      6  C   UNL     1      -1.525   2.416 -22.308  0.00  0.00    +0.195 C 
ATOM      7  O   UNL     1      -2.363   2.194 -21.339  0.00  0.00    -0.287 OA
ATOM      8  C   UNL     1      -1.959   2.836 -23.460  0.00  0.00    +0.033 A 
ATOM      9  C   UNL     1      -3.230   3.034 -23.642  0.00  0.00    +0.012 A 
ATOM     10  C   UNL     1      -3.664   3.454 -24.794  0.00  0.00    +0.001 A 
ATOM     11  C   UNL     1      -2.825   3.676 -25.762  0.00  0.00    +0.001 A 
ATOM     12  C   UNL     1      -1.554   3.477 -25.580  0.00  0.00    +0.012 A 
ATOM     13  C   UNL     1      -1.120   3.057 -24.428  0.00  0.00    +0.033 A 
ATOM     14  C   UNL     1       0.151   2.859 -24.245  0.00  0.00    +0.198 C 
ATOM     15  O   UNL     1       0.989   3.080 -25.214  0.00  0.00    -0.286 OA
ATOM     16  C   UNL     1       3.562   1.622 -21.578  0.00  0.00    +0.051 C 
ATOM     17  C   UNL     1       0.585   2.439 -23.095  0.00  0.00    +0.075 A 
ENDROOT
BRANCH   1  19
ATOM     18  C   UNL     1       3.406   1.485 -24.361  0.00  0.00    +0.277 C 
ATOM     19  O   UNL     1       2.695   2.462 -23.880  0.00  0.00    -0.494 OA
ENDBRANCH   1  19
BRANCH   3  20
ATOM     20  O   UNL     1       1.885   1.179 -19.640  0.00  0.00    -0.506 OA
ATOM     21  H   UNL     1       1.697   0.305 -19.359  0.00  0.00    +0.292 HD
ENDBRANCH   3  20
TORSDOF 2
ENDMDL
MODEL 6
REMARK VINA RESULT:    -8.620      2.407      3.996
REMARK INTER + INTRA:          -8.277
REMARK INTER:                  -9.360
REMARK INTRA:                   1.083
REMARK UNBOUND:                 1.099
REMARK  Name = ZINC000004104846
REMARK  4 active torsions:
REMARK  status: ('A' for Active; 'I' for Inactive)
REMARK    1  A    between atoms: C_1  and  O_2
REMARK    2  A    between atoms: O_2  and  C_3
REMARK    3  A    between atoms: C_4  and  C_5
REMARK    4  A    between atoms: C_6  and  O_7
REMARK                            x       y       z     vdW  Elec       q    Type
REMARK                         _______ _______ _______ _____ _____    ______ ____
ROOT
ATOM      1  C   UNL     1       3.435   1.877 -22.402  0.00  0.00    +0.138 A 
ATOM      2  C   UNL     1       4.598   2.436 -22.563  0.00  0.00    +0.033 A 
ATOM      3  C   UNL     1       4.677   3.654 -23.009  0.00  0.00    +0.124 A 
ATOM      4  C   UNL     1       3.593   4.313 -23.296  0.00  0.00    +0.058 A 
ATOM      5  C   UNL     1       2.431   3.754 -23.135  0.00  0.00    +0.040 A 
ATOM      6  C   UNL     1       1.348   4.415 -23.421  0.00  0.00    +0.195 C 
ATOM      7  O   UNL     1       1.428   5.633 -23.868  0.00  0.00    -0.287 OA
ATOM      8  C   UNL     1       0.185   3.856 -23.260  0.00  0.00    +0.033 A 
ATOM      9  C   UNL     1      -0.898   4.515 -23.546  0.00  0.00    +0.012 A 
ATOM     10  C   UNL     1      -2.060   3.956 -23.386  0.00  0.00    +0.001 A 
ATOM     11  C   UNL     1      -2.140   2.738 -22.939  0.00  0.00    +0.001 A 
ATOM     12  C   UNL     1      -1.057   2.079 -22.653  0.00  0.00    +0.012 A 
ATOM     13  C   UNL     1       0.106   2.638 -22.814  0.00  0.00    +0.033 A 
ATOM     14  C   UNL     1       1.189   1.978 -22.528  0.00  0.00    +0.198 C 
ATOM     15  O   UNL     1       1.110   0.760 -22.081  0.00  0.00    -0.286 OA
ATOM     16  C   UNL     1       5.681   1.776 -22.277  0.00  0.00    +0.051 C 
ATOM     17  C   UNL     1       2.352   2.536 -22.688  0.00  0.00    +0.075 A 
ENDROOT
BRANCH   1  19
ATOM     18  C   UNL     1       3.806   0.370 -20.770  0.00  0.00    +0.277 C 
ATOM     19  O   UNL     1       3.356   0.659 -21.955  0.00  0.00    -0.494 OA
ENDBRANCH   1  19
BRANCH   3  20
ATOM     20  O   UNL     1       5.840   4.213 -23.170  0.00  0.00    -0.506 OA
ATOM     21  H   UNL     1       5.991   4.776 -23.904  0.00  0.00    +0.292 HD
ENDBRANCH   3  20
TORSDOF 2
ENDMDL
MODEL 7
REMARK VINA RESULT:    -8.541      2.915      5.204
REMARK INTER + INTRA:          -8.191
REMARK INTER:                  -9.324
REMARK INTRA:                   1.133
REMARK UNBOUND:                 1.099
REMARK  Name = ZINC000004104846
REMARK  4 active torsions:
REMARK  status: ('A' for Active; 'I' for Inactive)
REMARK    1  A    between atoms: C_1  and  O_2
REMARK    2  A    between atoms: O_2  and  C_3
REMARK    3  A    between atoms: C_4  and  C_5
REMARK    4  A    between atoms: C_6  and  O_7
REMARK                            x       y       z     vdW  Elec       q    Type
REMARK                         _______ _______ _______ _____ _____    ______ ____
ROOT
ATOM      1  C   UNL     1       4.510   3.684 -22.982  0.00  0.00    +0.138 A 
ATOM      2  C   UNL     1       5.383   2.744 -22.774  0.00  0.00    +0.033 A 
ATOM      3  C   UNL     1       4.986   1.533 -22.518  0.00  0.00    +0.124 A 
ATOM      4  C   UNL     1       3.715   1.262 -22.470  0.00  0.00    +0.058 A 
ATOM      5  C   UNL     1       2.842   2.202 -22.678  0.00  0.00    +0.040 A 
ATOM      6  C   UNL     1       1.571   1.930 -22.630  0.00  0.00    +0.195 C 
ATOM      7  O   UNL     1       1.174   0.719 -22.374  0.00  0.00    -0.287 OA
ATOM      8  C   UNL     1       0.697   2.870 -22.838  0.00  0.00    +0.033 A 
ATOM      9  C   UNL     1      -0.573   2.599 -22.790  0.00  0.00    +0.012 A 
ATOM     10  C   UNL     1      -1.446   3.539 -22.997  0.00  0.00    +0.001 A 
ATOM     11  C   UNL     1      -1.049   4.751 -23.253  0.00  0.00    +0.001 A 
ATOM     12  C   UNL     1       0.221   5.022 -23.301  0.00  0.00    +0.012 A 
ATOM     13  C   UNL     1       1.095   4.081 -23.093  0.00  0.00    +0.033 A 
ATOM     14  C   UNL     1       2.365   4.352 -23.141  0.00  0.00    +0.198 C 
ATOM     15  O   UNL     1       2.762   5.564 -23.397  0.00  0.00    -0.286 OA
ATOM     16  C   UNL     1       6.653   3.015 -22.822  0.00  0.00    +0.051 C 
ATOM     17  C   UNL     1       3.239   3.413 -22.934  0.00  0.00    +0.075 A 
ENDROOT
BRANCH   1  19
ATOM     18  C   UNL     1       5.697   5.510 -22.407  0.00  0.00    +0.277 C 
ATOM     19  O   UNL     1       4.907   4.895 -23.238  0.00  0.00    -0.494 OA
ENDBRANCH   1  19
BRANCH   3  20
ATOM     20  O   UNL     1       5.859   0.593 -22.310  0.00  0.00    -0.506 OA
ATOM     21  H   UNL     1       5.573  -0.270 -22.081  0.00  0.00    +0.292 HD
ENDBRANCH   3  20
TORSDOF 2
ENDMDL
MODEL 8
REMARK VINA RESULT:    -8.316      1.678      6.080
REMARK INTER + INTRA:          -7.946
REMARK INTER:                  -9.028
REMARK INTRA:                   1.082
REMARK UNBOUND:                 1.099
REMARK  Name = ZINC000004104846
REMARK  4 active torsions:
REMARK  status: ('A' for Active; 'I' for Inactive)
REMARK    1  A    between atoms: C_1  and  O_2
REMARK    2  A    between atoms: O_2  and  C_3
REMARK    3  A    between atoms: C_4  and  C_5
REMARK    4  A    between atoms: C_6  and  O_7
REMARK                            x       y       z     vdW  Elec       q    Type
REMARK                         _______ _______ _______ _____ _____    ______ ____
ROOT
ATOM      1  C   UNL     1      -0.874   3.319 -23.505  0.00  0.00    +0.138 A 
ATOM      2  C   UNL     1      -1.972   2.980 -22.897  0.00  0.00    +0.033 A 
ATOM      3  C   UNL     1      -1.919   2.273 -21.806  0.00  0.00    +0.124 A 
ATOM      4  C   UNL     1      -0.768   1.907 -21.324  0.00  0.00    +0.058 A 
ATOM      5  C   UNL     1       0.329   2.247 -21.933  0.00  0.00    +0.040 A 
ATOM      6  C   UNL     1       1.479   1.880 -21.450  0.00  0.00    +0.195 C 
ATOM      7  O   UNL     1       1.532   1.173 -20.360  0.00  0.00    -0.287 OA
ATOM      8  C   UNL     1       2.577   2.219 -22.058  0.00  0.00    +0.033 A 
ATOM      9  C   UNL     1       3.727   1.853 -21.576  0.00  0.00    +0.012 A 
ATOM     10  C   UNL     1       4.825   2.192 -22.184  0.00  0.00    +0.001 A 
ATOM     11  C   UNL     1       4.772   2.898 -23.275  0.00  0.00    +0.001 A 
ATOM     12  C   UNL     1       3.622   3.265 -23.757  0.00  0.00    +0.012 A 
ATOM     13  C   UNL     1       2.524   2.925 -23.148  0.00  0.00    +0.033 A 
ATOM     14  C   UNL     1       1.374   3.292 -23.630  0.00  0.00    +0.198 C 
ATOM     15  O   UNL     1       1.321   3.998 -24.721  0.00  0.00    -0.286 OA
ATOM     16  C   UNL     1      -3.122   3.346 -23.379  0.00  0.00    +0.051 C 
ATOM     17  C   UNL     1       0.276   2.953 -23.023  0.00  0.00    +0.075 A 
ENDROOT
BRANCH   1  19
ATOM     18  C   UNL     1      -1.514   3.546 -25.652  0.00  0.00    +0.277 C 
ATOM     19  O   UNL     1      -0.927   4.025 -24.595  0.00  0.00    -0.494 OA
ENDBRANCH   1  19
BRANCH   3  20
ATOM     20  O   UNL     1      -3.016   1.934 -21.198  0.00  0.00    -0.506 OA
ATOM     21  H   UNL     1      -3.845   2.207 -21.540  0.00  0.00    +0.292 HD
ENDBRANCH   3  20
TORSDOF 2
ENDMDL
MODEL 9
REMARK VINA RESULT:    -7.888      1.858      3.592
REMARK INTER + INTRA:          -7.481
REMARK INTER:                  -8.580
REMARK INTRA:                   1.099
REMARK UNBOUND:                 1.099
REMARK  Name = ZINC000004104846
REMARK  4 active torsions:
REMARK  status: ('A' for Active; 'I' for Inactive)
REMARK    1  A    between atoms: C_1  and  O_2
REMARK    2  A    between atoms: O_2  and  C_3
REMARK    3  A    between atoms: C_4  and  C_5
REMARK    4  A    between atoms: C_6  and  O_7
REMARK                            x       y       z     vdW  Elec       q    Type
REMARK                         _______ _______ _______ _____ _____    ______ ____
ROOT
ATOM      1  C   UNL     1       2.027   3.525 -23.248  0.00  0.00    +0.138 A 
ATOM      2  C   UNL     1       3.055   2.743 -23.099  0.00  0.00    +0.033 A 
ATOM      3  C   UNL     1       2.916   1.592 -22.511  0.00  0.00    +0.124 A 
ATOM      4  C   UNL     1       1.749   1.224 -22.071  0.00  0.00    +0.058 A 
ATOM      5  C   UNL     1       0.721   2.006 -22.220  0.00  0.00    +0.040 A 
ATOM      6  C   UNL     1      -0.445   1.636 -21.780  0.00  0.00    +0.195 C 
ATOM      7  O   UNL     1      -0.584   0.485 -21.192  0.00  0.00    -0.287 OA
ATOM      8  C   UNL     1      -1.473   2.418 -21.929  0.00  0.00    +0.033 A 
ATOM      9  C   UNL     1      -2.640   2.049 -21.490  0.00  0.00    +0.012 A 
ATOM     10  C   UNL     1      -3.667   2.831 -21.639  0.00  0.00    +0.001 A 
ATOM     11  C   UNL     1      -3.528   3.982 -22.227  0.00  0.00    +0.001 A 
ATOM     12  C   UNL     1      -2.362   4.351 -22.667  0.00  0.00    +0.012 A 
ATOM     13  C   UNL     1      -1.334   3.569 -22.518  0.00  0.00    +0.033 A 
ATOM     14  C   UNL     1      -0.168   3.938 -22.957  0.00  0.00    +0.198 C 
ATOM     15  O   UNL     1      -0.029   5.089 -23.546  0.00  0.00    -0.286 OA
ATOM     16  C   UNL     1       4.221   3.112 -23.539  0.00  0.00    +0.051 C 
ATOM     17  C   UNL     1       0.860   3.157 -22.809  0.00  0.00    +0.075 A 
ENDROOT
BRANCH   1  19
ATOM     18  C   UNL     1       2.741   5.661 -23.211  0.00  0.00    +0.277 C 
ATOM     19  O   UNL     1       2.166   4.676 -23.837  0.00  0.00    -0.494 OA
ENDBRANCH   1  19
BRANCH   3  20
ATOM     20  O   UNL     1       3.943   0.810 -22.362  0.00  0.00    -0.506 OA
ATOM     21  H   UNL     1       4.598   0.764 -23.031  0.00  0.00    +0.292 HD
ENDBRANCH   3  20
TORSDOF 2
ENDMDL
