MODEL 1
REMARK VINA RESULT:    -9.039      0.000      0.000
REMARK INTER + INTRA:         -15.760
REMARK INTER:                 -14.361
REMARK INTRA:                  -1.399
REMARK UNBOUND:                -0.908
REMARK  Name = ZINC000085340970
REMARK  13 active torsions:
REMARK  status: ('A' for Active; 'I' for Inactive)
REMARK    1  A    between atoms: C_1  and  C_2
REMARK    2  A    between atoms: C_2  and  C_3
REMARK    3  A    between atoms: C_3  and  C_4
REMARK    4  A    between atoms: C_4  and  C_5
REMARK    5  A    between atoms: C_5  and  C_6
REMARK    6  A    between atoms: C_6  and  C_7
REMARK    7  A    between atoms: C_7  and  C_8
REMARK    8  A    between atoms: C_8  and  C_9
REMARK    9  A    between atoms: C_9  and  C_10
REMARK   10  A    between atoms: C_10  and  C_11
REMARK   11  A    between atoms: C_11  and  C_12
REMARK   12  A    between atoms: C_13  and  O_14
REMARK   13  A    between atoms: C_15  and  O_16
REMARK                            x       y       z     vdW  Elec       q    Type
REMARK                         _______ _______ _______ _____ _____    ______ ____
ROOT
ATOM      1  C   UNL     1       2.110   3.776 -23.997  0.00  0.00    +0.025 A 
ATOM      2  C   UNL     1       2.219   2.566 -24.460  0.00  0.00    +0.164 A 
ATOM      3  C   UNL     1       3.361   1.949 -24.411  0.00  0.00    +0.161 A 
ATOM      4  C   UNL     1       4.397   2.542 -23.897  0.00  0.00    +0.079 A 
ATOM      5  C   UNL     1       4.292   3.751 -23.433  0.00  0.00    +0.094 A 
ATOM      6  N   UNL     1       5.329   4.343 -22.920  0.00  0.00    -0.243 NA
ATOM      7  C   UNL     1       5.224   5.553 -22.456  0.00  0.00    +0.091 A 
ATOM      8  C   UNL     1       6.260   6.144 -21.943  0.00  0.00    +0.051 A 
ATOM      9  C   UNL     1       6.157   7.354 -21.478  0.00  0.00    +0.061 A 
ATOM     10  C   UNL     1       5.013   7.971 -21.528  0.00  0.00    +0.061 A 
ATOM     11  C   UNL     1       3.976   7.381 -22.041  0.00  0.00    +0.051 A 
ATOM     12 CL   UNL     1       4.908   9.182 -21.063  0.00  0.00    -0.082 Cl
ATOM     13 CL   UNL     1       7.193   7.945 -20.966  0.00  0.00    -0.082 Cl
ATOM     14  C   UNL     1       4.081   6.169 -22.506  0.00  0.00    +0.091 A 
ATOM     15  N   UNL     1       3.043   5.578 -23.019  0.00  0.00    -0.243 NA
ATOM     16  C   UNL     1       3.148   4.369 -23.483  0.00  0.00    +0.097 A 
ENDROOT
BRANCH   2  17
ATOM     17  O   UNL     1       1.181   1.973 -24.974  0.00  0.00    -0.503 OA
ATOM     18  H   UNL     1       1.027   1.065 -24.803  0.00  0.00    +0.292 HD
ENDBRANCH   2  17
BRANCH   3  19
ATOM     19  O   UNL     1       3.467   0.740 -24.874  0.00  0.00    -0.503 OA
ATOM     20  H   UNL     1       3.622   0.025 -24.289  0.00  0.00    +0.292 HD
ENDBRANCH   3  19
BRANCH   1  21
ATOM     21  C   UNL     1       0.969   4.393 -24.046  0.00  0.00    +0.041 C 
BRANCH  21  22
ATOM     22  C   UNL     1       0.104   4.239 -23.087  0.00  0.00    +0.005 C 
BRANCH  22  23
ATOM     23  C   UNL     1      -1.149   4.522 -23.289  0.00  0.00    +0.000 C 
BRANCH  23  24
ATOM     24  C   UNL     1      -1.732   4.144 -24.388  0.00  0.00    +0.000 C 
BRANCH  24  25
ATOM     25  C   UNL     1      -2.994   4.395 -24.574  0.00  0.00    +0.000 C 
BRANCH  25  26
ATOM     26  C   UNL     1      -3.884   3.484 -24.313  0.00  0.00    +0.000 C 
BRANCH  26  27
ATOM     27  C   UNL     1      -4.900   3.767 -23.555  0.00  0.00    -0.000 C 
BRANCH  27  28
ATOM     28  C   UNL     1      -4.790   3.686 -22.262  0.00  0.00    -0.000 C 
BRANCH  28  29
ATOM     29  C   UNL     1      -4.246   2.637 -21.720  0.00  0.00    -0.000 C 
BRANCH  29  31
ATOM     30  C   UNL     1      -3.150   3.900 -20.214  0.00  0.00    +0.004 C 
ATOM     31  C   UNL     1      -3.293   2.775 -20.849  0.00  0.00    -0.003 C 
ENDBRANCH  29  31
ENDBRANCH  28  29
ENDBRANCH  27  28
ENDBRANCH  26  27
ENDBRANCH  25  26
ENDBRANCH  24  25
ENDBRANCH  23  24
ENDBRANCH  22  23
ENDBRANCH  21  22
ENDBRANCH   1  21
TORSDOF 12
ENDMDL
MODEL 2
REMARK VINA RESULT:    -9.035      3.636      5.936
REMARK INTER + INTRA:         -15.753
REMARK INTER:                 -13.553
REMARK INTRA:                  -2.200
REMARK UNBOUND:                -0.908
REMARK  Name = ZINC000085340970
REMARK  13 active torsions:
REMARK  status: ('A' for Active; 'I' for Inactive)
REMARK    1  A    between atoms: C_1  and  C_2
REMARK    2  A    between atoms: C_2  and  C_3
REMARK    3  A    between atoms: C_3  and  C_4
REMARK    4  A    between atoms: C_4  and  C_5
REMARK    5  A    between atoms: C_5  and  C_6
REMARK    6  A    between atoms: C_6  and  C_7
REMARK    7  A    between atoms: C_7  and  C_8
REMARK    8  A    between atoms: C_8  and  C_9
REMARK    9  A    between atoms: C_9  and  C_10
REMARK   10  A    between atoms: C_10  and  C_11
REMARK   11  A    between atoms: C_11  and  C_12
REMARK   12  A    between atoms: C_13  and  O_14
REMARK   13  A    between atoms: C_15  and  O_16
REMARK                            x       y       z     vdW  Elec       q    Type
REMARK                         _______ _______ _______ _____ _____    ______ ____
ROOT
ATOM      1  C   UNL     1       3.233   3.275 -23.922  0.00  0.00    +0.025 A 
ATOM      2  C   UNL     1       4.189   4.002 -23.424  0.00  0.00    +0.164 A 
ATOM      3  C   UNL     1       3.933   5.189 -22.963  0.00  0.00    +0.161 A 
ATOM      4  C   UNL     1       2.719   5.652 -22.999  0.00  0.00    +0.079 A 
ATOM      5  C   UNL     1       1.761   4.927 -23.496  0.00  0.00    +0.094 A 
ATOM      6  N   UNL     1       0.547   5.390 -23.531  0.00  0.00    -0.243 NA
ATOM      7  C   UNL     1      -0.411   4.667 -24.028  0.00  0.00    +0.091 A 
ATOM      8  C   UNL     1      -1.624   5.130 -24.063  0.00  0.00    +0.051 A 
ATOM      9  C   UNL     1      -2.584   4.407 -24.560  0.00  0.00    +0.061 A 
ATOM     10  C   UNL     1      -2.326   3.218 -25.022  0.00  0.00    +0.061 A 
ATOM     11  C   UNL     1      -1.114   2.754 -24.987  0.00  0.00    +0.051 A 
ATOM     12 CL   UNL     1      -3.286   2.494 -25.520  0.00  0.00    -0.082 Cl
ATOM     13 CL   UNL     1      -3.796   4.870 -24.596  0.00  0.00    -0.082 Cl
ATOM     14  C   UNL     1      -0.154   3.479 -24.490  0.00  0.00    +0.091 A 
ATOM     15  N   UNL     1       1.060   3.014 -24.455  0.00  0.00    -0.243 NA
ATOM     16  C   UNL     1       2.017   3.739 -23.958  0.00  0.00    +0.097 A 
ENDROOT
BRANCH   2  17
ATOM     17  O   UNL     1       5.404   3.538 -23.389  0.00  0.00    -0.503 OA
ATOM     18  H   UNL     1       5.840   3.304 -24.184  0.00  0.00    +0.292 HD
ENDBRANCH   2  17
BRANCH   3  19
ATOM     19  O   UNL     1       4.890   5.914 -22.466  0.00  0.00    -0.503 OA
ATOM     20  H   UNL     1       4.903   6.839 -22.614  0.00  0.00    +0.292 HD
ENDBRANCH   3  19
BRANCH   1  21
ATOM     21  C   UNL     1       3.488   2.088 -24.383  0.00  0.00    +0.041 C 
BRANCH  21  22
ATOM     22  C   UNL     1       3.869   1.144 -23.575  0.00  0.00    +0.005 C 
BRANCH  22  23
ATOM     23  C   UNL     1       2.998   0.544 -22.818  0.00  0.00    +0.000 C 
BRANCH  23  24
ATOM     24  C   UNL     1       2.920   0.842 -21.555  0.00  0.00    +0.000 C 
BRANCH  24  25
ATOM     25  C   UNL     1       1.861   1.439 -21.093  0.00  0.00    +0.000 C 
BRANCH  25  26
ATOM     26  C   UNL     1       0.695   1.188 -21.610  0.00  0.00    +0.000 C 
BRANCH  26  27
ATOM     27  C   UNL     1      -0.333   1.910 -21.275  0.00  0.00    -0.000 C 
BRANCH  27  28
ATOM     28  C   UNL     1      -1.516   1.601 -21.718  0.00  0.00    -0.000 C 
BRANCH  28  29
ATOM     29  C   UNL     1      -2.542   2.328 -21.391  0.00  0.00    -0.000 C 
BRANCH  29  31
ATOM     30  C   UNL     1      -3.321   4.118 -20.270  0.00  0.00    +0.004 C 
ATOM     31  C   UNL     1      -2.367   3.530 -20.929  0.00  0.00    -0.003 C 
ENDBRANCH  29  31
ENDBRANCH  28  29
ENDBRANCH  27  28
ENDBRANCH  26  27
ENDBRANCH  25  26
ENDBRANCH  24  25
ENDBRANCH  23  24
ENDBRANCH  22  23
ENDBRANCH  21  22
ENDBRANCH   1  21
TORSDOF 12
ENDMDL
MODEL 3
REMARK VINA RESULT:    -8.764      0.731      1.797
REMARK INTER + INTRA:         -15.308
REMARK INTER:                 -14.154
REMARK INTRA:                  -1.154
REMARK UNBOUND:                -0.908
REMARK  Name = ZINC000085340970
REMARK  13 active torsions:
REMARK  status: ('A' for Active; 'I' for Inactive)
REMARK    1  A    between atoms: C_1  and  C_2
REMARK    2  A    between atoms: C_2  and  C_3
REMARK    3  A    between atoms: C_3  and  C_4
REMARK    4  A    between atoms: C_4  and  C_5
REMARK    5  A    between atoms: C_5  and  C_6
REMARK    6  A    between atoms: C_6  and  C_7
REMARK    7  A    between atoms: C_7  and  C_8
REMARK    8  A    between atoms: C_8  and  C_9
REMARK    9  A    between atoms: C_9  and  C_10
REMARK   10  A    between atoms: C_10  and  C_11
REMARK   11  A    between atoms: C_11  and  C_12
REMARK   12  A    between atoms: C_13  and  O_14
REMARK   13  A    between atoms: C_15  and  O_16
REMARK                            x       y       z     vdW  Elec       q    Type
REMARK                         _______ _______ _______ _____ _____    ______ ____
ROOT
ATOM      1  C   UNL     1       1.882   3.885 -24.002  0.00  0.00    +0.025 A 
ATOM      2  C   UNL     1       1.808   2.687 -24.501  0.00  0.00    +0.164 A 
ATOM      3  C   UNL     1       2.860   1.924 -24.527  0.00  0.00    +0.161 A 
ATOM      4  C   UNL     1       3.989   2.360 -24.052  0.00  0.00    +0.079 A 
ATOM      5  C   UNL     1       4.066   3.557 -23.553  0.00  0.00    +0.094 A 
ATOM      6  N   UNL     1       5.196   3.992 -23.079  0.00  0.00    -0.243 NA
ATOM      7  C   UNL     1       5.275   5.189 -22.579  0.00  0.00    +0.091 A 
ATOM      8  C   UNL     1       6.403   5.622 -22.106  0.00  0.00    +0.051 A 
ATOM      9  C   UNL     1       6.483   6.820 -21.606  0.00  0.00    +0.061 A 
ATOM     10  C   UNL     1       5.430   7.583 -21.581  0.00  0.00    +0.061 A 
ATOM     11  C   UNL     1       4.300   7.150 -22.054  0.00  0.00    +0.051 A 
ATOM     12 CL   UNL     1       5.509   8.781 -21.080  0.00  0.00    -0.082 Cl
ATOM     13 CL   UNL     1       7.611   7.254 -21.133  0.00  0.00    -0.082 Cl
ATOM     14  C   UNL     1       4.222   5.951 -22.554  0.00  0.00    +0.091 A 
ATOM     15  N   UNL     1       3.091   5.517 -23.028  0.00  0.00    -0.243 NA
ATOM     16  C   UNL     1       3.013   4.320 -23.527  0.00  0.00    +0.097 A 
ENDROOT
BRANCH   2  17
ATOM     17  O   UNL     1       0.677   2.252 -24.975  0.00  0.00    -0.503 OA
ATOM     18  H   UNL     1       0.219   2.747 -25.625  0.00  0.00    +0.292 HD
ENDBRANCH   2  17
BRANCH   3  19
ATOM     19  O   UNL     1       2.783   0.727 -25.026  0.00  0.00    -0.503 OA
ATOM     20  H   UNL     1       3.150   0.001 -24.561  0.00  0.00    +0.292 HD
ENDBRANCH   3  19
BRANCH   1  21
ATOM     21  C   UNL     1       0.832   4.647 -23.976  0.00  0.00    +0.041 C 
BRANCH  21  22
ATOM     22  C   UNL     1       0.136   4.760 -22.882  0.00  0.00    +0.005 C 
BRANCH  22  23
ATOM     23  C   UNL     1      -1.159   4.650 -22.921  0.00  0.00    +0.000 C 
BRANCH  23  24
ATOM     24  C   UNL     1      -1.740   3.625 -22.372  0.00  0.00    +0.000 C 
BRANCH  24  25
ATOM     25  C   UNL     1      -2.448   3.780 -21.292  0.00  0.00    +0.000 C 
BRANCH  25  26
ATOM     26  C   UNL     1      -3.724   3.532 -21.310  0.00  0.00    +0.000 C 
BRANCH  26  27
ATOM     27  C   UNL     1      -4.276   3.043 -22.380  0.00  0.00    -0.000 C 
BRANCH  27  28
ATOM     28  C   UNL     1      -5.249   3.682 -22.960  0.00  0.00    -0.000 C 
BRANCH  28  29
ATOM     29  C   UNL     1      -5.260   3.816 -24.252  0.00  0.00    -0.000 C 
BRANCH  29  31
ATOM     30  C   UNL     1      -3.673   3.956 -25.842  0.00  0.00    +0.004 C 
ATOM     31  C   UNL     1      -4.316   4.484 -24.845  0.00  0.00    -0.003 C 
ENDBRANCH  29  31
ENDBRANCH  28  29
ENDBRANCH  27  28
ENDBRANCH  26  27
ENDBRANCH  25  26
ENDBRANCH  24  25
ENDBRANCH  23  24
ENDBRANCH  22  23
ENDBRANCH  21  22
ENDBRANCH   1  21
TORSDOF 12
ENDMDL
MODEL 4
REMARK VINA RESULT:    -8.544      1.651      2.600
REMARK INTER + INTRA:         -14.946
REMARK INTER:                 -12.916
REMARK INTRA:                  -2.029
REMARK UNBOUND:                -0.908
REMARK  Name = ZINC000085340970
REMARK  13 active torsions:
REMARK  status: ('A' for Active; 'I' for Inactive)
REMARK    1  A    between atoms: C_1  and  C_2
REMARK    2  A    between atoms: C_2  and  C_3
REMARK    3  A    between atoms: C_3  and  C_4
REMARK    4  A    between atoms: C_4  and  C_5
REMARK    5  A    between atoms: C_5  and  C_6
REMARK    6  A    between atoms: C_6  and  C_7
REMARK    7  A    between atoms: C_7  and  C_8
REMARK    8  A    between atoms: C_8  and  C_9
REMARK    9  A    between atoms: C_9  and  C_10
REMARK   10  A    between atoms: C_10  and  C_11
REMARK   11  A    between atoms: C_11  and  C_12
REMARK   12  A    between atoms: C_13  and  O_14
REMARK   13  A    between atoms: C_15  and  O_16
REMARK                            x       y       z     vdW  Elec       q    Type
REMARK                         _______ _______ _______ _____ _____    ______ ____
ROOT
ATOM      1  C   UNL     1       2.458   3.628 -24.204  0.00  0.00    +0.025 A 
ATOM      2  C   UNL     1       2.153   2.471 -24.711  0.00  0.00    +0.164 A 
ATOM      3  C   UNL     1       3.010   1.495 -24.676  0.00  0.00    +0.161 A 
ATOM      4  C   UNL     1       4.177   1.677 -24.133  0.00  0.00    +0.079 A 
ATOM      5  C   UNL     1       4.486   2.832 -23.624  0.00  0.00    +0.094 A 
ATOM      6  N   UNL     1       5.653   3.013 -23.081  0.00  0.00    -0.243 NA
ATOM      7  C   UNL     1       5.962   4.168 -22.572  0.00  0.00    +0.091 A 
ATOM      8  C   UNL     1       7.128   4.348 -22.030  0.00  0.00    +0.051 A 
ATOM      9  C   UNL     1       7.439   5.503 -21.521  0.00  0.00    +0.061 A 
ATOM     10  C   UNL     1       6.579   6.479 -21.556  0.00  0.00    +0.061 A 
ATOM     11  C   UNL     1       5.413   6.300 -22.099  0.00  0.00    +0.051 A 
ATOM     12 CL   UNL     1       6.890   7.635 -21.047  0.00  0.00    -0.082 Cl
ATOM     13 CL   UNL     1       8.605   5.683 -20.978  0.00  0.00    -0.082 Cl
ATOM     14  C   UNL     1       5.103   5.143 -22.608  0.00  0.00    +0.091 A 
ATOM     15  N   UNL     1       3.935   4.964 -23.151  0.00  0.00    -0.243 NA
ATOM     16  C   UNL     1       3.627   3.809 -23.659  0.00  0.00    +0.097 A 
ENDROOT
BRANCH   2  17
ATOM     17  O   UNL     1       0.985   2.290 -25.255  0.00  0.00    -0.503 OA
ATOM     18  H   UNL     1       0.231   2.721 -24.903  0.00  0.00    +0.292 HD
ENDBRANCH   2  17
BRANCH   3  19
ATOM     19  O   UNL     1       2.703   0.340 -25.184  0.00  0.00    -0.503 OA
ATOM     20  H   UNL     1       2.389   0.284 -26.065  0.00  0.00    +0.292 HD
ENDBRANCH   3  19
BRANCH   1  21
ATOM     21  C   UNL     1       1.601   4.603 -24.238  0.00  0.00    +0.041 C 
BRANCH  21  22
ATOM     22  C   UNL     1       0.808   4.808 -23.228  0.00  0.00    +0.005 C 
BRANCH  22  23
ATOM     23  C   UNL     1      -0.476   4.898 -23.416  0.00  0.00    +0.000 C 
BRANCH  23  24
ATOM     24  C   UNL     1      -1.281   4.938 -22.396  0.00  0.00    +0.000 C 
BRANCH  24  25
ATOM     25  C   UNL     1      -2.164   3.999 -22.229  0.00  0.00    +0.000 C 
BRANCH  25  26
ATOM     26  C   UNL     1      -2.011   3.123 -21.280  0.00  0.00    +0.000 C 
BRANCH  26  27
ATOM     27  C   UNL     1      -1.794   1.877 -21.575  0.00  0.00    -0.000 C 
BRANCH  27  28
ATOM     28  C   UNL     1      -0.604   1.490 -21.933  0.00  0.00    -0.000 C 
BRANCH  28  29
ATOM     29  C   UNL     1       0.416   1.736 -21.166  0.00  0.00    -0.000 C 
BRANCH  29  31
ATOM     30  C   UNL     1       2.609   1.514 -20.709  0.00  0.00    +0.004 C 
ATOM     31  C   UNL     1       1.590   1.273 -21.478  0.00  0.00    -0.003 C 
ENDBRANCH  29  31
ENDBRANCH  28  29
ENDBRANCH  27  28
ENDBRANCH  26  27
ENDBRANCH  25  26
ENDBRANCH  24  25
ENDBRANCH  23  24
ENDBRANCH  22  23
ENDBRANCH  21  22
ENDBRANCH   1  21
TORSDOF 12
ENDMDL
MODEL 5
REMARK VINA RESULT:    -8.456      2.879      4.094
REMARK INTER + INTRA:         -14.802
REMARK INTER:                 -14.392
REMARK INTRA:                  -0.410
REMARK UNBOUND:                -0.908
REMARK  Name = ZINC000085340970
REMARK  13 active torsions:
REMARK  status: ('A' for Active; 'I' for Inactive)
REMARK    1  A    between atoms: C_1  and  C_2
REMARK    2  A    between atoms: C_2  and  C_3
REMARK    3  A    between atoms: C_3  and  C_4
REMARK    4  A    between atoms: C_4  and  C_5
REMARK    5  A    between atoms: C_5  and  C_6
REMARK    6  A    between atoms: C_6  and  C_7
REMARK    7  A    between atoms: C_7  and  C_8
REMARK    8  A    between atoms: C_8  and  C_9
REMARK    9  A    between atoms: C_9  and  C_10
REMARK   10  A    between atoms: C_10  and  C_11
REMARK   11  A    between atoms: C_11  and  C_12
REMARK   12  A    between atoms: C_13  and  O_14
REMARK   13  A    between atoms: C_15  and  O_16
REMARK                            x       y       z     vdW  Elec       q    Type
REMARK                         _______ _______ _______ _____ _____    ______ ____
ROOT
ATOM      1  C   UNL     1      -0.297   2.220 -23.260  0.00  0.00    +0.025 A 
ATOM      2  C   UNL     1      -1.054   2.565 -24.258  0.00  0.00    +0.164 A 
ATOM      3  C   UNL     1      -0.546   3.192 -25.277  0.00  0.00    +0.161 A 
ATOM      4  C   UNL     1       0.723   3.475 -25.298  0.00  0.00    +0.079 A 
ATOM      5  C   UNL     1       1.482   3.131 -24.302  0.00  0.00    +0.094 A 
ATOM      6  N   UNL     1       2.751   3.413 -24.324  0.00  0.00    -0.243 NA
ATOM      7  C   UNL     1       3.512   3.070 -23.328  0.00  0.00    +0.091 A 
ATOM      8  C   UNL     1       4.779   3.352 -23.350  0.00  0.00    +0.051 A 
ATOM      9  C   UNL     1       5.541   3.009 -22.354  0.00  0.00    +0.061 A 
ATOM     10  C   UNL     1       5.032   2.382 -21.335  0.00  0.00    +0.061 A 
ATOM     11  C   UNL     1       3.764   2.099 -21.312  0.00  0.00    +0.051 A 
ATOM     12 CL   UNL     1       5.793   2.038 -20.338  0.00  0.00    -0.082 Cl
ATOM     13 CL   UNL     1       6.808   3.292 -22.377  0.00  0.00    -0.082 Cl
ATOM     14  C   UNL     1       3.002   2.443 -22.310  0.00  0.00    +0.091 A 
ATOM     15  N   UNL     1       1.734   2.159 -22.286  0.00  0.00    -0.243 NA
ATOM     16  C   UNL     1       0.974   2.503 -23.282  0.00  0.00    +0.097 A 
ENDROOT
BRANCH   2  17
ATOM     17  O   UNL     1      -2.324   2.282 -24.236  0.00  0.00    -0.503 OA
ATOM     18  H   UNL     1      -2.656   1.667 -23.613  0.00  0.00    +0.292 HD
ENDBRANCH   2  17
BRANCH   3  19
ATOM     19  O   UNL     1      -1.305   3.536 -26.274  0.00  0.00    -0.503 OA
ATOM     20  H   UNL     1      -1.478   2.927 -26.964  0.00  0.00    +0.292 HD
ENDBRANCH   3  19
BRANCH   1  21
ATOM     21  C   UNL     1      -0.804   1.594 -22.242  0.00  0.00    +0.041 C 
BRANCH  21  22
ATOM     22  C   UNL     1      -1.142   2.255 -21.174  0.00  0.00    +0.005 C 
BRANCH  22  23
ATOM     23  C   UNL     1      -1.929   3.286 -21.269  0.00  0.00    +0.000 C 
BRANCH  23  24
ATOM     24  C   UNL     1      -3.057   3.304 -20.624  0.00  0.00    +0.000 C 
BRANCH  24  25
ATOM     25  C   UNL     1      -3.952   2.389 -20.854  0.00  0.00    +0.000 C 
BRANCH  25  26
ATOM     26  C   UNL     1      -5.098   2.717 -21.373  0.00  0.00    +0.000 C 
BRANCH  26  27
ATOM     27  C   UNL     1      -5.175   3.717 -22.200  0.00  0.00    -0.000 C 
BRANCH  27  28
ATOM     28  C   UNL     1      -5.302   3.497 -23.476  0.00  0.00    -0.000 C 
BRANCH  28  29
ATOM     29  C   UNL     1      -5.149   4.472 -24.322  0.00  0.00    -0.000 C 
BRANCH  29  31
ATOM     30  C   UNL     1      -4.804   3.150 -26.111  0.00  0.00    +0.004 C 
ATOM     31  C   UNL     1      -4.574   4.255 -25.466  0.00  0.00    -0.003 C 
ENDBRANCH  29  31
ENDBRANCH  28  29
ENDBRANCH  27  28
ENDBRANCH  26  27
ENDBRANCH  25  26
ENDBRANCH  24  25
ENDBRANCH  23  24
ENDBRANCH  22  23
ENDBRANCH  21  22
ENDBRANCH   1  21
TORSDOF 12
ENDMDL
MODEL 6
REMARK VINA RESULT:    -7.980      3.489      7.711
REMARK INTER + INTRA:         -14.020
REMARK INTER:                 -12.450
REMARK INTRA:                  -1.570
REMARK UNBOUND:                -0.908
REMARK  Name = ZINC000085340970
REMARK  13 active torsions:
REMARK  status: ('A' for Active; 'I' for Inactive)
REMARK    1  A    between atoms: C_1  and  C_2
REMARK    2  A    between atoms: C_2  and  C_3
REMARK    3  A    between atoms: C_3  and  C_4
REMARK    4  A    between atoms: C_4  and  C_5
REMARK    5  A    between atoms: C_5  and  C_6
REMARK    6  A    between atoms: C_6  and  C_7
REMARK    7  A    between atoms: C_7  and  C_8
REMARK    8  A    between atoms: C_8  and  C_9
REMARK    9  A    between atoms: C_9  and  C_10
REMARK   10  A    between atoms: C_10  and  C_11
REMARK   11  A    between atoms: C_11  and  C_12
REMARK   12  A    between atoms: C_13  and  O_14
REMARK   13  A    between atoms: C_15  and  O_16
REMARK                            x       y       z     vdW  Elec       q    Type
REMARK                         _______ _______ _______ _____ _____    ______ ____
ROOT
ATOM      1  C   UNL     1       4.371   2.054 -22.638  0.00  0.00    +0.025 A 
ATOM      2  C   UNL     1       5.217   1.291 -22.013  0.00  0.00    +0.164 A 
ATOM      3  C   UNL     1       4.804   0.480 -21.085  0.00  0.00    +0.161 A 
ATOM      4  C   UNL     1       3.541   0.432 -20.782  0.00  0.00    +0.079 A 
ATOM      5  C   UNL     1       2.692   1.194 -21.405  0.00  0.00    +0.094 A 
ATOM      6  N   UNL     1       1.429   1.145 -21.100  0.00  0.00    -0.243 NA
ATOM      7  C   UNL     1       0.580   1.907 -21.723  0.00  0.00    +0.091 A 
ATOM      8  C   UNL     1      -0.681   1.858 -21.419  0.00  0.00    +0.051 A 
ATOM      9  C   UNL     1      -1.533   2.619 -22.041  0.00  0.00    +0.061 A 
ATOM     10  C   UNL     1      -1.117   3.430 -22.969  0.00  0.00    +0.061 A 
ATOM     11  C   UNL     1       0.144   3.480 -23.275  0.00  0.00    +0.051 A 
ATOM     12 CL   UNL     1      -1.968   4.192 -23.593  0.00  0.00    -0.082 Cl
ATOM     13 CL   UNL     1      -2.793   2.570 -21.736  0.00  0.00    -0.082 Cl
ATOM     14  C   UNL     1       0.995   2.717 -22.651  0.00  0.00    +0.091 A 
ATOM     15  N   UNL     1       2.258   2.767 -22.957  0.00  0.00    -0.243 NA
ATOM     16  C   UNL     1       3.106   2.005 -22.334  0.00  0.00    +0.097 A 
ENDROOT
BRANCH   2  17
ATOM     17  O   UNL     1       6.481   1.339 -22.318  0.00  0.00    -0.503 OA
ATOM     18  H   UNL     1       7.022   2.018 -21.966  0.00  0.00    +0.292 HD
ENDBRANCH   2  17
BRANCH   3  19
ATOM     19  O   UNL     1       5.651  -0.281 -20.462  0.00  0.00    -0.503 OA
ATOM     20  H   UNL     1       5.932  -0.060 -19.596  0.00  0.00    +0.292 HD
ENDBRANCH   3  19
BRANCH   1  21
ATOM     21  C   UNL     1       4.783   2.864 -23.565  0.00  0.00    +0.041 C 
BRANCH  21  22
ATOM     22  C   UNL     1       5.135   4.078 -23.259  0.00  0.00    +0.005 C 
BRANCH  22  23
ATOM     23  C   UNL     1       6.328   4.504 -23.552  0.00  0.00    +0.000 C 
BRANCH  23  24
ATOM     24  C   UNL     1       7.214   4.651 -22.612  0.00  0.00    +0.000 C 
BRANCH  24  25
ATOM     25  C   UNL     1       6.834   4.790 -21.377  0.00  0.00    +0.000 C 
BRANCH  25  26
ATOM     26  C   UNL     1       7.568   5.463 -20.542  0.00  0.00    +0.000 C 
BRANCH  26  27
ATOM     27  C   UNL     1       7.346   6.730 -20.356  0.00  0.00    -0.000 C 
BRANCH  27  28
ATOM     28  C   UNL     1       6.128   7.187 -20.382  0.00  0.00    -0.000 C 
BRANCH  28  29
ATOM     29  C   UNL     1       5.872   8.320 -20.967  0.00  0.00    -0.000 C 
BRANCH  29  31
ATOM     30  C   UNL     1       4.122   7.408 -22.050  0.00  0.00    +0.004 C 
ATOM     31  C   UNL     1       4.788   8.457 -21.670  0.00  0.00    -0.003 C 
ENDBRANCH  29  31
ENDBRANCH  28  29
ENDBRANCH  27  28
ENDBRANCH  26  27
ENDBRANCH  25  26
ENDBRANCH  24  25
ENDBRANCH  23  24
ENDBRANCH  22  23
ENDBRANCH  21  22
ENDBRANCH   1  21
TORSDOF 12
ENDMDL
MODEL 7
REMARK VINA RESULT:    -7.690      4.091      7.828
REMARK INTER + INTRA:         -13.544
REMARK INTER:                 -11.429
REMARK INTRA:                  -2.115
REMARK UNBOUND:                -0.908
REMARK  Name = ZINC000085340970
REMARK  13 active torsions:
REMARK  status: ('A' for Active; 'I' for Inactive)
REMARK    1  A    between atoms: C_1  and  C_2
REMARK    2  A    between atoms: C_2  and  C_3
REMARK    3  A    between atoms: C_3  and  C_4
REMARK    4  A    between atoms: C_4  and  C_5
REMARK    5  A    between atoms: C_5  and  C_6
REMARK    6  A    between atoms: C_6  and  C_7
REMARK    7  A    between atoms: C_7  and  C_8
REMARK    8  A    between atoms: C_8  and  C_9
REMARK    9  A    between atoms: C_9  and  C_10
REMARK   10  A    between atoms: C_10  and  C_11
REMARK   11  A    between atoms: C_11  and  C_12
REMARK   12  A    between atoms: C_13  and  O_14
REMARK   13  A    between atoms: C_15  and  O_16
REMARK                            x       y       z     vdW  Elec       q    Type
REMARK                         _______ _______ _______ _____ _____    ______ ____
ROOT
ATOM      1  C   UNL     1       1.096   1.771 -23.227  0.00  0.00    +0.025 A 
ATOM      2  C   UNL     1       1.891   1.988 -24.231  0.00  0.00    +0.164 A 
ATOM      3  C   UNL     1       1.461   2.624 -25.280  0.00  0.00    +0.161 A 
ATOM      4  C   UNL     1       0.232   3.044 -25.324  0.00  0.00    +0.079 A 
ATOM      5  C   UNL     1      -0.566   2.829 -24.321  0.00  0.00    +0.094 A 
ATOM      6  N   UNL     1      -1.795   3.250 -24.366  0.00  0.00    -0.243 NA
ATOM      7  C   UNL     1      -2.594   3.035 -23.364  0.00  0.00    +0.091 A 
ATOM      8  C   UNL     1      -3.821   3.455 -23.409  0.00  0.00    +0.051 A 
ATOM      9  C   UNL     1      -4.622   3.240 -22.407  0.00  0.00    +0.061 A 
ATOM     10  C   UNL     1      -4.190   2.604 -21.358  0.00  0.00    +0.061 A 
ATOM     11  C   UNL     1      -2.962   2.182 -21.312  0.00  0.00    +0.051 A 
ATOM     12 CL   UNL     1      -4.990   2.388 -20.355  0.00  0.00    -0.082 Cl
ATOM     13 CL   UNL     1      -5.849   3.661 -22.453  0.00  0.00    -0.082 Cl
ATOM     14  C   UNL     1      -2.162   2.398 -22.316  0.00  0.00    +0.091 A 
ATOM     15  N   UNL     1      -0.933   1.977 -22.269  0.00  0.00    -0.243 NA
ATOM     16  C   UNL     1      -0.135   2.192 -23.272  0.00  0.00    +0.097 A 
ENDROOT
BRANCH   2  17
ATOM     17  O   UNL     1       3.122   1.567 -24.186  0.00  0.00    -0.503 OA
ATOM     18  H   UNL     1       3.414   1.049 -23.462  0.00  0.00    +0.292 HD
ENDBRANCH   2  17
BRANCH   3  19
ATOM     19  O   UNL     1       2.258   2.840 -26.282  0.00  0.00    -0.503 OA
ATOM     20  H   UNL     1       1.908   2.950 -27.144  0.00  0.00    +0.292 HD
ENDBRANCH   3  19
BRANCH   1  21
ATOM     21  C   UNL     1       1.526   1.135 -22.179  0.00  0.00    +0.041 C 
BRANCH  21  22
ATOM     22  C   UNL     1       1.904   1.798 -21.126  0.00  0.00    +0.005 C 
BRANCH  22  23
ATOM     23  C   UNL     1       3.014   1.486 -20.524  0.00  0.00    +0.000 C 
BRANCH  23  24
ATOM     24  C   UNL     1       3.811   0.603 -21.049  0.00  0.00    +0.000 C 
BRANCH  24  25
ATOM     25  C   UNL     1       5.059   0.899 -21.261  0.00  0.00    +0.000 C 
BRANCH  25  26
ATOM     26  C   UNL     1       5.428   2.144 -21.337  0.00  0.00    +0.000 C 
BRANCH  26  27
ATOM     27  C   UNL     1       6.060   2.571 -22.389  0.00  0.00    -0.000 C 
BRANCH  27  28
ATOM     28  C   UNL     1       5.592   3.581 -23.062  0.00  0.00    -0.000 C 
BRANCH  28  29
ATOM     29  C   UNL     1       4.618   4.291 -22.577  0.00  0.00    -0.000 C 
BRANCH  29  31
ATOM     30  C   UNL     1       2.645   5.318 -22.925  0.00  0.00    +0.004 C 
ATOM     31  C   UNL     1       3.784   4.884 -23.378  0.00  0.00    -0.003 C 
ENDBRANCH  29  31
ENDBRANCH  28  29
ENDBRANCH  27  28
ENDBRANCH  26  27
ENDBRANCH  25  26
ENDBRANCH  24  25
ENDBRANCH  23  24
ENDBRANCH  22  23
ENDBRANCH  21  22
ENDBRANCH   1  21
TORSDOF 12
ENDMDL
MODEL 8
REMARK VINA RESULT:    -7.389      3.865      8.122
REMARK INTER + INTRA:         -13.049
REMARK INTER:                 -12.344
REMARK INTRA:                  -0.705
REMARK UNBOUND:                -0.908
REMARK  Name = ZINC000085340970
REMARK  13 active torsions:
REMARK  status: ('A' for Active; 'I' for Inactive)
REMARK    1  A    between atoms: C_1  and  C_2
REMARK    2  A    between atoms: C_2  and  C_3
REMARK    3  A    between atoms: C_3  and  C_4
REMARK    4  A    between atoms: C_4  and  C_5
REMARK    5  A    between atoms: C_5  and  C_6
REMARK    6  A    between atoms: C_6  and  C_7
REMARK    7  A    between atoms: C_7  and  C_8
REMARK    8  A    between atoms: C_8  and  C_9
REMARK    9  A    between atoms: C_9  and  C_10
REMARK   10  A    between atoms: C_10  and  C_11
REMARK   11  A    between atoms: C_11  and  C_12
REMARK   12  A    between atoms: C_13  and  O_14
REMARK   13  A    between atoms: C_15  and  O_16
REMARK                            x       y       z     vdW  Elec       q    Type
REMARK                         _______ _______ _______ _____ _____    ______ ____
ROOT
ATOM      1  C   UNL     1       2.041   2.234 -22.691  0.00  0.00    +0.025 A 
ATOM      2  C   UNL     1       2.419   1.825 -21.517  0.00  0.00    +0.164 A 
ATOM      3  C   UNL     1       1.536   1.563 -20.600  0.00  0.00    +0.161 A 
ATOM      4  C   UNL     1       0.270   1.710 -20.858  0.00  0.00    +0.079 A 
ATOM      5  C   UNL     1      -0.112   2.119 -22.031  0.00  0.00    +0.094 A 
ATOM      6  N   UNL     1      -1.377   2.266 -22.288  0.00  0.00    -0.243 NA
ATOM      7  C   UNL     1      -1.760   2.675 -23.461  0.00  0.00    +0.091 A 
ATOM      8  C   UNL     1      -3.024   2.821 -23.717  0.00  0.00    +0.051 A 
ATOM      9  C   UNL     1      -3.409   3.230 -24.890  0.00  0.00    +0.061 A 
ATOM     10  C   UNL     1      -2.524   3.492 -25.806  0.00  0.00    +0.061 A 
ATOM     11  C   UNL     1      -1.259   3.345 -25.551  0.00  0.00    +0.051 A 
ATOM     12 CL   UNL     1      -2.908   3.901 -26.980  0.00  0.00    -0.082 Cl
ATOM     13 CL   UNL     1      -4.673   3.377 -25.146  0.00  0.00    -0.082 Cl
ATOM     14  C   UNL     1      -0.875   2.936 -24.376  0.00  0.00    +0.091 A 
ATOM     15  N   UNL     1       0.391   2.789 -24.121  0.00  0.00    -0.243 NA
ATOM     16  C   UNL     1       0.773   2.381 -22.948  0.00  0.00    +0.097 A 
ENDROOT
BRANCH   2  17
ATOM     17  O   UNL     1       3.686   1.678 -21.259  0.00  0.00    -0.503 OA
ATOM     18  H   UNL     1       3.997   0.882 -20.876  0.00  0.00    +0.292 HD
ENDBRANCH   2  17
BRANCH   3  19
ATOM     19  O   UNL     1       1.917   1.155 -19.427  0.00  0.00    -0.503 OA
ATOM     20  H   UNL     1       1.732   1.672 -18.668  0.00  0.00    +0.292 HD
ENDBRANCH   3  19
BRANCH   1  21
ATOM     21  C   UNL     1       2.923   2.495 -23.607  0.00  0.00    +0.041 C 
BRANCH  21  22
ATOM     22  C   UNL     1       3.575   3.620 -23.580  0.00  0.00    +0.005 C 
BRANCH  22  23
ATOM     23  C   UNL     1       4.868   3.626 -23.721  0.00  0.00    +0.000 C 
BRANCH  23  24
ATOM     24  C   UNL     1       5.628   3.991 -22.731  0.00  0.00    +0.000 C 
BRANCH  24  25
ATOM     25  C   UNL     1       6.382   5.045 -22.845  0.00  0.00    +0.000 C 
BRANCH  25  26
ATOM     26  C   UNL     1       6.464   5.894 -21.865  0.00  0.00    +0.000 C 
BRANCH  26  27
ATOM     27  C   UNL     1       7.015   7.056 -22.057  0.00  0.00    -0.000 C 
BRANCH  27  28
ATOM     28  C   UNL     1       6.473   8.124 -21.551  0.00  0.00    -0.000 C 
BRANCH  28  29
ATOM     29  C   UNL     1       5.463   8.019 -20.739  0.00  0.00    -0.000 C 
BRANCH  29  31
ATOM     30  C   UNL     1       4.136   9.242 -22.084  0.00  0.00    +0.004 C 
ATOM     31  C   UNL     1       4.413   8.765 -20.907  0.00  0.00    -0.003 C 
ENDBRANCH  29  31
ENDBRANCH  28  29
ENDBRANCH  27  28
ENDBRANCH  26  27
ENDBRANCH  25  26
ENDBRANCH  24  25
ENDBRANCH  23  24
ENDBRANCH  22  23
ENDBRANCH  21  22
ENDBRANCH   1  21
TORSDOF 12
ENDMDL
MODEL 9
REMARK VINA RESULT:    -7.296      1.748      2.799
REMARK INTER + INTRA:         -12.896
REMARK INTER:                 -11.988
REMARK INTRA:                  -0.908
REMARK UNBOUND:                -0.908
REMARK  Name = ZINC000085340970
REMARK  13 active torsions:
REMARK  status: ('A' for Active; 'I' for Inactive)
REMARK    1  A    between atoms: C_1  and  C_2
REMARK    2  A    between atoms: C_2  and  C_3
REMARK    3  A    between atoms: C_3  and  C_4
REMARK    4  A    between atoms: C_4  and  C_5
REMARK    5  A    between atoms: C_5  and  C_6
REMARK    6  A    between atoms: C_6  and  C_7
REMARK    7  A    between atoms: C_7  and  C_8
REMARK    8  A    between atoms: C_8  and  C_9
REMARK    9  A    between atoms: C_9  and  C_10
REMARK   10  A    between atoms: C_10  and  C_11
REMARK   11  A    between atoms: C_11  and  C_12
REMARK   12  A    between atoms: C_13  and  O_14
REMARK   13  A    between atoms: C_15  and  O_16
REMARK                            x       y       z     vdW  Elec       q    Type
REMARK                         _______ _______ _______ _____ _____    ______ ____
ROOT
ATOM      1  C   UNL     1       4.919   3.923 -22.761  0.00  0.00    +0.025 A 
ATOM      2  C   UNL     1       5.746   2.955 -23.023  0.00  0.00    +0.164 A 
ATOM      3  C   UNL     1       7.025   3.182 -23.066  0.00  0.00    +0.161 A 
ATOM      4  C   UNL     1       7.479   4.380 -22.846  0.00  0.00    +0.079 A 
ATOM      5  C   UNL     1       6.655   5.350 -22.583  0.00  0.00    +0.094 A 
ATOM      6  N   UNL     1       7.110   6.548 -22.363  0.00  0.00    -0.243 NA
ATOM      7  C   UNL     1       6.287   7.519 -22.100  0.00  0.00    +0.091 A 
ATOM      8  C   UNL     1       6.742   8.714 -21.881  0.00  0.00    +0.051 A 
ATOM      9  C   UNL     1       5.919   9.687 -21.618  0.00  0.00    +0.061 A 
ATOM     10  C   UNL     1       4.640   9.459 -21.575  0.00  0.00    +0.061 A 
ATOM     11  C   UNL     1       4.183   8.262 -21.795  0.00  0.00    +0.051 A 
ATOM     12 CL   UNL     1       3.816  10.431 -21.313  0.00  0.00    -0.082 Cl
ATOM     13 CL   UNL     1       6.374  10.883 -21.398  0.00  0.00    -0.082 Cl
ATOM     14  C   UNL     1       5.008   7.290 -22.058  0.00  0.00    +0.091 A 
ATOM     15  N   UNL     1       4.551   6.093 -22.278  0.00  0.00    -0.243 NA
ATOM     16  C   UNL     1       5.375   5.123 -22.541  0.00  0.00    +0.097 A 
ENDROOT
BRANCH   2  17
ATOM     17  O   UNL     1       5.291   1.757 -23.244  0.00  0.00    -0.503 OA
ATOM     18  H   UNL     1       5.037   1.503 -24.109  0.00  0.00    +0.292 HD
ENDBRANCH   2  17
BRANCH   3  19
ATOM     19  O   UNL     1       7.849   2.213 -23.328  0.00  0.00    -0.503 OA
ATOM     20  H   UNL     1       7.907   1.477 -22.751  0.00  0.00    +0.292 HD
ENDBRANCH   3  19
BRANCH   1  21
ATOM     21  C   UNL     1       3.642   3.697 -22.719  0.00  0.00    +0.041 C 
BRANCH  21  22
ATOM     22  C   UNL     1       2.921   3.831 -23.793  0.00  0.00    +0.005 C 
BRANCH  22  23
ATOM     23  C   UNL     1       1.673   4.185 -23.700  0.00  0.00    +0.000 C 
BRANCH  23  24
ATOM     24  C   UNL     1       0.785   3.331 -23.287  0.00  0.00    +0.000 C 
BRANCH  24  25
ATOM     25  C   UNL     1      -0.282   3.108 -23.996  0.00  0.00    +0.000 C 
BRANCH  25  26
ATOM     26  C   UNL     1      -1.039   4.100 -24.361  0.00  0.00    +0.000 C 
BRANCH  26  27
ATOM     27  C   UNL     1      -2.176   4.302 -23.765  0.00  0.00    -0.000 C 
BRANCH  27  28
ATOM     28  C   UNL     1      -2.975   3.303 -23.532  0.00  0.00    -0.000 C 
BRANCH  28  29
ATOM     29  C   UNL     1      -3.595   3.219 -22.393  0.00  0.00    -0.000 C 
BRANCH  29  31
ATOM     30  C   UNL     1      -3.137   3.791 -20.264  0.00  0.00    +0.004 C 
ATOM     31  C   UNL     1      -2.921   3.033 -21.298  0.00  0.00    -0.003 C 
ENDBRANCH  29  31
ENDBRANCH  28  29
ENDBRANCH  27  28
ENDBRANCH  26  27
ENDBRANCH  25  26
ENDBRANCH  24  25
ENDBRANCH  23  24
ENDBRANCH  22  23
ENDBRANCH  21  22
ENDBRANCH   1  21
TORSDOF 12
ENDMDL
