MODEL 1
REMARK VINA RESULT:    -9.451      0.000      0.000
REMARK INTER + INTRA:          -9.727
REMARK INTER:                  -9.727
REMARK INTRA:                   0.000
REMARK UNBOUND:                 0.000
REMARK  Name = ZINC000004104698
REMARK  4 active torsions:
REMARK  status: ('A' for Active; 'I' for Inactive)
REMARK    1  A    between atoms: C_1  and  C_2
REMARK    2  A    between atoms: C_2  and  C_3
REMARK    3  A    between atoms: C_13  and  C_14
REMARK    4  A    between atoms: C_13  and  O_15
REMARK                            x       y       z     vdW  Elec       q    Type
REMARK                         _______ _______ _______ _____ _____    ______ ____
ROOT
ATOM      1  C   UNL     1      -3.684   3.977 -25.589  0.00  0.00    +0.012 C 
ATOM      2  C   UNL     1      -2.602   3.470 -25.074  0.00  0.00    -0.021 C 
ATOM      3  C   UNL     1      -3.026   3.207 -23.874  0.00  0.00    +0.012 C 
ATOM      4  C   UNL     1      -3.618   3.017 -22.732  0.00  0.00    +0.028 C 
ATOM      5  C   UNL     1      -4.861   3.331 -22.509  0.00  0.00    +0.067 C 
ATOM      6  C   UNL     1      -4.838   3.730 -23.746  0.00  0.00    +0.041 C 
ATOM      7  C   UNL     1      -5.140   3.014 -21.280  0.00  0.00    +0.035 C 
ATOM      8  C   UNL     1      -4.072   2.504 -20.744  0.00  0.00    +0.007 C 
ATOM      9  C   UNL     1      -3.131   2.506 -21.641  0.00  0.00    -0.004 C 
ATOM     10  C   UNL     1      -1.931   2.059 -21.420  0.00  0.00    +0.011 C 
ATOM     11  C   UNL     1      -0.921   2.013 -22.238  0.00  0.00    +0.075 C 
ATOM     12  C   UNL     1      -0.861   2.402 -23.477  0.00  0.00    +0.137 C 
ATOM     13  O   UNL     1       0.286   2.238 -24.066  0.00  0.00    -0.297 OA
ATOM     14  C   UNL     1      -1.804   3.557 -26.096  0.00  0.00    +0.012 C 
ATOM     15  C   UNL     1      -1.799   2.934 -24.204  0.00  0.00    +0.065 C 
ENDROOT
BRANCH   5  16
ATOM     16  O   UNL     1      -6.097   3.728 -22.545  0.00  0.00    -0.389 OA
ATOM     17  H   UNL     1      -6.289   4.110 -23.417  0.00  0.00    +0.210 HD
ENDBRANCH   5  16
TORSDOF 1
ENDMDL
MODEL 2
REMARK VINA RESULT:    -9.273      0.743      3.697
REMARK INTER + INTRA:          -9.544
REMARK INTER:                  -9.544
REMARK INTRA:                   0.000
REMARK UNBOUND:                 0.000
REMARK  Name = ZINC000004104698
REMARK  4 active torsions:
REMARK  status: ('A' for Active; 'I' for Inactive)
REMARK    1  A    between atoms: C_1  and  C_2
REMARK    2  A    between atoms: C_2  and  C_3
REMARK    3  A    between atoms: C_13  and  C_14
REMARK    4  A    between atoms: C_13  and  O_15
REMARK                            x       y       z     vdW  Elec       q    Type
REMARK                         _______ _______ _______ _____ _____    ______ ____
ROOT
ATOM      1  C   UNL     1      -2.941   3.641 -25.661  0.00  0.00    +0.012 C 
ATOM      2  C   UNL     1      -3.710   3.592 -24.613  0.00  0.00    -0.021 C 
ATOM      3  C   UNL     1      -2.872   3.116 -23.741  0.00  0.00    +0.012 C 
ATOM      4  C   UNL     1      -1.905   2.640 -23.013  0.00  0.00    +0.028 C 
ATOM      5  C   UNL     1      -0.710   2.408 -23.472  0.00  0.00    +0.067 C 
ATOM      6  C   UNL     1      -1.204   2.848 -24.591  0.00  0.00    +0.041 C 
ATOM      7  C   UNL     1       0.010   1.940 -22.497  0.00  0.00    +0.035 C 
ATOM      8  C   UNL     1      -0.738   1.881 -21.436  0.00  0.00    +0.007 C 
ATOM      9  C   UNL     1      -1.922   2.314 -21.755  0.00  0.00    -0.004 C 
ATOM     10  C   UNL     1      -2.909   2.383 -20.913  0.00  0.00    +0.011 C 
ATOM     11  C   UNL     1      -4.124   2.796 -21.121  0.00  0.00    +0.075 C 
ATOM     12  C   UNL     1      -4.652   3.241 -22.223  0.00  0.00    +0.137 C 
ATOM     13  O   UNL     1      -5.902   3.590 -22.149  0.00  0.00    -0.297 OA
ATOM     14  C   UNL     1      -4.814   4.051 -25.121  0.00  0.00    +0.012 C 
ATOM     15  C   UNL     1      -4.094   3.383 -23.388  0.00  0.00    +0.065 C 
ENDROOT
BRANCH   5  16
ATOM     16  O   UNL     1       0.380   2.269 -24.165  0.00  0.00    -0.389 OA
ATOM     17  H   UNL     1       1.141   2.546 -23.630  0.00  0.00    +0.210 HD
ENDBRANCH   5  16
TORSDOF 1
ENDMDL
MODEL 3
REMARK VINA RESULT:    -9.125      1.426      4.060
REMARK INTER + INTRA:          -9.392
REMARK INTER:                  -9.392
REMARK INTRA:                   0.000
REMARK UNBOUND:                 0.000
REMARK  Name = ZINC000004104698
REMARK  4 active torsions:
REMARK  status: ('A' for Active; 'I' for Inactive)
REMARK    1  A    between atoms: C_1  and  C_2
REMARK    2  A    between atoms: C_2  and  C_3
REMARK    3  A    between atoms: C_13  and  C_14
REMARK    4  A    between atoms: C_13  and  O_15
REMARK                            x       y       z     vdW  Elec       q    Type
REMARK                         _______ _______ _______ _____ _____    ______ ____
ROOT
ATOM      1  C   UNL     1      -0.519   2.267 -23.181  0.00  0.00    +0.012 C 
ATOM      2  C   UNL     1      -1.547   2.385 -22.392  0.00  0.00    -0.021 C 
ATOM      3  C   UNL     1      -2.424   2.848 -23.232  0.00  0.00    +0.012 C 
ATOM      4  C   UNL     1      -3.160   3.301 -24.203  0.00  0.00    +0.028 C 
ATOM      5  C   UNL     1      -2.724   3.462 -25.417  0.00  0.00    +0.067 C 
ATOM      6  C   UNL     1      -1.606   3.011 -24.929  0.00  0.00    +0.041 C 
ATOM      7  C   UNL     1      -3.701   3.926 -26.137  0.00  0.00    +0.035 C 
ATOM      8  C   UNL     1      -4.741   4.052 -25.368  0.00  0.00    +0.007 C 
ATOM      9  C   UNL     1      -4.407   3.666 -24.173  0.00  0.00    -0.004 C 
ATOM     10  C   UNL     1      -5.227   3.669 -23.165  0.00  0.00    +0.011 C 
ATOM     11  C   UNL     1      -5.002   3.307 -21.936  0.00  0.00    +0.075 C 
ATOM     12  C   UNL     1      -3.902   2.853 -21.413  0.00  0.00    +0.137 C 
ATOM     13  O   UNL     1      -3.956   2.566 -20.147  0.00  0.00    -0.297 OA
ATOM     14  C   UNL     1      -1.026   1.962 -21.279  0.00  0.00    +0.012 C 
ATOM     15  C   UNL     1      -2.755   2.649 -21.990  0.00  0.00    +0.065 C 
ENDROOT
BRANCH   5  16
ATOM     16  O   UNL     1      -2.053   3.528 -26.529  0.00  0.00    -0.389 OA
ATOM     17  H   UNL     1      -1.121   3.715 -26.333  0.00  0.00    +0.210 HD
ENDBRANCH   5  16
TORSDOF 1
ENDMDL
MODEL 4
REMARK VINA RESULT:    -9.057      1.467      2.511
REMARK INTER + INTRA:          -9.322
REMARK INTER:                  -9.322
REMARK INTRA:                   0.000
REMARK UNBOUND:                 0.000
REMARK  Name = ZINC000004104698
REMARK  4 active torsions:
REMARK  status: ('A' for Active; 'I' for Inactive)
REMARK    1  A    between atoms: C_1  and  C_2
REMARK    2  A    between atoms: C_2  and  C_3
REMARK    3  A    between atoms: C_13  and  C_14
REMARK    4  A    between atoms: C_13  and  O_15
REMARK                            x       y       z     vdW  Elec       q    Type
REMARK                         _______ _______ _______ _____ _____    ______ ____
ROOT
ATOM      1  C   UNL     1      -0.698   3.465 -25.322  0.00  0.00    +0.012 C 
ATOM      2  C   UNL     1      -0.745   3.044 -24.093  0.00  0.00    -0.021 C 
ATOM      3  C   UNL     1      -2.006   3.232 -23.838  0.00  0.00    +0.012 C 
ATOM      4  C   UNL     1      -3.279   3.486 -23.766  0.00  0.00    +0.028 C 
ATOM      5  C   UNL     1      -3.968   3.982 -24.751  0.00  0.00    +0.067 C 
ATOM      6  C   UNL     1      -2.831   3.953 -25.380  0.00  0.00    +0.041 C 
ATOM      7  C   UNL     1      -5.198   4.113 -24.354  0.00  0.00    +0.035 C 
ATOM      8  C   UNL     1      -5.271   3.698 -23.125  0.00  0.00    +0.007 C 
ATOM      9  C   UNL     1      -4.084   3.310 -22.761  0.00  0.00    -0.004 C 
ATOM     10  C   UNL     1      -3.817   2.838 -21.580  0.00  0.00    +0.011 C 
ATOM     11  C   UNL     1      -2.677   2.424 -21.113  0.00  0.00    +0.075 C 
ATOM     12  C   UNL     1      -1.523   2.380 -21.710  0.00  0.00    +0.137 C 
ATOM     13  O   UNL     1      -0.538   1.915 -21.001  0.00  0.00    -0.297 OA
ATOM     14  C   UNL     1       0.499   2.711 -23.920  0.00  0.00    +0.012 C 
ATOM     15  C   UNL     1      -1.225   2.740 -22.923  0.00  0.00    +0.065 C 
ENDROOT
BRANCH   5  16
ATOM     16  O   UNL     1      -4.418   4.472 -25.867  0.00  0.00    -0.389 OA
ATOM     17  H   UNL     1      -5.137   5.097 -25.680  0.00  0.00    +0.210 HD
ENDBRANCH   5  16
TORSDOF 1
ENDMDL
MODEL 5
REMARK VINA RESULT:    -9.056      1.287      4.306
REMARK INTER + INTRA:          -9.320
REMARK INTER:                  -9.320
REMARK INTRA:                   0.000
REMARK UNBOUND:                 0.000
REMARK  Name = ZINC000004104698
REMARK  4 active torsions:
REMARK  status: ('A' for Active; 'I' for Inactive)
REMARK    1  A    between atoms: C_1  and  C_2
REMARK    2  A    between atoms: C_2  and  C_3
REMARK    3  A    between atoms: C_13  and  C_14
REMARK    4  A    between atoms: C_13  and  O_15
REMARK                            x       y       z     vdW  Elec       q    Type
REMARK                         _______ _______ _______ _____ _____    ______ ____
ROOT
ATOM      1  C   UNL     1      -4.098   2.584 -21.017  0.00  0.00    +0.012 C 
ATOM      2  C   UNL     1      -4.271   3.081 -22.206  0.00  0.00    -0.021 C 
ATOM      3  C   UNL     1      -3.063   2.972 -22.675  0.00  0.00    +0.012 C 
ATOM      4  C   UNL     1      -1.811   2.787 -22.971  0.00  0.00    +0.028 C 
ATOM      5  C   UNL     1      -0.950   2.266 -22.147  0.00  0.00    +0.067 C 
ATOM      6  C   UNL     1      -1.967   2.200 -21.341  0.00  0.00    +0.041 C 
ATOM      7  C   UNL     1       0.202   2.220 -22.747  0.00  0.00    +0.035 C 
ATOM      8  C   UNL     1       0.054   2.713 -23.940  0.00  0.00    +0.007 C 
ATOM      9  C   UNL     1      -1.190   3.063 -24.079  0.00  0.00    -0.004 C 
ATOM     10  C   UNL     1      -1.668   3.593 -25.165  0.00  0.00    +0.011 C 
ATOM     11  C   UNL     1      -2.885   3.978 -25.411  0.00  0.00    +0.075 C 
ATOM     12  C   UNL     1      -3.925   3.928 -24.633  0.00  0.00    +0.137 C 
ATOM     13  O   UNL     1      -5.031   4.386 -25.138  0.00  0.00    -0.297 OA
ATOM     14  C   UNL     1      -5.538   3.362 -22.151  0.00  0.00    +0.012 C 
ATOM     15  C   UNL     1      -4.003   3.480 -23.415  0.00  0.00    +0.065 C 
ENDROOT
BRANCH   5  16
ATOM     16  O   UNL     1      -0.302   1.731 -21.156  0.00  0.00    -0.389 OA
ATOM     17  H   UNL     1      -0.904   1.170 -20.641  0.00  0.00    +0.210 HD
ENDBRANCH   5  16
TORSDOF 1
ENDMDL
MODEL 6
REMARK VINA RESULT:    -9.038      0.850      3.042
REMARK INTER + INTRA:          -9.302
REMARK INTER:                  -9.302
REMARK INTRA:                   0.000
REMARK UNBOUND:                 0.000
REMARK  Name = ZINC000004104698
REMARK  4 active torsions:
REMARK  status: ('A' for Active; 'I' for Inactive)
REMARK    1  A    between atoms: C_1  and  C_2
REMARK    2  A    between atoms: C_2  and  C_3
REMARK    3  A    between atoms: C_13  and  C_14
REMARK    4  A    between atoms: C_13  and  O_15
REMARK                            x       y       z     vdW  Elec       q    Type
REMARK                         _______ _______ _______ _____ _____    ______ ____
ROOT
ATOM      1  C   UNL     1      -2.581   2.567 -20.870  0.00  0.00    +0.012 C 
ATOM      2  C   UNL     1      -1.800   2.631 -21.908  0.00  0.00    -0.021 C 
ATOM      3  C   UNL     1      -2.647   3.050 -22.801  0.00  0.00    +0.012 C 
ATOM      4  C   UNL     1      -3.624   3.465 -23.552  0.00  0.00    +0.028 C 
ATOM      5  C   UNL     1      -4.835   3.649 -23.114  0.00  0.00    +0.067 C 
ATOM      6  C   UNL     1      -4.337   3.255 -21.979  0.00  0.00    +0.041 C 
ATOM      7  C   UNL     1      -5.562   4.063 -24.108  0.00  0.00    +0.035 C 
ATOM      8  C   UNL     1      -4.802   4.135 -25.160  0.00  0.00    +0.007 C 
ATOM      9  C   UNL     1      -3.604   3.765 -24.816  0.00  0.00    -0.004 C 
ATOM     10  C   UNL     1      -2.603   3.726 -25.643  0.00  0.00    +0.011 C 
ATOM     11  C   UNL     1      -1.373   3.375 -25.410  0.00  0.00    +0.075 C 
ATOM     12  C   UNL     1      -0.841   2.978 -24.292  0.00  0.00    +0.137 C 
ATOM     13  O   UNL     1       0.425   2.687 -24.341  0.00  0.00    -0.297 OA
ATOM     14  C   UNL     1      -0.683   2.235 -21.375  0.00  0.00    +0.012 C 
ATOM     15  C   UNL     1      -1.409   2.833 -23.132  0.00  0.00    +0.065 C 
ENDROOT
BRANCH   5  16
ATOM     16  O   UNL     1      -5.941   3.750 -22.439  0.00  0.00    -0.389 OA
ATOM     17  H   UNL     1      -6.253   4.668 -22.465  0.00  0.00    +0.210 HD
ENDBRANCH   5  16
TORSDOF 1
ENDMDL
MODEL 7
REMARK VINA RESULT:    -8.812      1.785      3.021
REMARK INTER + INTRA:          -9.070
REMARK INTER:                  -9.070
REMARK INTRA:                   0.000
REMARK UNBOUND:                 0.000
REMARK  Name = ZINC000004104698
REMARK  4 active torsions:
REMARK  status: ('A' for Active; 'I' for Inactive)
REMARK    1  A    between atoms: C_1  and  C_2
REMARK    2  A    between atoms: C_2  and  C_3
REMARK    3  A    between atoms: C_13  and  C_14
REMARK    4  A    between atoms: C_13  and  O_15
REMARK                            x       y       z     vdW  Elec       q    Type
REMARK                         _______ _______ _______ _____ _____    ______ ____
ROOT
ATOM      1  C   UNL     1      -0.440   3.698 -23.063  0.00  0.00    +0.012 C 
ATOM      2  C   UNL     1      -1.203   3.699 -24.116  0.00  0.00    -0.021 C 
ATOM      3  C   UNL     1      -2.371   3.628 -23.548  0.00  0.00    +0.012 C 
ATOM      4  C   UNL     1      -3.441   3.556 -22.813  0.00  0.00    +0.028 C 
ATOM      5  C   UNL     1      -3.416   3.514 -21.514  0.00  0.00    +0.067 C 
ATOM      6  C   UNL     1      -2.127   3.577 -21.674  0.00  0.00    +0.041 C 
ATOM      7  C   UNL     1      -4.643   3.446 -21.091  0.00  0.00    +0.035 C 
ATOM      8  C   UNL     1      -5.426   3.446 -22.128  0.00  0.00    +0.007 C 
ATOM      9  C   UNL     1      -4.683   3.514 -23.193  0.00  0.00    -0.004 C 
ATOM     10  C   UNL     1      -5.164   3.533 -24.400  0.00  0.00    +0.011 C 
ATOM     11  C   UNL     1      -4.519   3.599 -25.527  0.00  0.00    +0.075 C 
ATOM     12  C   UNL     1      -3.236   3.662 -25.725  0.00  0.00    +0.137 C 
ATOM     13  O   UNL     1      -2.859   3.720 -26.968  0.00  0.00    -0.297 OA
ATOM     14  C   UNL     1      -0.301   3.770 -25.048  0.00  0.00    +0.012 C 
ATOM     15  C   UNL     1      -2.280   3.675 -24.844  0.00  0.00    +0.065 C 
ENDROOT
BRANCH   5  16
ATOM     16  O   UNL     1      -3.121   3.485 -20.249  0.00  0.00    -0.389 OA
ATOM     17  H   UNL     1      -3.376   4.327 -19.837  0.00  0.00    +0.210 HD
ENDBRANCH   5  16
TORSDOF 1
ENDMDL
MODEL 8
REMARK VINA RESULT:    -8.281      1.611      4.201
REMARK INTER + INTRA:          -8.523
REMARK INTER:                  -8.523
REMARK INTRA:                   0.000
REMARK UNBOUND:                 0.000
REMARK  Name = ZINC000004104698
REMARK  4 active torsions:
REMARK  status: ('A' for Active; 'I' for Inactive)
REMARK    1  A    between atoms: C_1  and  C_2
REMARK    2  A    between atoms: C_2  and  C_3
REMARK    3  A    between atoms: C_13  and  C_14
REMARK    4  A    between atoms: C_13  and  O_15
REMARK                            x       y       z     vdW  Elec       q    Type
REMARK                         _______ _______ _______ _____ _____    ______ ____
ROOT
ATOM      1  C   UNL     1      -2.846   4.056 -25.284  0.00  0.00    +0.012 C 
ATOM      2  C   UNL     1      -2.939   3.518 -24.104  0.00  0.00    -0.021 C 
ATOM      3  C   UNL     1      -1.702   3.162 -23.920  0.00  0.00    +0.012 C 
ATOM      4  C   UNL     1      -0.432   2.882 -23.912  0.00  0.00    +0.028 C 
ATOM      5  C   UNL     1       0.372   3.171 -24.893  0.00  0.00    +0.067 C 
ATOM      6  C   UNL     1      -0.698   3.664 -25.443  0.00  0.00    +0.041 C 
ATOM      7  C   UNL     1       1.561   2.760 -24.571  0.00  0.00    +0.035 C 
ATOM      8  C   UNL     1       1.494   2.217 -23.392  0.00  0.00    +0.007 C 
ATOM      9  C   UNL     1       0.262   2.293 -22.985  0.00  0.00    -0.004 C 
ATOM     10  C   UNL     1      -0.141   1.838 -21.836  0.00  0.00    +0.011 C 
ATOM     11  C   UNL     1      -1.339   1.859 -21.331  0.00  0.00    +0.075 C 
ATOM     12  C   UNL     1      -2.429   2.342 -21.850  0.00  0.00    +0.137 C 
ATOM     13  O   UNL     1      -3.499   2.230 -21.120  0.00  0.00    -0.297 OA
ATOM     14  C   UNL     1      -4.207   3.687 -23.878  0.00  0.00    +0.012 C 
ATOM     15  C   UNL     1      -2.590   2.922 -23.002  0.00  0.00    +0.065 C 
ENDROOT
BRANCH   5  16
ATOM     16  O   UNL     1       0.951   3.563 -25.988  0.00  0.00    -0.389 OA
ATOM     17  H   UNL     1       0.463   4.315 -26.360  0.00  0.00    +0.210 HD
ENDBRANCH   5  16
TORSDOF 1
ENDMDL
MODEL 9
REMARK VINA RESULT:    -8.148      1.657      2.448
REMARK INTER + INTRA:          -8.386
REMARK INTER:                  -8.386
REMARK INTRA:                   0.000
REMARK UNBOUND:                 0.000
REMARK  Name = ZINC000004104698
REMARK  4 active torsions:
REMARK  status: ('A' for Active; 'I' for Inactive)
REMARK    1  A    between atoms: C_1  and  C_2
REMARK    2  A    between atoms: C_2  and  C_3
REMARK    3  A    between atoms: C_13  and  C_14
REMARK    4  A    between atoms: C_13  and  O_15
REMARK                            x       y       z     vdW  Elec       q    Type
REMARK                         _______ _______ _______ _____ _____    ______ ____
ROOT
ATOM      1  C   UNL     1      -0.264   3.761 -25.515  0.00  0.00    +0.012 C 
ATOM      2  C   UNL     1       0.411   3.113 -24.612  0.00  0.00    -0.021 C 
ATOM      3  C   UNL     1      -0.526   2.908 -23.735  0.00  0.00    +0.012 C 
ATOM      4  C   UNL     1      -1.579   2.797 -22.980  0.00  0.00    +0.028 C 
ATOM      5  C   UNL     1      -2.745   3.274 -23.302  0.00  0.00    +0.067 C 
ATOM      6  C   UNL     1      -2.133   3.669 -24.379  0.00  0.00    +0.041 C 
ATOM      7  C   UNL     1      -3.573   2.996 -22.340  0.00  0.00    +0.035 C 
ATOM      8  C   UNL     1      -2.920   2.346 -21.423  0.00  0.00    +0.007 C 
ATOM      9  C   UNL     1      -1.688   2.223 -21.819  0.00  0.00    -0.004 C 
ATOM     10  C   UNL     1      -0.770   1.619 -21.124  0.00  0.00    +0.011 C 
ATOM     11  C   UNL     1       0.483   1.439 -21.420  0.00  0.00    +0.075 C 
ATOM     12  C   UNL     1       1.128   1.818 -22.483  0.00  0.00    +0.137 C 
ATOM     13  O   UNL     1       2.388   1.502 -22.521  0.00  0.00    -0.297 OA
ATOM     14  C   UNL     1       1.581   3.094 -25.176  0.00  0.00    +0.012 C 
ATOM     15  C   UNL     1       0.678   2.472 -23.513  0.00  0.00    +0.065 C 
ENDROOT
BRANCH   5  16
ATOM     16  O   UNL     1      -3.782   3.834 -23.850  0.00  0.00    -0.389 OA
ATOM     17  H   UNL     1      -3.615   3.968 -24.797  0.00  0.00    +0.210 HD
ENDBRANCH   5  16
TORSDOF 1
ENDMDL
