MODEL 1
REMARK VINA RESULT:   -11.063      0.000      0.000
REMARK INTER + INTRA:         -12.975
REMARK INTER:                 -12.359
REMARK INTRA:                  -0.616
REMARK UNBOUND:                 0.028
REMARK  Name = COc1ccc2c(c1Oc1ccccc1)[C@]13CCN(C)[C@@H](C2)[C@H]1CCC(=O)C3          ZINC000100393780
REMARK  5 active torsions:
REMARK  status: ('A' for Active; 'I' for Inactive)
REMARK    1  A    between atoms: C_1  and  O_2
REMARK    2  A    between atoms: O_2  and  C_3
REMARK    3  A    between atoms: C_8  and  O_9
REMARK    4  A    between atoms: O_9  and  C_10
REMARK    5  A    between atoms: N_19  and  C_20
REMARK                            x       y       z     vdW  Elec       q    Type
REMARK                         _______ _______ _______ _____ _____    ______ ____
ROOT
ATOM      1  C   UNL     1      -2.073   2.568 -21.365  0.00  0.00    +0.162 A 
ATOM      2  C   UNL     1      -3.123   2.544 -20.664  0.00  0.00    +0.050 A 
ATOM      3  C   UNL     1      -4.221   2.817 -21.216  0.00  0.00    +0.008 A 
ATOM      4  C   UNL     1      -4.245   3.151 -22.641  0.00  0.00    -0.035 A 
ATOM      5  C   UNL     1      -3.321   3.149 -23.159  0.00  0.00    +0.009 A 
ATOM      6  C   UNL     1      -3.111   3.330 -24.062  0.00  0.00    +0.019 C 
ATOM      7  C   UNL     1      -3.279   2.975 -22.434  0.00  0.00    +0.063 C 
ATOM      8  C   UNL     1      -4.615   3.010 -21.825  0.00  0.00    +0.132 C 
ATOM      9  N   UNL     1      -5.537   3.286 -22.489  0.00  0.00    +0.236 N 
ATOM     10  H   UNL     1      -6.104   3.548 -23.295  0.00  0.00    +0.203 HD
ATOM     11  C   UNL     1      -5.396   3.624 -24.024  0.00  0.00    +0.072 C 
ATOM     12  C   UNL     1      -6.345   3.149 -21.438  0.00  0.00    +0.190 C 
ATOM     13  C   UNL     1      -2.021   3.329 -24.677  0.00  0.00    +0.086 C 
ATOM     14  C   UNL     1      -2.001   3.617 -25.932  0.00  0.00    +0.134 C 
ATOM     15  O   UNL     1      -0.887   3.616 -26.563  0.00  0.00    -0.297 OA
ATOM     16  C   UNL     1      -3.100   3.913 -26.582  0.00  0.00    +0.075 C 
ATOM     17  C   UNL     1      -4.239   3.925 -25.982  0.00  0.00    +0.017 C 
ATOM     18  C   UNL     1      -4.304   3.650 -24.760  0.00  0.00    +0.050 C 
ATOM     19  C   UNL     1      -5.345   3.423 -23.188  0.00  0.00    +0.090 C 
ATOM     20  C   UNL     1      -2.154   2.868 -22.614  0.00  0.00    +0.174 A 
ENDROOT
BRANCH   1  22
ATOM     21  C   UNL     1      -0.191   1.213 -21.068  0.00  0.00    +0.277 C 
ATOM     22  O   UNL     1      -0.806   2.307 -20.964  0.00  0.00    -0.491 OA
ENDBRANCH   1  22
BRANCH  20  23
ATOM     23  O   UNL     1      -1.059   2.983 -23.733  0.00  0.00    -0.452 OA
BRANCH  23  24
ATOM     24  C   UNL     1       0.261   3.413 -23.743  0.00  0.00    +0.129 A 
ATOM     25  C   UNL     1       0.442   4.629 -23.390  0.00  0.00    +0.046 A 
ATOM     26  C   UNL     1       1.621   5.122 -23.367  0.00  0.00    +0.004 A 
ATOM     27  C   UNL     1       2.624   4.396 -23.697  0.00  0.00    +0.000 A 
ATOM     28  C   UNL     1       2.444   3.180 -24.050  0.00  0.00    +0.004 A 
ATOM     29  C   UNL     1       1.266   2.685 -24.075  0.00  0.00    +0.046 A 
ENDBRANCH  23  24
ENDBRANCH  20  23
TORSDOF 3
ENDMDL
MODEL 2
REMARK VINA RESULT:    -9.606      1.595      2.486
REMARK INTER + INTRA:         -11.263
REMARK INTER:                 -10.693
REMARK INTRA:                  -0.570
REMARK UNBOUND:                 0.028
REMARK  Name = COc1ccc2c(c1Oc1ccccc1)[C@]13CCN(C)[C@@H](C2)[C@H]1CCC(=O)C3          ZINC000100393780
REMARK  5 active torsions:
REMARK  status: ('A' for Active; 'I' for Inactive)
REMARK    1  A    between atoms: C_1  and  O_2
REMARK    2  A    between atoms: O_2  and  C_3
REMARK    3  A    between atoms: C_8  and  O_9
REMARK    4  A    between atoms: O_9  and  C_10
REMARK    5  A    between atoms: N_19  and  C_20
REMARK                            x       y       z     vdW  Elec       q    Type
REMARK                         _______ _______ _______ _____ _____    ______ ____
ROOT
ATOM      1  C   UNL     1       0.269   1.512 -21.309  0.00  0.00    +0.162 A 
ATOM      2  C   UNL     1      -0.785   1.422 -20.619  0.00  0.00    +0.050 A 
ATOM      3  C   UNL     1      -1.860   1.864 -21.102  0.00  0.00    +0.008 A 
ATOM      4  C   UNL     1      -1.855   2.462 -22.438  0.00  0.00    -0.035 A 
ATOM      5  C   UNL     1      -0.929   2.500 -22.953  0.00  0.00    +0.009 A 
ATOM      6  C   UNL     1      -0.703   2.836 -23.806  0.00  0.00    +0.019 C 
ATOM      7  C   UNL     1      -0.903   2.190 -22.274  0.00  0.00    +0.063 C 
ATOM      8  C   UNL     1      -2.238   2.193 -21.661  0.00  0.00    +0.132 C 
ATOM      9  N   UNL     1      -3.136   2.647 -22.255  0.00  0.00    +0.236 N 
ATOM     10  H   UNL     1      -3.681   3.092 -22.992  0.00  0.00    +0.203 HD
ATOM     11  C   UNL     1      -2.965   3.260 -23.699  0.00  0.00    +0.072 C 
ATOM     12  C   UNL     1      -3.958   2.365 -21.244  0.00  0.00    +0.190 C 
ATOM     13  C   UNL     1       0.388   2.882 -24.418  0.00  0.00    +0.086 C 
ATOM     14  C   UNL     1       0.433   3.401 -25.595  0.00  0.00    +0.134 C 
ATOM     15  O   UNL     1       1.548   3.450 -26.222  0.00  0.00    -0.297 OA
ATOM     16  C   UNL     1      -0.642   3.884 -26.170  0.00  0.00    +0.075 C 
ATOM     17  C   UNL     1      -1.781   3.853 -25.572  0.00  0.00    +0.017 C 
ATOM     18  C   UNL     1      -1.870   3.356 -24.424  0.00  0.00    +0.050 C 
ATOM     19  C   UNL     1      -2.932   2.902 -22.917  0.00  0.00    +0.090 C 
ATOM     20  C   UNL     1       0.214   2.048 -22.478  0.00  0.00    +0.174 A 
ENDROOT
BRANCH   1  22
ATOM     21  C   UNL     1       2.331   1.699 -20.223  0.00  0.00    +0.277 C 
ATOM     22  O   UNL     1       1.515   1.101 -20.974  0.00  0.00    -0.491 OA
ENDBRANCH   1  22
BRANCH  20  23
ATOM     23  O   UNL     1       1.321   2.303 -23.562  0.00  0.00    -0.452 OA
BRANCH  23  24
ATOM     24  C   UNL     1       2.603   2.832 -23.518  0.00  0.00    +0.129 A 
ATOM     25  C   UNL     1       2.681   4.047 -23.124  0.00  0.00    +0.046 A 
ATOM     26  C   UNL     1       3.817   4.626 -23.048  0.00  0.00    +0.004 A 
ATOM     27  C   UNL     1       4.882   3.990 -23.368  0.00  0.00    +0.000 A 
ATOM     28  C   UNL     1       4.806   2.776 -23.762  0.00  0.00    +0.004 A 
ATOM     29  C   UNL     1       3.671   2.194 -23.839  0.00  0.00    +0.046 A 
ENDBRANCH  23  24
ENDBRANCH  20  23
TORSDOF 3
ENDMDL
MODEL 3
REMARK VINA RESULT:    -9.531      1.097      3.409
REMARK INTER + INTRA:         -11.175
REMARK INTER:                 -11.874
REMARK INTRA:                   0.699
REMARK UNBOUND:                 0.028
REMARK  Name = COc1ccc2c(c1Oc1ccccc1)[C@]13CCN(C)[C@@H](C2)[C@H]1CCC(=O)C3          ZINC000100393780
REMARK  5 active torsions:
REMARK  status: ('A' for Active; 'I' for Inactive)
REMARK    1  A    between atoms: C_1  and  O_2
REMARK    2  A    between atoms: O_2  and  C_3
REMARK    3  A    between atoms: C_8  and  O_9
REMARK    4  A    between atoms: O_9  and  C_10
REMARK    5  A    between atoms: N_19  and  C_20
REMARK                            x       y       z     vdW  Elec       q    Type
REMARK                         _______ _______ _______ _____ _____    ______ ____
ROOT
ATOM      1  C   UNL     1      -3.896   3.962 -25.056  0.00  0.00    +0.162 A 
ATOM      2  C   UNL     1      -5.084   4.141 -24.666  0.00  0.00    +0.050 A 
ATOM      3  C   UNL     1      -5.411   3.724 -23.524  0.00  0.00    +0.008 A 
ATOM      4  C   UNL     1      -4.413   3.049 -22.693  0.00  0.00    -0.035 A 
ATOM      5  C   UNL     1      -3.438   2.937 -23.093  0.00  0.00    +0.009 A 
ATOM      6  C   UNL     1      -2.658   2.542 -22.735  0.00  0.00    +0.019 C 
ATOM      7  C   UNL     1      -3.927   3.285 -23.538  0.00  0.00    +0.063 C 
ATOM      8  C   UNL     1      -5.236   3.380 -22.880  0.00  0.00    +0.132 C 
ATOM      9  N   UNL     1      -5.368   2.935 -21.807  0.00  0.00    +0.236 N 
ATOM     10  H   UNL     1      -5.167   2.474 -20.920  0.00  0.00    +0.203 HD
ATOM     11  C   UNL     1      -4.183   2.232 -21.037  0.00  0.00    +0.072 C 
ATOM     12  C   UNL     1      -6.646   3.314 -21.798  0.00  0.00    +0.190 C 
ATOM     13  C   UNL     1      -1.505   2.409 -23.205  0.00  0.00    +0.086 C 
ATOM     14  C   UNL     1      -0.600   1.821 -22.504  0.00  0.00    +0.134 C 
ATOM     15  O   UNL     1       0.580   1.683 -22.982  0.00  0.00    -0.297 OA
ATOM     16  C   UNL     1      -0.859   1.357 -21.305  0.00  0.00    +0.075 C 
ATOM     17  C   UNL     1      -2.032   1.476 -20.790  0.00  0.00    +0.017 C 
ATOM     18  C   UNL     1      -2.944   2.042 -21.439  0.00  0.00    +0.050 C 
ATOM     19  C   UNL     1      -4.745   2.633 -21.552  0.00  0.00    +0.090 C 
ATOM     20  C   UNL     1      -3.061   3.362 -24.282  0.00  0.00    +0.174 A 
ENDROOT
BRANCH   1  22
ATOM     21  C   UNL     1      -3.235   3.623 -27.273  0.00  0.00    +0.277 C 
ATOM     22  O   UNL     1      -3.350   4.332 -26.238  0.00  0.00    -0.491 OA
ENDBRANCH   1  22
BRANCH  20  23
ATOM     23  O   UNL     1      -1.546   2.992 -24.468  0.00  0.00    -0.452 OA
BRANCH  23  24
ATOM     24  C   UNL     1      -0.368   3.725 -24.434  0.00  0.00    +0.129 A 
ATOM     25  C   UNL     1       0.473   3.451 -25.358  0.00  0.00    +0.046 A 
ATOM     26  C   UNL     1       1.589   4.071 -25.414  0.00  0.00    +0.004 A 
ATOM     27  C   UNL     1       1.866   4.969 -24.543  0.00  0.00    +0.000 A 
ATOM     28  C   UNL     1       1.026   5.243 -23.619  0.00  0.00    +0.004 A 
ATOM     29  C   UNL     1      -0.090   4.625 -23.560  0.00  0.00    +0.046 A 
ENDBRANCH  23  24
ENDBRANCH  20  23
TORSDOF 3
ENDMDL
MODEL 4
REMARK VINA RESULT:    -9.220      1.264      3.623
REMARK INTER + INTRA:         -10.810
REMARK INTER:                 -10.528
REMARK INTRA:                  -0.281
REMARK UNBOUND:                 0.028
REMARK  Name = COc1ccc2c(c1Oc1ccccc1)[C@]13CCN(C)[C@@H](C2)[C@H]1CCC(=O)C3          ZINC000100393780
REMARK  5 active torsions:
REMARK  status: ('A' for Active; 'I' for Inactive)
REMARK    1  A    between atoms: C_1  and  O_2
REMARK    2  A    between atoms: O_2  and  C_3
REMARK    3  A    between atoms: C_8  and  O_9
REMARK    4  A    between atoms: O_9  and  C_10
REMARK    5  A    between atoms: N_19  and  C_20
REMARK                            x       y       z     vdW  Elec       q    Type
REMARK                         _______ _______ _______ _____ _____    ______ ____
ROOT
ATOM      1  C   UNL     1      -1.299   3.324 -25.312  0.00  0.00    +0.162 A 
ATOM      2  C   UNL     1      -2.199   3.494 -26.182  0.00  0.00    +0.050 A 
ATOM      3  C   UNL     1      -3.394   3.601 -25.799  0.00  0.00    +0.008 A 
ATOM      4  C   UNL     1      -3.699   3.525 -24.370  0.00  0.00    -0.035 A 
ATOM      5  C   UNL     1      -2.887   3.381 -23.703  0.00  0.00    +0.009 A 
ATOM      6  C   UNL     1      -2.858   3.305 -22.762  0.00  0.00    +0.019 C 
ATOM      7  C   UNL     1      -2.703   3.416 -24.426  0.00  0.00    +0.063 C 
ATOM      8  C   UNL     1      -3.903   3.616 -25.248  0.00  0.00    +0.132 C 
ATOM      9  N   UNL     1      -4.945   3.695 -24.724  0.00  0.00    +0.236 N 
ATOM     10  H   UNL     1      -5.665   3.721 -24.003  0.00  0.00    +0.203 HD
ATOM     11  C   UNL     1      -5.109   3.592 -23.158  0.00  0.00    +0.072 C 
ATOM     12  C   UNL     1      -5.537   3.854 -25.908  0.00  0.00    +0.190 C 
ATOM     13  C   UNL     1      -1.901   3.135 -21.972  0.00  0.00    +0.086 C 
ATOM     14  C   UNL     1      -2.129   3.063 -20.707  0.00  0.00    +0.134 C 
ATOM     15  O   UNL     1      -1.153   2.889 -19.898  0.00  0.00    -0.297 OA
ATOM     16  C   UNL     1      -3.345   3.165 -20.226  0.00  0.00    +0.075 C 
ATOM     17  C   UNL     1      -4.352   3.340 -21.008  0.00  0.00    +0.017 C 
ATOM     18  C   UNL     1      -4.175   3.415 -22.247  0.00  0.00    +0.050 C 
ATOM     19  C   UNL     1      -4.894   3.632 -23.991  0.00  0.00    +0.090 C 
ATOM     20  C   UNL     1      -1.626   3.266 -24.069  0.00  0.00    +0.174 A 
ENDROOT
BRANCH   1  22
ATOM     21  C   UNL     1       0.838   4.089 -25.872  0.00  0.00    +0.277 C 
ATOM     22  O   UNL     1       0.032   3.188 -25.517  0.00  0.00    -0.491 OA
ENDBRANCH   1  22
BRANCH  20  23
ATOM     23  O   UNL     1      -0.764   3.067 -22.772  0.00  0.00    -0.452 OA
BRANCH  23  24
ATOM     24  C   UNL     1       0.517   2.588 -22.535  0.00  0.00    +0.129 A 
ATOM     25  C   UNL     1       1.458   3.438 -22.699  0.00  0.00    +0.046 A 
ATOM     26  C   UNL     1       2.674   3.096 -22.506  0.00  0.00    +0.004 A 
ATOM     27  C   UNL     1       2.951   1.898 -22.147  0.00  0.00    +0.000 A 
ATOM     28  C   UNL     1       2.011   1.047 -21.982  0.00  0.00    +0.004 A 
ATOM     29  C   UNL     1       0.795   1.386 -22.174  0.00  0.00    +0.046 A 
ENDBRANCH  23  24
ENDBRANCH  20  23
TORSDOF 3
ENDMDL
MODEL 5
REMARK VINA RESULT:    -8.816      3.820      6.619
REMARK INTER + INTRA:         -10.335
REMARK INTER:                  -9.572
REMARK INTRA:                  -0.763
REMARK UNBOUND:                 0.028
REMARK  Name = COc1ccc2c(c1Oc1ccccc1)[C@]13CCN(C)[C@@H](C2)[C@H]1CCC(=O)C3          ZINC000100393780
REMARK  5 active torsions:
REMARK  status: ('A' for Active; 'I' for Inactive)
REMARK    1  A    between atoms: C_1  and  O_2
REMARK    2  A    between atoms: O_2  and  C_3
REMARK    3  A    between atoms: C_8  and  O_9
REMARK    4  A    between atoms: O_9  and  C_10
REMARK    5  A    between atoms: N_19  and  C_20
REMARK                            x       y       z     vdW  Elec       q    Type
REMARK                         _______ _______ _______ _____ _____    ______ ____
ROOT
ATOM      1  C   UNL     1       3.076   5.643 -22.945  0.00  0.00    +0.162 A 
ATOM      2  C   UNL     1       1.920   5.935 -23.363  0.00  0.00    +0.050 A 
ATOM      3  C   UNL     1       1.085   5.006 -23.519  0.00  0.00    +0.008 A 
ATOM      4  C   UNL     1       1.477   3.629 -23.216  0.00  0.00    -0.035 A 
ATOM      5  C   UNL     1       2.466   3.467 -22.870  0.00  0.00    +0.009 A 
ATOM      6  C   UNL     1       2.918   2.676 -22.621  0.00  0.00    +0.019 C 
ATOM      7  C   UNL     1       2.293   4.178 -23.017  0.00  0.00    +0.063 C 
ATOM      8  C   UNL     1       0.905   4.278 -23.487  0.00  0.00    +0.132 C 
ATOM      9  N   UNL     1       0.262   3.306 -23.574  0.00  0.00    +0.236 N 
ATOM     10  H   UNL     1      -0.018   2.326 -23.542  0.00  0.00    +0.203 HD
ATOM     11  C   UNL     1       0.836   1.883 -23.205  0.00  0.00    +0.072 C 
ATOM     12  C   UNL     1      -0.776   4.021 -24.007  0.00  0.00    +0.190 C 
ATOM     13  C   UNL     1       4.086   2.481 -22.212  0.00  0.00    +0.086 C 
ATOM     14  C   UNL     1       4.468   1.284 -21.934  0.00  0.00    +0.134 C 
ATOM     15  O   UNL     1       5.661   1.082 -21.516  0.00  0.00    -0.297 OA
ATOM     16  C   UNL     1       3.660   0.260 -22.070  0.00  0.00    +0.075 C 
ATOM     17  C   UNL     1       2.453   0.422 -22.488  0.00  0.00    +0.017 C 
ATOM     18  C   UNL     1       2.039   1.572 -22.770  0.00  0.00    +0.050 C 
ATOM     19  C   UNL     1       0.639   2.704 -23.374  0.00  0.00    +0.090 C 
ATOM     20  C   UNL     1       3.365   4.414 -22.694  0.00  0.00    +0.174 A 
ENDROOT
BRANCH   1  22
ATOM     21  C   UNL     1       4.085   7.537 -22.015  0.00  0.00    +0.277 C 
ATOM     22  O   UNL     1       4.108   6.488 -22.713  0.00  0.00    -0.491 OA
ENDBRANCH   1  22
BRANCH  20  23
ATOM     23  O   UNL     1       4.683   3.738 -22.175  0.00  0.00    -0.452 OA
BRANCH  23  24
ATOM     24  C   UNL     1       6.030   4.056 -22.278  0.00  0.00    +0.129 A 
ATOM     25  C   UNL     1       6.522   3.977 -23.457  0.00  0.00    +0.046 A 
ATOM     26  C   UNL     1       7.754   4.250 -23.658  0.00  0.00    +0.004 A 
ATOM     27  C   UNL     1       8.499   4.603 -22.677  0.00  0.00    +0.000 A 
ATOM     28  C   UNL     1       8.009   4.681 -21.499  0.00  0.00    +0.004 A 
ATOM     29  C   UNL     1       6.778   4.409 -21.294  0.00  0.00    +0.046 A 
ENDBRANCH  23  24
ENDBRANCH  20  23
TORSDOF 3
ENDMDL
MODEL 6
REMARK VINA RESULT:    -8.741      1.664      4.128
REMARK INTER + INTRA:         -10.246
REMARK INTER:                  -9.820
REMARK INTRA:                  -0.426
REMARK UNBOUND:                 0.028
REMARK  Name = COc1ccc2c(c1Oc1ccccc1)[C@]13CCN(C)[C@@H](C2)[C@H]1CCC(=O)C3          ZINC000100393780
REMARK  5 active torsions:
REMARK  status: ('A' for Active; 'I' for Inactive)
REMARK    1  A    between atoms: C_1  and  O_2
REMARK    2  A    between atoms: O_2  and  C_3
REMARK    3  A    between atoms: C_8  and  O_9
REMARK    4  A    between atoms: O_9  and  C_10
REMARK    5  A    between atoms: N_19  and  C_20
REMARK                            x       y       z     vdW  Elec       q    Type
REMARK                         _______ _______ _______ _____ _____    ______ ____
ROOT
ATOM      1  C   UNL     1       0.158   3.164 -25.471  0.00  0.00    +0.162 A 
ATOM      2  C   UNL     1      -0.734   3.624 -26.238  0.00  0.00    +0.050 A 
ATOM      3  C   UNL     1      -1.908   3.736 -25.796  0.00  0.00    +0.008 A 
ATOM      4  C   UNL     1      -2.199   3.334 -24.420  0.00  0.00    -0.035 A 
ATOM      5  C   UNL     1      -1.395   2.957 -23.840  0.00  0.00    +0.009 A 
ATOM      6  C   UNL     1      -1.361   2.647 -22.949  0.00  0.00    +0.019 C 
ATOM      7  C   UNL     1      -1.219   3.155 -24.538  0.00  0.00    +0.063 C 
ATOM      8  C   UNL     1      -2.406   3.659 -25.241  0.00  0.00    +0.132 C 
ATOM      9  N   UNL     1      -3.429   3.695 -24.676  0.00  0.00    +0.236 N 
ATOM     10  H   UNL     1      -4.133   3.604 -23.944  0.00  0.00    +0.203 HD
ATOM     11  C   UNL     1      -3.580   3.221 -23.178  0.00  0.00    +0.072 C 
ATOM     12  C   UNL     1      -4.020   4.196 -25.761  0.00  0.00    +0.190 C 
ATOM     13  C   UNL     1      -0.414   2.202 -22.261  0.00  0.00    +0.086 C 
ATOM     14  C   UNL     1      -0.631   1.837 -21.045  0.00  0.00    +0.134 C 
ATOM     15  O   UNL     1       0.336   1.382 -20.340  0.00  0.00    -0.297 OA
ATOM     16  C   UNL     1      -1.824   1.922 -20.510  0.00  0.00    +0.075 C 
ATOM     17  C   UNL     1      -2.821   2.375 -21.186  0.00  0.00    +0.017 C 
ATOM     18  C   UNL     1      -2.655   2.741 -22.374  0.00  0.00    +0.050 C 
ATOM     19  C   UNL     1      -3.374   3.448 -23.983  0.00  0.00    +0.090 C 
ATOM     20  C   UNL     1      -0.156   2.826 -24.269  0.00  0.00    +0.174 A 
ENDROOT
BRANCH   1  22
ATOM     21  C   UNL     1       1.990   1.921 -26.222  0.00  0.00    +0.277 C 
ATOM     22  O   UNL     1       1.467   2.966 -25.751  0.00  0.00    -0.491 OA
ENDBRANCH   1  22
BRANCH  20  23
ATOM     23  O   UNL     1       0.701   2.235 -23.094  0.00  0.00    -0.452 OA
BRANCH  23  24
ATOM     24  C   UNL     1       2.064   2.142 -22.853  0.00  0.00    +0.129 A 
ATOM     25  C   UNL     1       2.530   0.952 -22.800  0.00  0.00    +0.046 A 
ATOM     26  C   UNL     1       3.774   0.758 -22.583  0.00  0.00    +0.004 A 
ATOM     27  C   UNL     1       4.558   1.758 -22.419  0.00  0.00    +0.000 A 
ATOM     28  C   UNL     1       4.094   2.948 -22.472  0.00  0.00    +0.004 A 
ATOM     29  C   UNL     1       2.850   3.145 -22.688  0.00  0.00    +0.046 A 
ENDBRANCH  23  24
ENDBRANCH  20  23
TORSDOF 3
ENDMDL
MODEL 7
REMARK VINA RESULT:    -8.599      2.163      5.304
REMARK INTER + INTRA:         -10.080
REMARK INTER:                  -9.373
REMARK INTRA:                  -0.707
REMARK UNBOUND:                 0.028
REMARK  Name = COc1ccc2c(c1Oc1ccccc1)[C@]13CCN(C)[C@@H](C2)[C@H]1CCC(=O)C3          ZINC000100393780
REMARK  5 active torsions:
REMARK  status: ('A' for Active; 'I' for Inactive)
REMARK    1  A    between atoms: C_1  and  O_2
REMARK    2  A    between atoms: O_2  and  C_3
REMARK    3  A    between atoms: C_8  and  O_9
REMARK    4  A    between atoms: O_9  and  C_10
REMARK    5  A    between atoms: N_19  and  C_20
REMARK                            x       y       z     vdW  Elec       q    Type
REMARK                         _______ _______ _______ _____ _____    ______ ____
ROOT
ATOM      1  C   UNL     1      -1.328   2.241 -21.472  0.00  0.00    +0.162 A 
ATOM      2  C   UNL     1      -0.705   1.695 -20.518  0.00  0.00    +0.050 A 
ATOM      3  C   UNL     1       0.529   1.485 -20.647  0.00  0.00    +0.008 A 
ATOM      4  C   UNL     1       1.198   1.877 -21.888  0.00  0.00    -0.035 A 
ATOM      5  C   UNL     1       0.605   2.330 -22.642  0.00  0.00    +0.009 A 
ATOM      6  C   UNL     1       0.827   2.653 -23.501  0.00  0.00    +0.019 C 
ATOM      7  C   UNL     1       0.239   2.140 -22.019  0.00  0.00    +0.063 C 
ATOM      8  C   UNL     1       1.159   1.525 -21.054  0.00  0.00    +0.132 C 
ATOM      9  N   UNL     1       2.286   1.406 -21.338  0.00  0.00    +0.236 N 
ATOM     10  H   UNL     1       3.161   1.444 -21.861  0.00  0.00    +0.203 HD
ATOM     11  C   UNL     1       2.857   1.884 -22.730  0.00  0.00    +0.072 C 
ATOM     12  C   UNL     1       2.533   0.842 -20.156  0.00  0.00    +0.190 C 
ATOM     13  C   UNL     1       0.130   3.188 -24.392  0.00  0.00    +0.086 C 
ATOM     14  C   UNL     1       0.683   3.547 -25.499  0.00  0.00    +0.134 C 
ATOM     15  O   UNL     1      -0.029   4.094 -26.412  0.00  0.00    -0.297 OA
ATOM     16  C   UNL     1       1.963   3.364 -25.713  0.00  0.00    +0.075 C 
ATOM     17  C   UNL     1       2.711   2.817 -24.819  0.00  0.00    +0.017 C 
ATOM     18  C   UNL     1       2.214   2.453 -23.727  0.00  0.00    +0.050 C 
ATOM     19  C   UNL     1       2.432   1.666 -22.013  0.00  0.00    +0.090 C 
ATOM     20  C   UNL     1      -0.688   2.564 -22.541  0.00  0.00    +0.174 A 
ENDROOT
BRANCH   1  22
ATOM     21  C   UNL     1      -3.281   3.300 -20.743  0.00  0.00    +0.277 C 
ATOM     22  O   UNL     1      -2.645   2.549 -21.530  0.00  0.00    -0.491 OA
ENDBRANCH   1  22
BRANCH  20  23
ATOM     23  O   UNL     1      -1.161   3.242 -23.875  0.00  0.00    -0.452 OA
BRANCH  23  24
ATOM     24  C   UNL     1      -2.405   3.490 -24.437  0.00  0.00    +0.129 A 
ATOM     25  C   UNL     1      -2.874   2.549 -25.165  0.00  0.00    +0.046 A 
ATOM     26  C   UNL     1      -4.014   2.678 -25.727  0.00  0.00    +0.004 A 
ATOM     27  C   UNL     1      -4.689   3.755 -25.563  0.00  0.00    +0.000 A 
ATOM     28  C   UNL     1      -4.222   4.697 -24.835  0.00  0.00    +0.004 A 
ATOM     29  C   UNL     1      -3.083   4.570 -24.271  0.00  0.00    +0.046 A 
ENDBRANCH  23  24
ENDBRANCH  20  23
TORSDOF 3
ENDMDL
