MODEL 1
REMARK VINA RESULT:   -10.199      0.000      0.000
REMARK INTER + INTRA:         -10.927
REMARK INTER:                 -10.786
REMARK INTRA:                  -0.141
REMARK UNBOUND:                -0.132
REMARK  Name = ZINC000000338370
REMARK  2 active torsions:
REMARK  status: ('A' for Active; 'I' for Inactive)
REMARK    1  A    between atoms: C_1  and  C_2
REMARK    2  A    between atoms: C_2  and  C_3
REMARK                            x       y       z     vdW  Elec       q    Type
REMARK                         _______ _______ _______ _____ _____    ______ ____
ROOT
ATOM      1  C   UNL     1       2.163   2.366 -23.924  0.00  0.00    +0.017 A 
ATOM      2  C   UNL     1       1.800   1.924 -22.756  0.00  0.00    +0.011 A 
ATOM      3  C   UNL     1       0.557   2.017 -22.383  0.00  0.00    +0.028 A 
ATOM      4  C   UNL     1      -0.321   2.551 -23.179  0.00  0.00    +0.069 A 
ATOM      5  N   UNL     1       0.042   2.992 -24.347  0.00  0.00    -0.306 N 
ATOM      6  C   UNL     1      -0.837   3.526 -25.142  0.00  0.00    +0.130 C 
ATOM      7  C   UNL     1      -2.079   3.619 -24.771  0.00  0.00    +0.059 C 
ATOM      8  C   UNL     1      -2.443   3.178 -23.603  0.00  0.00    -0.011 A 
ATOM      9  C   UNL     1      -3.595   3.152 -23.003  0.00  0.00    +0.004 A 
ATOM     10  C   UNL     1      -4.775   3.558 -23.368  0.00  0.00    +0.010 A 
ATOM     11  C   UNL     1      -5.789   3.413 -22.567  0.00  0.00    +0.001 A 
ATOM     12  C   UNL     1      -5.622   2.863 -21.401  0.00  0.00    +0.002 A 
ATOM     13  C   UNL     1      -4.443   2.458 -21.036  0.00  0.00    +0.026 A 
ATOM     14  C   UNL     1      -3.429   2.602 -21.837  0.00  0.00    +0.047 A 
ATOM     15  N   UNL     1      -2.174   2.288 -21.716  0.00  0.00    -0.353 N 
ATOM     16  H   UNL     1      -1.757   1.856 -20.936  0.00  0.00    +0.166 HD
ATOM     17  C   UNL     1      -1.564   2.644 -22.807  0.00  0.00    +0.067 A 
ATOM     18  C   UNL     1       1.284   2.900 -24.720  0.00  0.00    +0.255 A 
ATOM     19  O   UNL     1       1.647   3.341 -25.886  0.00  0.00    -0.267 OA
ENDROOT
BRANCH   1  21
ATOM     20  C   UNL     1       4.356   2.606 -23.474  0.00  0.00    +0.009 C 
ATOM     21  C   UNL     1       3.405   2.273 -24.296  0.00  0.00    +0.037 C 
ENDBRANCH   1  21
TORSDOF 1
ENDMDL
MODEL 2
REMARK VINA RESULT:   -10.122      1.541      2.351
REMARK INTER + INTRA:         -10.845
REMARK INTER:                 -10.758
REMARK INTRA:                  -0.087
REMARK UNBOUND:                -0.132
REMARK  Name = ZINC000000338370
REMARK  2 active torsions:
REMARK  status: ('A' for Active; 'I' for Inactive)
REMARK    1  A    between atoms: C_1  and  C_2
REMARK    2  A    between atoms: C_2  and  C_3
REMARK                            x       y       z     vdW  Elec       q    Type
REMARK                         _______ _______ _______ _____ _____    ______ ____
ROOT
ATOM      1  C   UNL     1       2.470   2.234 -23.700  0.00  0.00    +0.017 A 
ATOM      2  C   UNL     1       1.830   2.776 -24.693  0.00  0.00    +0.011 A 
ATOM      3  C   UNL     1       0.554   3.005 -24.597  0.00  0.00    +0.028 A 
ATOM      4  C   UNL     1      -0.082   2.690 -23.507  0.00  0.00    +0.069 A 
ATOM      5  N   UNL     1       0.558   2.148 -22.514  0.00  0.00    -0.306 N 
ATOM      6  C   UNL     1      -0.079   1.833 -21.424  0.00  0.00    +0.130 C 
ATOM      7  C   UNL     1      -1.355   2.061 -21.327  0.00  0.00    +0.059 C 
ATOM      8  C   UNL     1      -1.995   2.604 -22.320  0.00  0.00    -0.011 A 
ATOM      9  C   UNL     1      -3.243   2.930 -22.476  0.00  0.00    +0.004 A 
ATOM     10  C   UNL     1      -4.274   2.824 -21.691  0.00  0.00    +0.010 A 
ATOM     11  C   UNL     1      -5.441   3.234 -22.092  0.00  0.00    +0.001 A 
ATOM     12  C   UNL     1      -5.576   3.750 -23.278  0.00  0.00    +0.002 A 
ATOM     13  C   UNL     1      -4.546   3.856 -24.062  0.00  0.00    +0.026 A 
ATOM     14  C   UNL     1      -3.379   3.446 -23.661  0.00  0.00    +0.047 A 
ATOM     15  N   UNL     1      -2.215   3.439 -24.239  0.00  0.00    -0.353 N 
ATOM     16  H   UNL     1      -2.015   3.769 -25.144  0.00  0.00    +0.166 HD
ATOM     17  C   UNL     1      -1.359   2.919 -23.410  0.00  0.00    +0.067 A 
ATOM     18  C   UNL     1       1.834   1.919 -22.610  0.00  0.00    +0.255 A 
ATOM     19  O   UNL     1       2.474   1.377 -21.618  0.00  0.00    -0.267 OA
ENDROOT
BRANCH   1  21
ATOM     20  C   UNL     1       4.591   2.987 -23.688  0.00  0.00    +0.009 C 
ATOM     21  C   UNL     1       3.746   2.005 -23.796  0.00  0.00    +0.037 C 
ENDBRANCH   1  21
TORSDOF 1
ENDMDL
MODEL 3
REMARK VINA RESULT:    -9.798      1.707      6.008
REMARK INTER + INTRA:         -10.502
REMARK INTER:                 -10.368
REMARK INTRA:                  -0.134
REMARK UNBOUND:                -0.132
REMARK  Name = ZINC000000338370
REMARK  2 active torsions:
REMARK  status: ('A' for Active; 'I' for Inactive)
REMARK    1  A    between atoms: C_1  and  C_2
REMARK    2  A    between atoms: C_2  and  C_3
REMARK                            x       y       z     vdW  Elec       q    Type
REMARK                         _______ _______ _______ _____ _____    ______ ____
ROOT
ATOM      1  C   UNL     1      -4.273   3.225 -22.524  0.00  0.00    +0.017 A 
ATOM      2  C   UNL     1      -3.660   2.594 -21.566  0.00  0.00    +0.011 A 
ATOM      3  C   UNL     1      -2.394   2.319 -21.676  0.00  0.00    +0.028 A 
ATOM      4  C   UNL     1      -1.741   2.676 -22.743  0.00  0.00    +0.069 A 
ATOM      5  N   UNL     1      -2.354   3.306 -23.700  0.00  0.00    -0.306 N 
ATOM      6  C   UNL     1      -1.701   3.662 -24.766  0.00  0.00    +0.130 C 
ATOM      7  C   UNL     1      -0.435   3.388 -24.876  0.00  0.00    +0.059 C 
ATOM      8  C   UNL     1       0.178   2.757 -23.919  0.00  0.00    -0.011 A 
ATOM      9  C   UNL     1       1.411   2.370 -23.783  0.00  0.00    +0.004 A 
ATOM     10  C   UNL     1       2.448   2.482 -24.558  0.00  0.00    +0.010 A 
ATOM     11  C   UNL     1       3.595   1.999 -24.183  0.00  0.00    +0.001 A 
ATOM     12  C   UNL     1       3.705   1.404 -23.032  0.00  0.00    +0.002 A 
ATOM     13  C   UNL     1       2.668   1.292 -22.257  0.00  0.00    +0.026 A 
ATOM     14  C   UNL     1       1.521   1.774 -22.633  0.00  0.00    +0.047 A 
ATOM     15  N   UNL     1       0.356   1.793 -22.057  0.00  0.00    -0.353 N 
ATOM     16  H   UNL     1       0.138   1.415 -21.175  0.00  0.00    +0.166 HD
ATOM     17  C   UNL     1      -0.475   2.401 -22.852  0.00  0.00    +0.067 A 
ATOM     18  C   UNL     1      -3.620   3.581 -23.591  0.00  0.00    +0.255 A 
ATOM     19  O   UNL     1      -4.233   4.212 -24.547  0.00  0.00    -0.267 OA
ENDROOT
BRANCH   1  21
ATOM     20  C   UNL     1      -6.311   2.732 -21.706  0.00  0.00    +0.009 C 
ATOM     21  C   UNL     1      -5.539   3.500 -22.415  0.00  0.00    +0.037 C 
ENDBRANCH   1  21
TORSDOF 1
ENDMDL
MODEL 4
REMARK VINA RESULT:    -9.580      2.037      6.282
REMARK INTER + INTRA:         -10.272
REMARK INTER:                 -10.131
REMARK INTRA:                  -0.141
REMARK UNBOUND:                -0.132
REMARK  Name = ZINC000000338370
REMARK  2 active torsions:
REMARK  status: ('A' for Active; 'I' for Inactive)
REMARK    1  A    between atoms: C_1  and  C_2
REMARK    2  A    between atoms: C_2  and  C_3
REMARK                            x       y       z     vdW  Elec       q    Type
REMARK                         _______ _______ _______ _____ _____    ______ ____
ROOT
ATOM      1  C   UNL     1      -3.212   3.534 -24.101  0.00  0.00    +0.017 A 
ATOM      2  C   UNL     1      -2.274   3.698 -24.986  0.00  0.00    +0.011 A 
ATOM      3  C   UNL     1      -1.061   3.306 -24.729  0.00  0.00    +0.028 A 
ATOM      4  C   UNL     1      -0.787   2.750 -23.586  0.00  0.00    +0.069 A 
ATOM      5  N   UNL     1      -1.725   2.586 -22.700  0.00  0.00    -0.306 N 
ATOM      6  C   UNL     1      -1.450   2.030 -21.558  0.00  0.00    +0.130 C 
ATOM      7  C   UNL     1      -0.238   1.638 -21.300  0.00  0.00    +0.059 C 
ATOM      8  C   UNL     1       0.700   1.802 -22.185  0.00  0.00    -0.011 A 
ATOM      9  C   UNL     1       1.965   1.504 -22.177  0.00  0.00    +0.004 A 
ATOM     10  C   UNL     1       2.721   0.943 -21.281  0.00  0.00    +0.010 A 
ATOM     11  C   UNL     1       3.984   0.754 -21.522  0.00  0.00    +0.001 A 
ATOM     12  C   UNL     1       4.492   1.126 -22.659  0.00  0.00    +0.002 A 
ATOM     13  C   UNL     1       3.736   1.687 -23.555  0.00  0.00    +0.026 A 
ATOM     14  C   UNL     1       2.473   1.877 -23.314  0.00  0.00    +0.047 A 
ATOM     15  N   UNL     1       1.522   2.404 -24.026  0.00  0.00    -0.353 N 
ATOM     16  H   UNL     1       1.613   2.774 -24.933  0.00  0.00    +0.166 HD
ATOM     17  C   UNL     1       0.426   2.358 -23.328  0.00  0.00    +0.067 A 
ATOM     18  C   UNL     1      -2.938   2.978 -22.957  0.00  0.00    +0.255 A 
ATOM     19  O   UNL     1      -3.875   2.814 -22.073  0.00  0.00    -0.267 OA
ENDROOT
BRANCH   1  21
ATOM     20  C   UNL     1      -4.970   3.640 -25.502  0.00  0.00    +0.009 C 
ATOM     21  C   UNL     1      -4.425   3.926 -24.358  0.00  0.00    +0.037 C 
ENDBRANCH   1  21
TORSDOF 1
ENDMDL
MODEL 5
REMARK VINA RESULT:    -9.416      2.086      3.305
REMARK INTER + INTRA:         -10.098
REMARK INTER:                  -9.958
REMARK INTRA:                  -0.140
REMARK UNBOUND:                -0.132
REMARK  Name = ZINC000000338370
REMARK  2 active torsions:
REMARK  status: ('A' for Active; 'I' for Inactive)
REMARK    1  A    between atoms: C_1  and  C_2
REMARK    2  A    between atoms: C_2  and  C_3
REMARK                            x       y       z     vdW  Elec       q    Type
REMARK                         _______ _______ _______ _____ _____    ______ ____
ROOT
ATOM      1  C   UNL     1       2.450   1.683 -21.727  0.00  0.00    +0.017 A 
ATOM      2  C   UNL     1       2.574   1.954 -22.993  0.00  0.00    +0.011 A 
ATOM      3  C   UNL     1       1.529   2.286 -23.692  0.00  0.00    +0.028 A 
ATOM      4  C   UNL     1       0.361   2.348 -23.124  0.00  0.00    +0.069 A 
ATOM      5  N   UNL     1       0.237   2.078 -21.859  0.00  0.00    -0.306 N 
ATOM      6  C   UNL     1      -0.931   2.140 -21.292  0.00  0.00    +0.130 C 
ATOM      7  C   UNL     1      -1.976   2.472 -21.990  0.00  0.00    +0.059 C 
ATOM      8  C   UNL     1      -1.853   2.742 -23.255  0.00  0.00    -0.011 A 
ATOM      9  C   UNL     1      -2.719   3.093 -24.158  0.00  0.00    +0.004 A 
ATOM     10  C   UNL     1      -4.003   3.291 -24.101  0.00  0.00    +0.010 A 
ATOM     11  C   UNL     1      -4.654   3.643 -25.170  0.00  0.00    +0.001 A 
ATOM     12  C   UNL     1      -4.022   3.798 -26.295  0.00  0.00    +0.002 A 
ATOM     13  C   UNL     1      -2.738   3.600 -26.352  0.00  0.00    +0.026 A 
ATOM     14  C   UNL     1      -2.087   3.247 -25.283  0.00  0.00    +0.047 A 
ATOM     15  N   UNL     1      -0.830   2.993 -25.076  0.00  0.00    -0.353 N 
ATOM     16  H   UNL     1      -0.112   3.029 -25.749  0.00  0.00    +0.166 HD
ATOM     17  C   UNL     1      -0.684   2.681 -23.823  0.00  0.00    +0.067 A 
ATOM     18  C   UNL     1       1.282   1.745 -21.160  0.00  0.00    +0.255 A 
ATOM     19  O   UNL     1       1.159   1.475 -19.895  0.00  0.00    -0.267 OA
ENDROOT
BRANCH   1  21
ATOM     20  C   UNL     1       4.203   0.316 -21.372  0.00  0.00    +0.009 C 
ATOM     21  C   UNL     1       3.495   1.351 -21.029  0.00  0.00    +0.037 C 
ENDBRANCH   1  21
TORSDOF 1
ENDMDL
MODEL 6
REMARK VINA RESULT:    -8.683      2.456      2.872
REMARK INTER + INTRA:          -9.323
REMARK INTER:                  -9.221
REMARK INTRA:                  -0.102
REMARK UNBOUND:                -0.132
REMARK  Name = ZINC000000338370
REMARK  2 active torsions:
REMARK  status: ('A' for Active; 'I' for Inactive)
REMARK    1  A    between atoms: C_1  and  C_2
REMARK    2  A    between atoms: C_2  and  C_3
REMARK                            x       y       z     vdW  Elec       q    Type
REMARK                         _______ _______ _______ _____ _____    ______ ____
ROOT
ATOM      1  C   UNL     1       3.075   3.662 -23.921  0.00  0.00    +0.017 A 
ATOM      2  C   UNL     1       2.629   2.824 -24.808  0.00  0.00    +0.011 A 
ATOM      3  C   UNL     1       1.361   2.795 -25.095  0.00  0.00    +0.028 A 
ATOM      4  C   UNL     1       0.540   3.605 -24.493  0.00  0.00    +0.069 A 
ATOM      5  N   UNL     1       0.987   4.443 -23.605  0.00  0.00    -0.306 N 
ATOM      6  C   UNL     1       0.165   5.251 -23.004  0.00  0.00    +0.130 C 
ATOM      7  C   UNL     1      -1.102   5.223 -23.290  0.00  0.00    +0.059 C 
ATOM      8  C   UNL     1      -1.549   4.385 -24.178  0.00  0.00    -0.011 A 
ATOM      9  C   UNL     1      -2.744   4.159 -24.636  0.00  0.00    +0.004 A 
ATOM     10  C   UNL     1      -3.896   4.694 -24.363  0.00  0.00    +0.010 A 
ATOM     11  C   UNL     1      -4.966   4.281 -24.974  0.00  0.00    +0.001 A 
ATOM     12  C   UNL     1      -4.884   3.332 -25.859  0.00  0.00    +0.002 A 
ATOM     13  C   UNL     1      -3.732   2.797 -26.132  0.00  0.00    +0.026 A 
ATOM     14  C   UNL     1      -2.662   3.210 -25.521  0.00  0.00    +0.047 A 
ATOM     15  N   UNL     1      -1.416   2.850 -25.610  0.00  0.00    -0.353 N 
ATOM     16  H   UNL     1      -1.056   2.150 -26.201  0.00  0.00    +0.166 HD
ATOM     17  C   UNL     1      -0.728   3.575 -24.780  0.00  0.00    +0.067 A 
ATOM     18  C   UNL     1       2.255   4.472 -23.319  0.00  0.00    +0.255 A 
ATOM     19  O   UNL     1       2.701   5.309 -22.431  0.00  0.00    -0.267 OA
ENDROOT
BRANCH   1  21
ATOM     20  C   UNL     1       4.873   2.732 -22.935  0.00  0.00    +0.009 C 
ATOM     21  C   UNL     1       4.343   3.691 -23.634  0.00  0.00    +0.037 C 
ENDBRANCH   1  21
TORSDOF 1
ENDMDL
MODEL 7
REMARK VINA RESULT:    -8.641      2.095      3.459
REMARK INTER + INTRA:          -9.278
REMARK INTER:                  -9.136
REMARK INTRA:                  -0.141
REMARK UNBOUND:                -0.132
REMARK  Name = ZINC000000338370
REMARK  2 active torsions:
REMARK  status: ('A' for Active; 'I' for Inactive)
REMARK    1  A    between atoms: C_1  and  C_2
REMARK    2  A    between atoms: C_2  and  C_3
REMARK                            x       y       z     vdW  Elec       q    Type
REMARK                         _______ _______ _______ _____ _____    ______ ____
ROOT
ATOM      1  C   UNL     1       4.553   2.923 -22.500  0.00  0.00    +0.017 A 
ATOM      2  C   UNL     1       4.135   3.851 -23.308  0.00  0.00    +0.011 A 
ATOM      3  C   UNL     1       2.861   4.006 -23.518  0.00  0.00    +0.028 A 
ATOM      4  C   UNL     1       2.005   3.231 -22.919  0.00  0.00    +0.069 A 
ATOM      5  N   UNL     1       2.423   2.302 -22.111  0.00  0.00    -0.306 N 
ATOM      6  C   UNL     1       1.567   1.528 -21.512  0.00  0.00    +0.130 C 
ATOM      7  C   UNL     1       0.294   1.682 -21.721  0.00  0.00    +0.059 C 
ATOM      8  C   UNL     1      -0.124   2.611 -22.529  0.00  0.00    -0.011 A 
ATOM      9  C   UNL     1      -1.318   2.966 -22.902  0.00  0.00    +0.004 A 
ATOM     10  C   UNL     1      -2.496   2.513 -22.595  0.00  0.00    +0.010 A 
ATOM     11  C   UNL     1      -3.557   3.054 -23.116  0.00  0.00    +0.001 A 
ATOM     12  C   UNL     1      -3.439   4.047 -23.945  0.00  0.00    +0.002 A 
ATOM     13  C   UNL     1      -2.260   4.501 -24.253  0.00  0.00    +0.026 A 
ATOM     14  C   UNL     1      -1.200   3.960 -23.732  0.00  0.00    +0.047 A 
ATOM     15  N   UNL     1       0.066   4.219 -23.871  0.00  0.00    -0.353 N 
ATOM     16  H   UNL     1       0.455   4.923 -24.439  0.00  0.00    +0.166 HD
ATOM     17  C   UNL     1       0.731   3.385 -23.128  0.00  0.00    +0.067 A 
ATOM     18  C   UNL     1       3.697   2.148 -21.901  0.00  0.00    +0.255 A 
ATOM     19  O   UNL     1       4.115   1.220 -21.094  0.00  0.00    -0.267 OA
ENDROOT
BRANCH   1  21
ATOM     20  C   UNL     1       6.562   3.794 -21.981  0.00  0.00    +0.009 C 
ATOM     21  C   UNL     1       5.827   2.768 -22.291  0.00  0.00    +0.037 C 
ENDBRANCH   1  21
TORSDOF 1
ENDMDL
MODEL 8
REMARK VINA RESULT:    -8.561      1.746      6.101
REMARK INTER + INTRA:          -9.193
REMARK INTER:                  -9.061
REMARK INTRA:                  -0.132
REMARK UNBOUND:                -0.132
REMARK  Name = ZINC000000338370
REMARK  2 active torsions:
REMARK  status: ('A' for Active; 'I' for Inactive)
REMARK    1  A    between atoms: C_1  and  C_2
REMARK    2  A    between atoms: C_2  and  C_3
REMARK                            x       y       z     vdW  Elec       q    Type
REMARK                         _______ _______ _______ _____ _____    ______ ____
ROOT
ATOM      1  C   UNL     1      -2.160   3.150 -24.140  0.00  0.00    +0.017 A 
ATOM      2  C   UNL     1      -2.132   2.593 -22.966  0.00  0.00    +0.011 A 
ATOM      3  C   UNL     1      -1.006   2.167 -22.475  0.00  0.00    +0.028 A 
ATOM      4  C   UNL     1       0.092   2.298 -23.159  0.00  0.00    +0.069 A 
ATOM      5  N   UNL     1       0.065   2.856 -24.333  0.00  0.00    -0.306 N 
ATOM      6  C   UNL     1       1.163   2.987 -25.016  0.00  0.00    +0.130 C 
ATOM      7  C   UNL     1       2.289   2.561 -24.526  0.00  0.00    +0.059 C 
ATOM      8  C   UNL     1       2.317   2.004 -23.351  0.00  0.00    -0.011 A 
ATOM      9  C   UNL     1       3.289   1.505 -22.648  0.00  0.00    +0.004 A 
ATOM     10  C   UNL     1       4.563   1.394 -22.882  0.00  0.00    +0.010 A 
ATOM     11  C   UNL     1       5.340   0.843 -21.997  0.00  0.00    +0.001 A 
ATOM     12  C   UNL     1       4.843   0.403 -20.879  0.00  0.00    +0.002 A 
ATOM     13  C   UNL     1       3.569   0.514 -20.646  0.00  0.00    +0.026 A 
ATOM     14  C   UNL     1       2.792   1.065 -21.531  0.00  0.00    +0.047 A 
ATOM     15  N   UNL     1       1.513   1.292 -21.542  0.00  0.00    -0.353 N 
ATOM     16  H   UNL     1       0.877   1.065 -20.826  0.00  0.00    +0.166 HD
ATOM     17  C   UNL     1       1.218   1.872 -22.667  0.00  0.00    +0.067 A 
ATOM     18  C   UNL     1      -1.061   3.282 -24.824  0.00  0.00    +0.255 A 
ATOM     19  O   UNL     1      -1.089   3.838 -25.997  0.00  0.00    -0.267 OA
ENDROOT
BRANCH   1  21
ATOM     20  C   UNL     1      -4.310   3.749 -23.851  0.00  0.00    +0.009 C 
ATOM     21  C   UNL     1      -3.286   3.576 -24.631  0.00  0.00    +0.037 C 
ENDBRANCH   1  21
TORSDOF 1
ENDMDL
MODEL 9
REMARK VINA RESULT:    -8.474      2.213      7.050
REMARK INTER + INTRA:          -9.101
REMARK INTER:                  -8.962
REMARK INTRA:                  -0.139
REMARK UNBOUND:                -0.132
REMARK  Name = ZINC000000338370
REMARK  2 active torsions:
REMARK  status: ('A' for Active; 'I' for Inactive)
REMARK    1  A    between atoms: C_1  and  C_2
REMARK    2  A    between atoms: C_2  and  C_3
REMARK                            x       y       z     vdW  Elec       q    Type
REMARK                         _______ _______ _______ _____ _____    ______ ____
ROOT
ATOM      1  C   UNL     1      -1.255   3.776 -23.279  0.00  0.00    +0.017 A 
ATOM      2  C   UNL     1      -0.656   4.924 -23.404  0.00  0.00    +0.011 A 
ATOM      3  C   UNL     1       0.640   4.994 -23.322  0.00  0.00    +0.028 A 
ATOM      4  C   UNL     1       1.336   3.915 -23.114  0.00  0.00    +0.069 A 
ATOM      5  N   UNL     1       0.738   2.768 -22.988  0.00  0.00    -0.306 N 
ATOM      6  C   UNL     1       1.436   1.691 -22.780  0.00  0.00    +0.130 C 
ATOM      7  C   UNL     1       2.731   1.760 -22.698  0.00  0.00    +0.059 C 
ATOM      8  C   UNL     1       3.329   2.907 -22.823  0.00  0.00    -0.011 A 
ATOM      9  C   UNL     1       4.584   3.242 -22.782  0.00  0.00    +0.004 A 
ATOM     10  C   UNL     1       5.666   2.544 -22.602  0.00  0.00    +0.010 A 
ATOM     11  C   UNL     1       6.826   3.130 -22.605  0.00  0.00    +0.001 A 
ATOM     12  C   UNL     1       6.905   4.415 -22.788  0.00  0.00    +0.002 A 
ATOM     13  C   UNL     1       5.823   5.113 -22.968  0.00  0.00    +0.026 A 
ATOM     14  C   UNL     1       4.663   4.527 -22.965  0.00  0.00    +0.047 A 
ATOM     15  N   UNL     1       3.457   4.986 -23.119  0.00  0.00    -0.353 N 
ATOM     16  H   UNL     1       3.210   5.926 -23.274  0.00  0.00    +0.166 HD
ATOM     17  C   UNL     1       2.632   3.986 -23.031  0.00  0.00    +0.067 A 
ATOM     18  C   UNL     1      -0.558   2.698 -23.071  0.00  0.00    +0.255 A 
ATOM     19  O   UNL     1      -1.155   1.552 -22.946  0.00  0.00    -0.267 OA
ENDROOT
BRANCH   1  21
ATOM     20  C   UNL     1      -3.153   4.087 -24.449  0.00  0.00    +0.009 C 
ATOM     21  C   UNL     1      -2.550   3.706 -23.361  0.00  0.00    +0.037 C 
ENDBRANCH   1  21
TORSDOF 1
ENDMDL
