MODEL 1
REMARK VINA RESULT:   -11.211      0.000      0.000
REMARK INTER + INTRA:         -12.336
REMARK INTER:                 -12.187
REMARK INTRA:                  -0.149
REMARK UNBOUND:                -0.143
REMARK  Name = COc1ccc2c3c1O[C@]1(C)[C@@H](O)C=C[C@@H]4[C@@H](C2)N(C)CC[C@@]341     ZINC000253505005
REMARK  5 active torsions:
REMARK  status: ('A' for Active; 'I' for Inactive)
REMARK    1  A    between atoms: C_1  and  O_2
REMARK    2  A    between atoms: O_2  and  C_3
REMARK    3  A    between atoms: C_10  and  C_11
REMARK    4  A    between atoms: C_12  and  O_13
REMARK    5  A    between atoms: N_19  and  C_20
REMARK                            x       y       z     vdW  Elec       q    Type
REMARK                         _______ _______ _______ _____ _____    ______ ____
ROOT
ATOM      1  C   UNL     1       0.433   2.216 -23.343  0.00  0.00    +0.162 A 
ATOM      2  C   UNL     1       0.399   1.877 -22.125  0.00  0.00    +0.050 A 
ATOM      3  C   UNL     1      -0.671   1.941 -21.477  0.00  0.00    +0.008 A 
ATOM      4  C   UNL     1      -1.718   2.344 -22.039  0.00  0.00    -0.034 A 
ATOM      5  C   UNL     1      -1.704   2.686 -23.251  0.00  0.00    +0.012 A 
ATOM      6  C   UNL     1      -2.749   3.088 -23.809  0.00  0.00    +0.058 C 
ATOM      7  C   UNL     1      -3.873   3.559 -24.548  0.00  0.00    +0.067 C 
ATOM      8  C   UNL     1      -5.093   3.641 -23.843  0.00  0.00    +0.132 C 
ATOM      9  N   UNL     1      -5.092   3.254 -22.487  0.00  0.00    +0.236 N 
ATOM     10  H   UNL     1      -5.946   3.293 -21.929  0.00  0.00    +0.203 HD
ATOM     11  C   UNL     1      -6.131   3.297 -21.792  0.00  0.00    +0.190 C 
ATOM     12  C   UNL     1      -3.850   2.812 -21.945  0.00  0.00    +0.076 C 
ATOM     13  C   UNL     1      -3.820   3.152 -23.164  0.00  0.00    +0.075 C 
ATOM     14  C   UNL     1      -4.874   3.558 -23.729  0.00  0.00    -0.019 C 
ATOM     15  C   UNL     1      -4.851   3.896 -24.934  0.00  0.00    +0.004 C 
ATOM     16  C   UNL     1      -3.774   3.834 -25.592  0.00  0.00    +0.181 C 
ATOM     17  C   UNL     1      -2.728   3.432 -25.035  0.00  0.00    +0.148 C 
ATOM     18  C   UNL     1      -2.420   3.698 -26.219  0.00  0.00    +0.060 C 
ATOM     19  O   UNL     1      -1.256   3.130 -25.173  0.00  0.00    -0.478 OA
ATOM     20  C   UNL     1      -2.808   2.410 -21.384  0.00  0.00    +0.090 C 
ATOM     21  C   UNL     1      -0.627   2.623 -23.908  0.00  0.00    +0.167 A 
ENDROOT
BRANCH   1  23
ATOM     22  C   UNL     1       2.178   3.185 -24.191  0.00  0.00    +0.277 C 
ATOM     23  O   UNL     1       1.504   2.151 -23.986  0.00  0.00    -0.491 OA
ENDBRANCH   1  23
BRANCH  16  24
ATOM     24  O   UNL     1      -3.753   4.173 -26.798  0.00  0.00    -0.384 OA
ATOM     25  H   UNL     1      -3.229   4.984 -26.897  0.00  0.00    +0.210 HD
ENDBRANCH  16  24
TORSDOF 2
ENDMDL
MODEL 2
REMARK VINA RESULT:   -10.596      2.192      5.059
REMARK INTER + INTRA:         -11.668
REMARK INTER:                 -11.554
REMARK INTRA:                  -0.114
REMARK UNBOUND:                -0.143
REMARK  Name = COc1ccc2c3c1O[C@]1(C)[C@@H](O)C=C[C@@H]4[C@@H](C2)N(C)CC[C@@]341     ZINC000253505005
REMARK  5 active torsions:
REMARK  status: ('A' for Active; 'I' for Inactive)
REMARK    1  A    between atoms: C_1  and  O_2
REMARK    2  A    between atoms: O_2  and  C_3
REMARK    3  A    between atoms: C_10  and  C_11
REMARK    4  A    between atoms: C_12  and  O_13
REMARK    5  A    between atoms: N_19  and  C_20
REMARK                            x       y       z     vdW  Elec       q    Type
REMARK                         _______ _______ _______ _____ _____    ______ ____
ROOT
ATOM      1  C   UNL     1      -3.299   3.198 -22.645  0.00  0.00    +0.162 A 
ATOM      2  C   UNL     1      -3.400   2.635 -21.517  0.00  0.00    +0.050 A 
ATOM      3  C   UNL     1      -2.413   2.061 -21.003  0.00  0.00    +0.008 A 
ATOM      4  C   UNL     1      -1.315   2.043 -21.610  0.00  0.00    -0.034 A 
ATOM      5  C   UNL     1      -1.195   2.599 -22.735  0.00  0.00    +0.012 A 
ATOM      6  C   UNL     1      -0.100   2.580 -23.338  0.00  0.00    +0.058 C 
ATOM      7  C   UNL     1       1.094   2.623 -24.115  0.00  0.00    +0.067 C 
ATOM      8  C   UNL     1       2.224   1.983 -23.561  0.00  0.00    +0.132 C 
ATOM      9  N   UNL     1       2.073   1.366 -22.302  0.00  0.00    +0.236 N 
ATOM     10  H   UNL     1       2.856   0.889 -21.854  0.00  0.00    +0.203 HD
ATOM     11  C   UNL     1       3.025   0.778 -21.741  0.00  0.00    +0.190 C 
ATOM     12  C   UNL     1       0.784   1.444 -21.697  0.00  0.00    +0.076 C 
ATOM     13  C   UNL     1       0.889   2.007 -22.826  0.00  0.00    +0.075 C 
ATOM     14  C   UNL     1       1.995   1.988 -23.437  0.00  0.00    -0.019 C 
ATOM     15  C   UNL     1       2.105   2.543 -24.554  0.00  0.00    +0.004 C 
ATOM     16  C   UNL     1       1.111   3.124 -25.077  0.00  0.00    +0.181 C 
ATOM     17  C   UNL     1       0.015   3.144 -24.474  0.00  0.00    +0.148 C 
ATOM     18  C   UNL     1      -0.159   3.763 -25.548  0.00  0.00    +0.060 C 
ATOM     19  O   UNL     1      -1.427   3.591 -24.482  0.00  0.00    -0.478 OA
ATOM     20  C   UNL     1      -0.309   1.460 -21.091  0.00  0.00    +0.090 C 
ATOM     21  C   UNL     1      -2.189   3.179 -23.256  0.00  0.00    +0.167 A 
ENDROOT
BRANCH   1  23
ATOM     22  C   UNL     1      -5.440   3.535 -22.726  0.00  0.00    +0.277 C 
ATOM     23  O   UNL     1      -4.288   3.771 -23.154  0.00  0.00    -0.491 OA
ENDBRANCH   1  23
BRANCH  16  24
ATOM     24  O   UNL     1       1.223   3.679 -26.194  0.00  0.00    -0.384 OA
ATOM     25  H   UNL     1       1.839   3.171 -26.746  0.00  0.00    +0.210 HD
ENDBRANCH  16  24
TORSDOF 2
ENDMDL
MODEL 3
REMARK VINA RESULT:   -10.295      2.132      5.495
REMARK INTER + INTRA:         -11.341
REMARK INTER:                 -11.265
REMARK INTRA:                  -0.075
REMARK UNBOUND:                -0.143
REMARK  Name = COc1ccc2c3c1O[C@]1(C)[C@@H](O)C=C[C@@H]4[C@@H](C2)N(C)CC[C@@]341     ZINC000253505005
REMARK  5 active torsions:
REMARK  status: ('A' for Active; 'I' for Inactive)
REMARK    1  A    between atoms: C_1  and  O_2
REMARK    2  A    between atoms: O_2  and  C_3
REMARK    3  A    between atoms: C_10  and  C_11
REMARK    4  A    between atoms: C_12  and  O_13
REMARK    5  A    between atoms: N_19  and  C_20
REMARK                            x       y       z     vdW  Elec       q    Type
REMARK                         _______ _______ _______ _____ _____    ______ ____
ROOT
ATOM      1  C   UNL     1      -4.628   3.716 -23.063  0.00  0.00    +0.162 A 
ATOM      2  C   UNL     1      -4.808   4.163 -24.232  0.00  0.00    +0.050 A 
ATOM      3  C   UNL     1      -3.870   4.173 -25.061  0.00  0.00    +0.008 A 
ATOM      4  C   UNL     1      -2.740   3.736 -24.731  0.00  0.00    -0.034 A 
ATOM      5  C   UNL     1      -2.541   3.287 -23.570  0.00  0.00    +0.012 A 
ATOM      6  C   UNL     1      -1.415   2.853 -23.244  0.00  0.00    +0.058 C 
ATOM      7  C   UNL     1      -0.179   2.334 -22.760  0.00  0.00    +0.067 C 
ATOM      8  C   UNL     1       0.898   2.332 -23.672  0.00  0.00    +0.132 C 
ATOM      9  N   UNL     1       0.658   2.838 -24.966  0.00  0.00    +0.236 N 
ATOM     10  H   UNL     1       1.400   2.861 -25.667  0.00  0.00    +0.203 HD
ATOM     11  C   UNL     1       1.559   2.872 -25.835  0.00  0.00    +0.190 C 
ATOM     12  C   UNL     1      -0.659   3.310 -25.240  0.00  0.00    +0.076 C 
ATOM     13  C   UNL     1      -0.475   2.861 -24.070  0.00  0.00    +0.075 C 
ATOM     14  C   UNL     1       0.663   2.422 -23.739  0.00  0.00    -0.019 C 
ATOM     15  C   UNL     1       0.852   1.977 -22.583  0.00  0.00    +0.004 C 
ATOM     16  C   UNL     1      -0.093   1.965 -21.743  0.00  0.00    +0.181 C 
ATOM     17  C   UNL     1      -1.220   2.400 -22.069  0.00  0.00    +0.148 C 
ATOM     18  C   UNL     1      -1.314   2.024 -20.879  0.00  0.00    +0.060 C 
ATOM     19  O   UNL     1      -2.644   2.667 -21.648  0.00  0.00    -0.478 OA
ATOM     20  C   UNL     1      -1.784   3.745 -25.570  0.00  0.00    +0.090 C 
ATOM     21  C   UNL     1      -3.486   3.275 -22.732  0.00  0.00    +0.167 A 
ENDROOT
BRANCH   1  23
ATOM     22  C   UNL     1      -5.967   2.627 -21.750  0.00  0.00    +0.277 C 
ATOM     23  O   UNL     1      -5.569   3.708 -22.238  0.00  0.00    -0.491 OA
ENDBRANCH   1  23
BRANCH  16  24
ATOM     24  O   UNL     1       0.099   1.520 -20.589  0.00  0.00    -0.384 OA
ATOM     25  H   UNL     1       1.017   1.688 -20.325  0.00  0.00    +0.210 HD
ENDBRANCH  16  24
TORSDOF 2
ENDMDL
MODEL 4
REMARK VINA RESULT:   -10.233      1.821      3.159
REMARK INTER + INTRA:         -11.273
REMARK INTER:                 -11.151
REMARK INTRA:                  -0.121
REMARK UNBOUND:                -0.143
REMARK  Name = COc1ccc2c3c1O[C@]1(C)[C@@H](O)C=C[C@@H]4[C@@H](C2)N(C)CC[C@@]341     ZINC000253505005
REMARK  5 active torsions:
REMARK  status: ('A' for Active; 'I' for Inactive)
REMARK    1  A    between atoms: C_1  and  O_2
REMARK    2  A    between atoms: O_2  and  C_3
REMARK    3  A    between atoms: C_10  and  C_11
REMARK    4  A    between atoms: C_12  and  O_13
REMARK    5  A    between atoms: N_19  and  C_20
REMARK                            x       y       z     vdW  Elec       q    Type
REMARK                         _______ _______ _______ _____ _____    ______ ____
ROOT
ATOM      1  C   UNL     1       1.083   3.129 -23.482  0.00  0.00    +0.162 A 
ATOM      2  C   UNL     1       1.212   3.250 -24.734  0.00  0.00    +0.050 A 
ATOM      3  C   UNL     1       0.208   3.403 -25.466  0.00  0.00    +0.008 A 
ATOM      4  C   UNL     1      -0.938   3.438 -24.955  0.00  0.00    -0.034 A 
ATOM      5  C   UNL     1      -1.087   3.319 -23.709  0.00  0.00    +0.012 A 
ATOM      6  C   UNL     1      -2.230   3.353 -23.202  0.00  0.00    +0.058 C 
ATOM      7  C   UNL     1      -3.478   3.376 -22.515  0.00  0.00    +0.067 C 
ATOM      8  C   UNL     1      -4.628   3.548 -23.314  0.00  0.00    +0.132 C 
ATOM      9  N   UNL     1      -4.444   3.679 -24.705  0.00  0.00    +0.236 N 
ATOM     10  H   UNL     1      -5.240   3.806 -25.331  0.00  0.00    +0.203 HD
ATOM     11  C   UNL     1      -5.411   3.835 -25.484  0.00  0.00    +0.190 C 
ATOM     12  C   UNL     1      -3.102   3.627 -25.184  0.00  0.00    +0.076 C 
ATOM     13  C   UNL     1      -3.236   3.506 -23.931  0.00  0.00    +0.075 C 
ATOM     14  C   UNL     1      -4.390   3.541 -23.418  0.00  0.00    -0.019 C 
ATOM     15  C   UNL     1      -4.529   3.422 -22.179  0.00  0.00    +0.004 C 
ATOM     16  C   UNL     1      -3.518   3.267 -21.436  0.00  0.00    +0.181 C 
ATOM     17  C   UNL     1      -2.375   3.232 -21.943  0.00  0.00    +0.148 C 
ATOM     18  C   UNL     1      -2.221   3.091 -20.708  0.00  0.00    +0.060 C 
ATOM     19  O   UNL     1      -0.890   3.094 -21.709  0.00  0.00    -0.478 OA
ATOM     20  C   UNL     1      -1.961   3.593 -25.695  0.00  0.00    +0.090 C 
ATOM     21  C   UNL     1      -0.076   3.164 -22.968  0.00  0.00    +0.167 A 
ENDROOT
BRANCH   1  23
ATOM     22  C   UNL     1       3.113   3.670 -22.945  0.00  0.00    +0.277 C 
ATOM     23  O   UNL     1       2.089   2.976 -22.755  0.00  0.00    -0.491 OA
ENDBRANCH   1  23
BRANCH  16  24
ATOM     24  O   UNL     1      -3.660   3.148 -20.198  0.00  0.00    -0.384 OA
ATOM     25  H   UNL     1      -2.968   2.566 -19.847  0.00  0.00    +0.210 HD
ENDBRANCH  16  24
TORSDOF 2
ENDMDL
MODEL 5
REMARK VINA RESULT:   -10.042      1.984      4.428
REMARK INTER + INTRA:         -11.065
REMARK INTER:                 -10.938
REMARK INTRA:                  -0.127
REMARK UNBOUND:                -0.143
REMARK  Name = COc1ccc2c3c1O[C@]1(C)[C@@H](O)C=C[C@@H]4[C@@H](C2)N(C)CC[C@@]341     ZINC000253505005
REMARK  5 active torsions:
REMARK  status: ('A' for Active; 'I' for Inactive)
REMARK    1  A    between atoms: C_1  and  O_2
REMARK    2  A    between atoms: O_2  and  C_3
REMARK    3  A    between atoms: C_10  and  C_11
REMARK    4  A    between atoms: C_12  and  O_13
REMARK    5  A    between atoms: N_19  and  C_20
REMARK                            x       y       z     vdW  Elec       q    Type
REMARK                         _______ _______ _______ _____ _____    ______ ____
ROOT
ATOM      1  C   UNL     1      -5.002   3.218 -21.943  0.00  0.00    +0.162 A 
ATOM      2  C   UNL     1      -4.529   3.042 -20.784  0.00  0.00    +0.050 A 
ATOM      3  C   UNL     1      -3.293   2.944 -20.610  0.00  0.00    +0.008 A 
ATOM      4  C   UNL     1      -2.516   3.021 -21.592  0.00  0.00    -0.034 A 
ATOM      5  C   UNL     1      -2.969   3.197 -22.755  0.00  0.00    +0.012 A 
ATOM      6  C   UNL     1      -2.192   3.273 -23.732  0.00  0.00    +0.058 C 
ATOM      7  C   UNL     1      -1.408   3.376 -24.917  0.00  0.00    +0.067 C 
ATOM      8  C   UNL     1      -0.010   3.269 -24.752  0.00  0.00    +0.132 C 
ATOM      9  N   UNL     1       0.480   3.074 -23.445  0.00  0.00    +0.236 N 
ATOM     10  H   UNL     1       1.482   2.990 -23.266  0.00  0.00    +0.203 HD
ATOM     11  C   UNL     1       1.706   2.969 -23.212  0.00  0.00    +0.190 C 
ATOM     12  C   UNL     1      -0.486   3.000 -22.399  0.00  0.00    +0.076 C 
ATOM     13  C   UNL     1      -0.956   3.176 -23.561  0.00  0.00    +0.075 C 
ATOM     14  C   UNL     1      -0.173   3.254 -24.550  0.00  0.00    -0.019 C 
ATOM     15  C   UNL     1      -0.632   3.428 -25.702  0.00  0.00    +0.004 C 
ATOM     16  C   UNL     1      -1.879   3.527 -25.883  0.00  0.00    +0.181 C 
ATOM     17  C   UNL     1      -2.656   3.450 -24.905  0.00  0.00    +0.148 C 
ATOM     18  C   UNL     1      -3.373   3.622 -25.917  0.00  0.00    +0.060 C 
ATOM     19  O   UNL     1      -4.084   3.476 -24.418  0.00  0.00    -0.478 OA
ATOM     20  C   UNL     1      -1.258   2.923 -21.419  0.00  0.00    +0.090 C 
ATOM     21  C   UNL     1      -4.215   3.295 -22.934  0.00  0.00    +0.167 A 
ENDROOT
BRANCH   1  23
ATOM     22  C   UNL     1      -7.001   2.413 -21.700  0.00  0.00    +0.277 C 
ATOM     23  O   UNL     1      -6.238   3.314 -22.112  0.00  0.00    -0.491 OA
ENDBRANCH   1  23
BRANCH  16  24
ATOM     24  O   UNL     1      -2.335   3.701 -27.036  0.00  0.00    -0.384 OA
ATOM     25  H   UNL     1      -2.003   4.540 -27.392  0.00  0.00    +0.210 HD
ENDBRANCH  16  24
TORSDOF 2
ENDMDL
MODEL 6
REMARK VINA RESULT:    -9.739      2.938      6.733
REMARK INTER + INTRA:         -10.736
REMARK INTER:                 -10.616
REMARK INTRA:                  -0.120
REMARK UNBOUND:                -0.143
REMARK  Name = COc1ccc2c3c1O[C@]1(C)[C@@H](O)C=C[C@@H]4[C@@H](C2)N(C)CC[C@@]341     ZINC000253505005
REMARK  5 active torsions:
REMARK  status: ('A' for Active; 'I' for Inactive)
REMARK    1  A    between atoms: C_1  and  O_2
REMARK    2  A    between atoms: O_2  and  C_3
REMARK    3  A    between atoms: C_10  and  C_11
REMARK    4  A    between atoms: C_12  and  O_13
REMARK    5  A    between atoms: N_19  and  C_20
REMARK                            x       y       z     vdW  Elec       q    Type
REMARK                         _______ _______ _______ _____ _____    ______ ____
ROOT
ATOM      1  C   UNL     1      -1.302   3.283 -23.377  0.00  0.00    +0.162 A 
ATOM      2  C   UNL     1      -1.391   4.522 -23.615  0.00  0.00    +0.050 A 
ATOM      3  C   UNL     1      -0.369   5.245 -23.614  0.00  0.00    +0.008 A 
ATOM      4  C   UNL     1       0.754   4.738 -23.374  0.00  0.00    -0.034 A 
ATOM      5  C   UNL     1       0.863   3.506 -23.134  0.00  0.00    +0.012 A 
ATOM      6  C   UNL     1       1.983   3.003 -22.895  0.00  0.00    +0.058 C 
ATOM      7  C   UNL     1       3.201   2.322 -22.611  0.00  0.00    +0.067 C 
ATOM      8  C   UNL     1       4.371   3.111 -22.602  0.00  0.00    +0.132 C 
ATOM      9  N   UNL     1       4.232   4.488 -22.872  0.00  0.00    +0.236 N 
ATOM     10  H   UNL     1       5.044   5.106 -22.879  0.00  0.00    +0.203 HD
ATOM     11  C   UNL     1       5.219   5.257 -22.884  0.00  0.00    +0.190 C 
ATOM     12  C   UNL     1       2.914   4.963 -23.132  0.00  0.00    +0.076 C 
ATOM     13  C   UNL     1       3.007   3.724 -22.893  0.00  0.00    +0.075 C 
ATOM     14  C   UNL     1       4.137   3.214 -22.651  0.00  0.00    -0.019 C 
ATOM     15  C   UNL     1       4.236   1.988 -22.414  0.00  0.00    +0.004 C 
ATOM     16  C   UNL     1       3.207   1.255 -22.414  0.00  0.00    +0.181 C 
ATOM     17  C   UNL     1       2.086   1.757 -22.653  0.00  0.00    +0.148 C 
ATOM     18  C   UNL     1       1.894   0.536 -22.455  0.00  0.00    +0.060 C 
ATOM     19  O   UNL     1       0.602   1.527 -22.806  0.00  0.00    -0.478 OA
ATOM     20  C   UNL     1       1.796   5.470 -23.371  0.00  0.00    +0.090 C 
ATOM     21  C   UNL     1      -0.166   2.774 -23.135  0.00  0.00    +0.167 A 
ENDROOT
BRANCH   1  23
ATOM     22  C   UNL     1      -3.401   3.003 -22.912  0.00  0.00    +0.277 C 
ATOM     23  O   UNL     1      -2.327   2.565 -23.379  0.00  0.00    -0.491 OA
ENDBRANCH   1  23
BRANCH  16  24
ATOM     24  O   UNL     1       3.308   0.029 -22.177  0.00  0.00    -0.384 OA
ATOM     25  H   UNL     1       3.335  -0.461 -23.014  0.00  0.00    +0.210 HD
ENDBRANCH  16  24
TORSDOF 2
ENDMDL
MODEL 7
REMARK VINA RESULT:    -9.404      2.302      3.935
REMARK INTER + INTRA:         -10.372
REMARK INTER:                 -10.229
REMARK INTRA:                  -0.142
REMARK UNBOUND:                -0.143
REMARK  Name = COc1ccc2c3c1O[C@]1(C)[C@@H](O)C=C[C@@H]4[C@@H](C2)N(C)CC[C@@]341     ZINC000253505005
REMARK  5 active torsions:
REMARK  status: ('A' for Active; 'I' for Inactive)
REMARK    1  A    between atoms: C_1  and  O_2
REMARK    2  A    between atoms: O_2  and  C_3
REMARK    3  A    between atoms: C_10  and  C_11
REMARK    4  A    between atoms: C_12  and  O_13
REMARK    5  A    between atoms: N_19  and  C_20
REMARK                            x       y       z     vdW  Elec       q    Type
REMARK                         _______ _______ _______ _____ _____    ______ ____
ROOT
ATOM      1  C   UNL     1       2.772   2.372 -22.510  0.00  0.00    +0.162 A 
ATOM      2  C   UNL     1       3.338   2.711 -23.589  0.00  0.00    +0.050 A 
ATOM      3  C   UNL     1       2.659   3.045 -24.586  0.00  0.00    +0.008 A 
ATOM      4  C   UNL     1       1.406   3.044 -24.516  0.00  0.00    -0.034 A 
ATOM      5  C   UNL     1       0.824   2.709 -23.450  0.00  0.00    +0.012 A 
ATOM      6  C   UNL     1      -0.425   2.708 -23.384  0.00  0.00    +0.058 C 
ATOM      7  C   UNL     1      -1.837   2.670 -23.191  0.00  0.00    +0.067 C 
ATOM      8  C   UNL     1      -2.629   3.042 -24.298  0.00  0.00    +0.132 C 
ATOM      9  N   UNL     1      -1.962   3.414 -25.483  0.00  0.00    +0.236 N 
ATOM     10  H   UNL     1      -2.484   3.692 -26.315  0.00  0.00    +0.203 HD
ATOM     11  C   UNL     1      -2.590   3.757 -26.509  0.00  0.00    +0.190 C 
ATOM     12  C   UNL     1      -0.537   3.381 -25.457  0.00  0.00    +0.076 C 
ATOM     13  C   UNL     1      -1.107   3.042 -24.379  0.00  0.00    +0.075 C 
ATOM     14  C   UNL     1      -2.369   3.041 -24.310  0.00  0.00    -0.019 C 
ATOM     15  C   UNL     1      -2.940   2.707 -23.247  0.00  0.00    +0.004 C 
ATOM     16  C   UNL     1      -2.258   2.368 -22.237  0.00  0.00    +0.181 C 
ATOM     17  C   UNL     1      -1.008   2.369 -22.303  0.00  0.00    +0.148 C 
ATOM     18  C   UNL     1      -1.303   1.998 -21.144  0.00  0.00    +0.060 C 
ATOM     19  O   UNL     1       0.297   2.116 -21.590  0.00  0.00    -0.478 OA
ATOM     20  C   UNL     1       0.711   3.383 -25.528  0.00  0.00    +0.090 C 
ATOM     21  C   UNL     1       1.506   2.371 -22.443  0.00  0.00    +0.167 A 
ENDROOT
BRANCH   1  23
ATOM     22  C   UNL     1       3.976   0.902 -21.465  0.00  0.00    +0.277 C 
ATOM     23  O   UNL     1       3.455   2.038 -21.516  0.00  0.00    -0.491 OA
ENDBRANCH   1  23
BRANCH  16  24
ATOM     24  O   UNL     1      -2.830   2.034 -21.175  0.00  0.00    -0.384 OA
ATOM     25  H   UNL     1      -3.679   2.499 -21.105  0.00  0.00    +0.210 HD
ENDBRANCH  16  24
TORSDOF 2
ENDMDL
MODEL 8
REMARK VINA RESULT:    -8.633      2.836      3.772
REMARK INTER + INTRA:          -9.533
REMARK INTER:                  -9.390
REMARK INTRA:                  -0.143
REMARK UNBOUND:                -0.143
REMARK  Name = COc1ccc2c3c1O[C@]1(C)[C@@H](O)C=C[C@@H]4[C@@H](C2)N(C)CC[C@@]341     ZINC000253505005
REMARK  5 active torsions:
REMARK  status: ('A' for Active; 'I' for Inactive)
REMARK    1  A    between atoms: C_1  and  O_2
REMARK    2  A    between atoms: O_2  and  C_3
REMARK    3  A    between atoms: C_10  and  C_11
REMARK    4  A    between atoms: C_12  and  O_13
REMARK    5  A    between atoms: N_19  and  C_20
REMARK                            x       y       z     vdW  Elec       q    Type
REMARK                         _______ _______ _______ _____ _____    ______ ____
ROOT
ATOM      1  C   UNL     1       3.698   1.980 -23.274  0.00  0.00    +0.162 A 
ATOM      2  C   UNL     1       3.634   0.827 -22.757  0.00  0.00    +0.050 A 
ATOM      3  C   UNL     1       2.573   0.426 -22.227  0.00  0.00    +0.008 A 
ATOM      4  C   UNL     1       1.564   1.172 -22.207  0.00  0.00    -0.034 A 
ATOM      5  C   UNL     1       1.609   2.324 -22.717  0.00  0.00    +0.012 A 
ATOM      6  C   UNL     1       0.602   3.066 -22.696  0.00  0.00    +0.058 C 
ATOM      7  C   UNL     1      -0.477   3.995 -22.731  0.00  0.00    +0.067 C 
ATOM      8  C   UNL     1      -1.687   3.571 -22.141  0.00  0.00    +0.132 C 
ATOM      9  N   UNL     1      -1.721   2.280 -21.576  0.00  0.00    +0.236 N 
ATOM     10  H   UNL     1      -2.569   1.921 -21.136  0.00  0.00    +0.203 HD
ATOM     11  C   UNL     1      -2.754   1.827 -21.033  0.00  0.00    +0.190 C 
ATOM     12  C   UNL     1      -0.521   1.513 -21.651  0.00  0.00    +0.076 C 
ATOM     13  C   UNL     1      -0.461   2.667 -22.167  0.00  0.00    +0.075 C 
ATOM     14  C   UNL     1      -1.477   3.418 -22.146  0.00  0.00    -0.019 C 
ATOM     15  C   UNL     1      -1.424   4.561 -22.655  0.00  0.00    +0.004 C 
ATOM     16  C   UNL     1      -0.355   4.970 -23.191  0.00  0.00    +0.181 C 
ATOM     17  C   UNL     1       0.653   4.229 -23.212  0.00  0.00    +0.148 C 
ATOM     18  C   UNL     1       0.983   5.294 -23.781  0.00  0.00    +0.060 C 
ATOM     19  O   UNL     1       2.095   4.063 -23.627  0.00  0.00    -0.478 OA
ATOM     20  C   UNL     1       0.483   0.768 -21.670  0.00  0.00    +0.090 C 
ATOM     21  C   UNL     1       2.677   2.732 -23.252  0.00  0.00    +0.167 A 
ENDROOT
BRANCH   1  23
ATOM     22  C   UNL     1       5.482   3.211 -23.212  0.00  0.00    +0.277 C 
ATOM     23  O   UNL     1       4.761   2.376 -23.802  0.00  0.00    -0.491 OA
ENDBRANCH   1  23
BRANCH  16  24
ATOM     24  O   UNL     1      -0.304   6.114 -23.699  0.00  0.00    -0.384 OA
ATOM     25  H   UNL     1       0.201   6.704 -23.117  0.00  0.00    +0.210 HD
ENDBRANCH  16  24
TORSDOF 2
ENDMDL
MODEL 9
REMARK VINA RESULT:    -8.625      2.701      6.049
REMARK INTER + INTRA:          -9.524
REMARK INTER:                  -9.379
REMARK INTRA:                  -0.145
REMARK UNBOUND:                -0.143
REMARK  Name = COc1ccc2c3c1O[C@]1(C)[C@@H](O)C=C[C@@H]4[C@@H](C2)N(C)CC[C@@]341     ZINC000253505005
REMARK  5 active torsions:
REMARK  status: ('A' for Active; 'I' for Inactive)
REMARK    1  A    between atoms: C_1  and  O_2
REMARK    2  A    between atoms: O_2  and  C_3
REMARK    3  A    between atoms: C_10  and  C_11
REMARK    4  A    between atoms: C_12  and  O_13
REMARK    5  A    between atoms: N_19  and  C_20
REMARK                            x       y       z     vdW  Elec       q    Type
REMARK                         _______ _______ _______ _____ _____    ______ ____
ROOT
ATOM      1  C   UNL     1      -1.743   3.763 -23.035  0.00  0.00    +0.162 A 
ATOM      2  C   UNL     1      -2.255   2.732 -22.511  0.00  0.00    +0.050 A 
ATOM      3  C   UNL     1      -1.527   1.844 -22.011  0.00  0.00    +0.008 A 
ATOM      4  C   UNL     1      -0.279   1.976 -22.029  0.00  0.00    -0.034 A 
ATOM      5  C   UNL     1       0.249   2.996 -22.547  0.00  0.00    +0.012 A 
ATOM      6  C   UNL     1       1.493   3.126 -22.564  0.00  0.00    +0.058 C 
ATOM      7  C   UNL     1       2.893   3.381 -22.641  0.00  0.00    +0.067 C 
ATOM      8  C   UNL     1       3.739   2.398 -22.086  0.00  0.00    +0.132 C 
ATOM      9  N   UNL     1       3.132   1.263 -21.511  0.00  0.00    +0.236 N 
ATOM     10  H   UNL     1       3.695   0.520 -21.094  0.00  0.00    +0.203 HD
ATOM     11  C   UNL     1       3.810   0.345 -20.997  0.00  0.00    +0.190 C 
ATOM     12  C   UNL     1       1.708   1.209 -21.541  0.00  0.00    +0.076 C 
ATOM     13  C   UNL     1       2.224   2.240 -22.065  0.00  0.00    +0.075 C 
ATOM     14  C   UNL     1       3.480   2.372 -22.083  0.00  0.00    -0.019 C 
ATOM     15  C   UNL     1       3.997   3.389 -22.600  0.00  0.00    +0.004 C 
ATOM     16  C   UNL     1       3.266   4.288 -23.105  0.00  0.00    +0.181 C 
ATOM     17  C   UNL     1       2.022   4.159 -23.089  0.00  0.00    +0.148 C 
ATOM     18  C   UNL     1       2.259   5.250 -23.656  0.00  0.00    +0.060 C 
ATOM     19  O   UNL     1       0.683   4.750 -23.457  0.00  0.00    -0.478 OA
ATOM     20  C   UNL     1       0.465   1.076 -21.522  0.00  0.00    +0.090 C 
ATOM     21  C   UNL     1      -0.482   3.894 -23.052  0.00  0.00    +0.167 A 
ENDROOT
BRANCH   1  23
ATOM     22  C   UNL     1      -2.925   4.510 -24.692  0.00  0.00    +0.277 C 
ATOM     23  O   UNL     1      -2.474   4.647 -23.533  0.00  0.00    -0.491 OA
ENDBRANCH   1  23
BRANCH  16  24
ATOM     24  O   UNL     1       3.785   5.304 -23.621  0.00  0.00    -0.384 OA
ATOM     25  H   UNL     1       4.474   5.650 -23.032  0.00  0.00    +0.210 HD
ENDBRANCH  16  24
TORSDOF 2
ENDMDL
