MODEL 1
REMARK VINA RESULT:   -10.992      0.000      0.000
REMARK INTER + INTRA:         -12.073
REMARK INTER:                 -11.961
REMARK INTRA:                  -0.112
REMARK UNBOUND:                -0.117
REMARK  Name = COc1ccc2c3c1O[C@]1(C)[C@H](O)[C@H](Cl)C=C4[C@@H](C2)N(C)CC[C@@]431   ZINC000100393464
REMARK  5 active torsions:
REMARK  status: ('A' for Active; 'I' for Inactive)
REMARK    1  A    between atoms: C_1  and  O_2
REMARK    2  A    between atoms: O_2  and  C_3
REMARK    3  A    between atoms: C_10  and  C_11
REMARK    4  A    between atoms: C_12  and  O_13
REMARK    5  A    between atoms: N_20  and  C_21
REMARK                            x       y       z     vdW  Elec       q    Type
REMARK                         _______ _______ _______ _____ _____    ______ ____
ROOT
ATOM      1  C   UNL     1       1.631   2.267 -23.774  0.00  0.00    +0.162 A 
ATOM      2  C   UNL     1       1.914   1.793 -22.633  0.00  0.00    +0.050 A 
ATOM      3  C   UNL     1       1.026   1.669 -21.758  0.00  0.00    +0.008 A 
ATOM      4  C   UNL     1      -0.155   2.016 -22.011  0.00  0.00    -0.034 A 
ATOM      5  C   UNL     1      -0.457   2.489 -23.141  0.00  0.00    +0.016 A 
ATOM      6  C   UNL     1      -1.635   2.834 -23.390  0.00  0.00    +0.072 C 
ATOM      7  C   UNL     1      -2.937   3.260 -23.788  0.00  0.00    +0.071 C 
ATOM      8  C   UNL     1      -3.960   3.131 -22.821  0.00  0.00    +0.133 C 
ATOM      9  N   UNL     1      -3.606   2.599 -21.562  0.00  0.00    +0.239 N 
ATOM     10  H   UNL     1      -4.303   2.484 -20.825  0.00  0.00    +0.204 HD
ATOM     11  C   UNL     1      -4.451   2.452 -20.650  0.00  0.00    +0.191 C 
ATOM     12  C   UNL     1      -2.238   2.237 -21.377  0.00  0.00    +0.096 C 
ATOM     13  C   UNL     1      -2.524   2.711 -22.517  0.00  0.00    -0.010 C 
ATOM     14  C   UNL     1      -3.716   3.060 -22.771  0.00  0.00    +0.000 C 
ATOM     15  C   UNL     1      -4.005   3.529 -23.896  0.00  0.00    +0.136 C 
ATOM     16 CL   UNL     1      -5.184   3.874 -24.143  0.00  0.00    -0.115 Cl
ATOM     17  C   UNL     1      -3.111   3.657 -24.784  0.00  0.00    +0.180 C 
ATOM     18  C   UNL     1      -1.933   3.312 -24.534  0.00  0.00    +0.149 C 
ATOM     19  C   UNL     1      -1.937   3.739 -25.714  0.00  0.00    +0.060 C 
ATOM     20  O   UNL     1      -0.514   3.189 -25.041  0.00  0.00    -0.478 OA
ATOM     21  C   UNL     1      -1.061   1.891 -21.124  0.00  0.00    +0.094 C 
ATOM     22  C   UNL     1       0.438   2.616 -24.027  0.00  0.00    +0.167 A 
ENDROOT
BRANCH   1  24
ATOM     23  C   UNL     1       3.709   2.091 -24.378  0.00  0.00    +0.277 C 
ATOM     24  O   UNL     1       2.521   2.390 -24.647  0.00  0.00    -0.491 OA
ENDBRANCH   1  24
BRANCH  17  25
ATOM     25  O   UNL     1      -3.405   4.127 -25.909  0.00  0.00    -0.386 OA
ATOM     26  H   UNL     1      -4.353   4.331 -25.937  0.00  0.00    +0.210 HD
ENDBRANCH  17  25
TORSDOF 2
ENDMDL
MODEL 2
REMARK VINA RESULT:   -10.898      1.868      3.097
REMARK INTER + INTRA:         -11.972
REMARK INTER:                 -11.830
REMARK INTRA:                  -0.141
REMARK UNBOUND:                -0.117
REMARK  Name = COc1ccc2c3c1O[C@]1(C)[C@H](O)[C@H](Cl)C=C4[C@@H](C2)N(C)CC[C@@]431   ZINC000100393464
REMARK  5 active torsions:
REMARK  status: ('A' for Active; 'I' for Inactive)
REMARK    1  A    between atoms: C_1  and  O_2
REMARK    2  A    between atoms: O_2  and  C_3
REMARK    3  A    between atoms: C_10  and  C_11
REMARK    4  A    between atoms: C_12  and  O_13
REMARK    5  A    between atoms: N_20  and  C_21
REMARK                            x       y       z     vdW  Elec       q    Type
REMARK                         _______ _______ _______ _____ _____    ______ ____
ROOT
ATOM      1  C   UNL     1       1.338   3.091 -23.312  0.00  0.00    +0.162 A 
ATOM      2  C   UNL     1       1.577   3.226 -24.549  0.00  0.00    +0.050 A 
ATOM      3  C   UNL     1       0.639   3.380 -25.364  0.00  0.00    +0.008 A 
ATOM      4  C   UNL     1      -0.549   3.402 -24.956  0.00  0.00    -0.034 A 
ATOM      5  C   UNL     1      -0.807   3.269 -23.727  0.00  0.00    +0.016 A 
ATOM      6  C   UNL     1      -1.993   3.291 -23.323  0.00  0.00    +0.072 C 
ATOM      7  C   UNL     1      -3.298   3.300 -22.746  0.00  0.00    +0.071 C 
ATOM      8  C   UNL     1      -4.376   3.472 -23.643  0.00  0.00    +0.133 C 
ATOM      9  N   UNL     1      -4.070   3.619 -25.014  0.00  0.00    +0.239 N 
ATOM     10  H   UNL     1      -4.809   3.747 -25.707  0.00  0.00    +0.204 HD
ATOM     11  C   UNL     1      -4.967   3.776 -25.874  0.00  0.00    +0.191 C 
ATOM     12  C   UNL     1      -2.690   3.580 -25.374  0.00  0.00    +0.096 C 
ATOM     13  C   UNL     1      -2.933   3.445 -24.137  0.00  0.00    -0.010 C 
ATOM     14  C   UNL     1      -4.131   3.467 -23.726  0.00  0.00    +0.000 C 
ATOM     15  C   UNL     1      -4.378   3.335 -22.505  0.00  0.00    +0.136 C 
ATOM     16 CL   UNL     1      -5.563   3.357 -22.102  0.00  0.00    -0.115 Cl
ATOM     17  C   UNL     1      -3.432   3.179 -21.675  0.00  0.00    +0.180 C 
ATOM     18  C   UNL     1      -2.247   3.157 -22.081  0.00  0.00    +0.149 C 
ATOM     19  C   UNL     1      -2.202   3.004 -20.836  0.00  0.00    +0.060 C 
ATOM     20  O   UNL     1      -0.786   3.026 -21.717  0.00  0.00    -0.478 OA
ATOM     21  C   UNL     1      -1.506   3.558 -25.782  0.00  0.00    +0.094 C 
ATOM     22  C   UNL     1       0.137   3.113 -22.901  0.00  0.00    +0.167 A 
ENDROOT
BRANCH   1  24
ATOM     23  C   UNL     1       2.497   1.808 -21.999  0.00  0.00    +0.277 C 
ATOM     24  O   UNL     1       2.279   2.937 -22.498  0.00  0.00    -0.491 OA
ENDBRANCH   1  24
BRANCH  17  25
ATOM     25  O   UNL     1      -3.683   3.047 -20.454  0.00  0.00    -0.386 OA
ATOM     26  H   UNL     1      -4.641   3.106 -20.312  0.00  0.00    +0.210 HD
ENDBRANCH  17  25
TORSDOF 2
ENDMDL
MODEL 3
REMARK VINA RESULT:   -10.781      2.373      4.938
REMARK INTER + INTRA:         -11.843
REMARK INTER:                 -11.731
REMARK INTRA:                  -0.113
REMARK UNBOUND:                -0.117
REMARK  Name = COc1ccc2c3c1O[C@]1(C)[C@H](O)[C@H](Cl)C=C4[C@@H](C2)N(C)CC[C@@]431   ZINC000100393464
REMARK  5 active torsions:
REMARK  status: ('A' for Active; 'I' for Inactive)
REMARK    1  A    between atoms: C_1  and  O_2
REMARK    2  A    between atoms: O_2  and  C_3
REMARK    3  A    between atoms: C_10  and  C_11
REMARK    4  A    between atoms: C_12  and  O_13
REMARK    5  A    between atoms: N_20  and  C_21
REMARK                            x       y       z     vdW  Elec       q    Type
REMARK                         _______ _______ _______ _____ _____    ______ ____
ROOT
ATOM      1  C   UNL     1      -3.468   3.321 -23.139  0.00  0.00    +0.162 A 
ATOM      2  C   UNL     1      -3.712   2.835 -21.995  0.00  0.00    +0.050 A 
ATOM      3  C   UNL     1      -2.799   2.302 -21.322  0.00  0.00    +0.008 A 
ATOM      4  C   UNL     1      -1.632   2.247 -21.784  0.00  0.00    -0.034 A 
ATOM      5  C   UNL     1      -1.369   2.726 -22.922  0.00  0.00    +0.016 A 
ATOM      6  C   UNL     1      -0.204   2.670 -23.379  0.00  0.00    +0.072 C 
ATOM      7  C   UNL     1       1.080   2.664 -24.002  0.00  0.00    +0.071 C 
ATOM      8  C   UNL     1       2.129   2.069 -23.267  0.00  0.00    +0.133 C 
ATOM      9  N   UNL     1       1.818   1.539 -21.995  0.00  0.00    +0.239 N 
ATOM     10  H   UNL     1       2.537   1.098 -21.420  0.00  0.00    +0.204 HD
ATOM     11  C   UNL     1       2.690   0.995 -21.279  0.00  0.00    +0.191 C 
ATOM     12  C   UNL     1       0.463   1.652 -21.564  0.00  0.00    +0.096 C 
ATOM     13  C   UNL     1       0.711   2.137 -22.708  0.00  0.00    -0.010 C 
ATOM     14  C   UNL     1       1.888   2.081 -23.173  0.00  0.00    +0.000 C 
ATOM     15  C   UNL     1       2.140   2.559 -24.304  0.00  0.00    +0.136 C 
ATOM     16 CL   UNL     1       3.304   2.502 -24.760  0.00  0.00    -0.115 Cl
ATOM     17  C   UNL     1       1.220   3.099 -24.988  0.00  0.00    +0.180 C 
ATOM     18  C   UNL     1       0.056   3.155 -24.529  0.00  0.00    +0.149 C 
ATOM     19  C   UNL     1       0.021   3.699 -25.659  0.00  0.00    +0.060 C 
ATOM     20  O   UNL     1      -1.374   3.595 -24.751  0.00  0.00    -0.478 OA
ATOM     21  C   UNL     1      -0.700   1.706 -21.103  0.00  0.00    +0.094 C 
ATOM     22  C   UNL     1      -2.288   3.265 -23.604  0.00  0.00    +0.167 A 
ENDROOT
BRANCH   1  24
ATOM     23  C   UNL     1      -5.572   3.776 -23.420  0.00  0.00    +0.277 C 
ATOM     24  O   UNL     1      -4.383   3.853 -23.809  0.00  0.00    -0.491 OA
ENDBRANCH   1  24
BRANCH  17  25
ATOM     25  O   UNL     1       1.476   3.576 -26.119  0.00  0.00    -0.386 OA
ATOM     26  H   UNL     1       1.501   4.544 -26.064  0.00  0.00    +0.210 HD
ENDBRANCH  17  25
TORSDOF 2
ENDMDL
MODEL 4
REMARK VINA RESULT:   -10.670      2.637      5.606
REMARK INTER + INTRA:         -11.723
REMARK INTER:                 -11.666
REMARK INTRA:                  -0.056
REMARK UNBOUND:                -0.117
REMARK  Name = COc1ccc2c3c1O[C@]1(C)[C@H](O)[C@H](Cl)C=C4[C@@H](C2)N(C)CC[C@@]431   ZINC000100393464
REMARK  5 active torsions:
REMARK  status: ('A' for Active; 'I' for Inactive)
REMARK    1  A    between atoms: C_1  and  O_2
REMARK    2  A    between atoms: O_2  and  C_3
REMARK    3  A    between atoms: C_10  and  C_11
REMARK    4  A    between atoms: C_12  and  O_13
REMARK    5  A    between atoms: N_20  and  C_21
REMARK                            x       y       z     vdW  Elec       q    Type
REMARK                         _______ _______ _______ _____ _____    ______ ____
ROOT
ATOM      1  C   UNL     1      -4.637   3.710 -23.090  0.00  0.00    +0.162 A 
ATOM      2  C   UNL     1      -4.814   4.152 -24.264  0.00  0.00    +0.050 A 
ATOM      3  C   UNL     1      -3.872   4.157 -25.090  0.00  0.00    +0.008 A 
ATOM      4  C   UNL     1      -2.742   3.721 -24.754  0.00  0.00    -0.034 A 
ATOM      5  C   UNL     1      -2.547   3.276 -23.589  0.00  0.00    +0.016 A 
ATOM      6  C   UNL     1      -1.420   2.842 -23.258  0.00  0.00    +0.072 C 
ATOM      7  C   UNL     1      -0.185   2.324 -22.766  0.00  0.00    +0.071 C 
ATOM      8  C   UNL     1       0.897   2.318 -23.676  0.00  0.00    +0.133 C 
ATOM      9  N   UNL     1       0.661   2.818 -24.976  0.00  0.00    +0.239 N 
ATOM     10  H   UNL     1       1.405   2.838 -25.674  0.00  0.00    +0.204 HD
ATOM     11  C   UNL     1       1.565   2.848 -25.842  0.00  0.00    +0.191 C 
ATOM     12  C   UNL     1      -0.656   3.290 -25.255  0.00  0.00    +0.096 C 
ATOM     13  C   UNL     1      -0.476   2.847 -24.082  0.00  0.00    -0.010 C 
ATOM     14  C   UNL     1       0.663   2.407 -23.744  0.00  0.00    +0.000 C 
ATOM     15  C   UNL     1       0.848   1.968 -22.585  0.00  0.00    +0.136 C 
ATOM     16 CL   UNL     1       1.975   1.534 -22.255  0.00  0.00    -0.115 Cl
ATOM     17  C   UNL     1      -0.102   1.960 -21.746  0.00  0.00    +0.180 C 
ATOM     18  C   UNL     1      -1.229   2.395 -22.079  0.00  0.00    +0.149 C 
ATOM     19  C   UNL     1      -1.327   2.024 -20.884  0.00  0.00    +0.060 C 
ATOM     20  O   UNL     1      -2.656   2.665 -21.661  0.00  0.00    -0.478 OA
ATOM     21  C   UNL     1      -1.782   3.725 -25.591  0.00  0.00    +0.094 C 
ATOM     22  C   UNL     1      -3.496   3.270 -22.753  0.00  0.00    +0.167 A 
ENDROOT
BRANCH   1  24
ATOM     23  C   UNL     1      -5.945   2.631 -21.734  0.00  0.00    +0.277 C 
ATOM     24  O   UNL     1      -5.582   3.706 -22.267  0.00  0.00    -0.491 OA
ENDBRANCH   1  24
BRANCH  17  25
ATOM     25  O   UNL     1       0.087   1.519 -20.587  0.00  0.00    -0.386 OA
ATOM     26  H   UNL     1      -0.141   0.578 -20.559  0.00  0.00    +0.210 HD
ENDBRANCH  17  25
TORSDOF 2
ENDMDL
MODEL 5
REMARK VINA RESULT:   -10.259      1.170      1.642
REMARK INTER + INTRA:         -11.276
REMARK INTER:                 -11.127
REMARK INTRA:                  -0.149
REMARK UNBOUND:                -0.117
REMARK  Name = COc1ccc2c3c1O[C@]1(C)[C@H](O)[C@H](Cl)C=C4[C@@H](C2)N(C)CC[C@@]431   ZINC000100393464
REMARK  5 active torsions:
REMARK  status: ('A' for Active; 'I' for Inactive)
REMARK    1  A    between atoms: C_1  and  O_2
REMARK    2  A    between atoms: O_2  and  C_3
REMARK    3  A    between atoms: C_10  and  C_11
REMARK    4  A    between atoms: C_12  and  O_13
REMARK    5  A    between atoms: N_20  and  C_21
REMARK                            x       y       z     vdW  Elec       q    Type
REMARK                         _______ _______ _______ _____ _____    ______ ____
ROOT
ATOM      1  C   UNL     1       3.164   1.900 -22.973  0.00  0.00    +0.162 A 
ATOM      2  C   UNL     1       3.208   1.452 -21.789  0.00  0.00    +0.050 A 
ATOM      3  C   UNL     1       2.162   1.362 -21.104  0.00  0.00    +0.008 A 
ATOM      4  C   UNL     1       1.061   1.719 -21.593  0.00  0.00    -0.034 A 
ATOM      5  C   UNL     1       0.997   2.168 -22.770  0.00  0.00    +0.016 A 
ATOM      6  C   UNL     1      -0.102   2.522 -23.254  0.00  0.00    +0.072 C 
ATOM      7  C   UNL     1      -1.293   2.956 -23.911  0.00  0.00    +0.071 C 
ATOM      8  C   UNL     1      -2.488   2.866 -23.162  0.00  0.00    +0.133 C 
ATOM      9  N   UNL     1      -2.399   2.361 -21.846  0.00  0.00    +0.239 N 
ATOM     10  H   UNL     1      -3.230   2.274 -21.260  0.00  0.00    +0.204 HD
ATOM     11  C   UNL     1      -3.410   2.249 -21.116  0.00  0.00    +0.191 C 
ATOM     12  C   UNL     1      -1.101   1.985 -21.387  0.00  0.00    +0.096 C 
ATOM     13  C   UNL     1      -1.149   2.434 -22.571  0.00  0.00    -0.010 C 
ATOM     14  C   UNL     1      -2.260   2.793 -23.063  0.00  0.00    +0.000 C 
ATOM     15  C   UNL     1      -2.314   3.238 -24.233  0.00  0.00    +0.136 C 
ATOM     16 CL   UNL     1      -3.413   3.592 -24.716  0.00  0.00    -0.115 Cl
ATOM     17  C   UNL     1      -1.260   3.330 -24.930  0.00  0.00    +0.180 C 
ATOM     18  C   UNL     1      -0.160   2.975 -24.445  0.00  0.00    +0.149 C 
ATOM     19  C   UNL     1       0.076   3.373 -25.611  0.00  0.00    +0.060 C 
ATOM     20  O   UNL     1       1.328   2.819 -24.659  0.00  0.00    -0.478 OA
ATOM     21  C   UNL     1      -0.004   1.629 -20.899  0.00  0.00    +0.094 C 
ATOM     22  C   UNL     1       2.050   2.260 -23.465  0.00  0.00    +0.167 A 
ENDROOT
BRANCH   1  24
ATOM     23  C   UNL     1       4.895   3.039 -23.621  0.00  0.00    +0.277 C 
ATOM     24  O   UNL     1       4.211   1.989 -23.656  0.00  0.00    -0.491 OA
ENDBRANCH   1  24
BRANCH  17  25
ATOM     25  O   UNL     1      -1.317   3.776 -26.101  0.00  0.00    -0.386 OA
ATOM     26  H   UNL     1      -0.699   3.285 -26.664  0.00  0.00    +0.210 HD
ENDBRANCH  17  25
TORSDOF 2
ENDMDL
MODEL 6
REMARK VINA RESULT:   -10.065      3.502      6.427
REMARK INTER + INTRA:         -11.065
REMARK INTER:                 -10.945
REMARK INTRA:                  -0.120
REMARK UNBOUND:                -0.117
REMARK  Name = COc1ccc2c3c1O[C@]1(C)[C@H](O)[C@H](Cl)C=C4[C@@H](C2)N(C)CC[C@@]431   ZINC000100393464
REMARK  5 active torsions:
REMARK  status: ('A' for Active; 'I' for Inactive)
REMARK    1  A    between atoms: C_1  and  O_2
REMARK    2  A    between atoms: O_2  and  C_3
REMARK    3  A    between atoms: C_10  and  C_11
REMARK    4  A    between atoms: C_12  and  O_13
REMARK    5  A    between atoms: N_20  and  C_21
REMARK                            x       y       z     vdW  Elec       q    Type
REMARK                         _______ _______ _______ _____ _____    ______ ____
ROOT
ATOM      1  C   UNL     1      -1.243   3.267 -23.362  0.00  0.00    +0.162 A 
ATOM      2  C   UNL     1      -1.331   4.506 -23.612  0.00  0.00    +0.050 A 
ATOM      3  C   UNL     1      -0.306   5.228 -23.618  0.00  0.00    +0.008 A 
ATOM      4  C   UNL     1       0.818   4.721 -23.375  0.00  0.00    -0.034 A 
ATOM      5  C   UNL     1       0.926   3.489 -23.125  0.00  0.00    +0.016 A 
ATOM      6  C   UNL     1       2.047   2.987 -22.884  0.00  0.00    +0.072 C 
ATOM      7  C   UNL     1       3.267   2.304 -22.596  0.00  0.00    +0.071 C 
ATOM      8  C   UNL     1       4.440   3.093 -22.596  0.00  0.00    +0.133 C 
ATOM      9  N   UNL     1       4.302   4.470 -22.878  0.00  0.00    +0.239 N 
ATOM     10  H   UNL     1       5.114   5.088 -22.891  0.00  0.00    +0.204 HD
ATOM     11  C   UNL     1       5.290   5.239 -22.898  0.00  0.00    +0.191 C 
ATOM     12  C   UNL     1       2.982   4.945 -23.139  0.00  0.00    +0.096 C 
ATOM     13  C   UNL     1       3.073   3.706 -22.890  0.00  0.00    -0.010 C 
ATOM     14  C   UNL     1       4.207   3.196 -22.645  0.00  0.00    +0.000 C 
ATOM     15  C   UNL     1       4.304   1.972 -22.398  0.00  0.00    +0.136 C 
ATOM     16 CL   UNL     1       5.426   1.471 -22.157  0.00  0.00    -0.115 Cl
ATOM     17  C   UNL     1       3.271   1.238 -22.390  0.00  0.00    +0.180 C 
ATOM     18  C   UNL     1       2.150   1.741 -22.632  0.00  0.00    +0.149 C 
ATOM     19  C   UNL     1       1.955   0.519 -22.422  0.00  0.00    +0.060 C 
ATOM     20  O   UNL     1       0.663   1.510 -22.779  0.00  0.00    -0.478 OA
ATOM     21  C   UNL     1       1.862   5.451 -23.381  0.00  0.00    +0.094 C 
ATOM     22  C   UNL     1      -0.107   2.758 -23.118  0.00  0.00    +0.167 A 
ENDROOT
BRANCH   1  24
ATOM     23  C   UNL     1      -3.328   2.971 -22.835  0.00  0.00    +0.277 C 
ATOM     24  O   UNL     1      -2.269   2.549 -23.357  0.00  0.00    -0.491 OA
ENDBRANCH   1  24
BRANCH  17  25
ATOM     25  O   UNL     1       3.373   0.013 -22.142  0.00  0.00    -0.386 OA
ATOM     26  H   UNL     1       4.228  -0.312 -22.463  0.00  0.00    +0.210 HD
ENDBRANCH  17  25
TORSDOF 2
ENDMDL
MODEL 7
REMARK VINA RESULT:    -9.823      2.876      5.731
REMARK INTER + INTRA:         -10.801
REMARK INTER:                 -10.685
REMARK INTRA:                  -0.117
REMARK UNBOUND:                -0.117
REMARK  Name = COc1ccc2c3c1O[C@]1(C)[C@H](O)[C@H](Cl)C=C4[C@@H](C2)N(C)CC[C@@]431   ZINC000100393464
REMARK  5 active torsions:
REMARK  status: ('A' for Active; 'I' for Inactive)
REMARK    1  A    between atoms: C_1  and  O_2
REMARK    2  A    between atoms: O_2  and  C_3
REMARK    3  A    between atoms: C_10  and  C_11
REMARK    4  A    between atoms: C_12  and  O_13
REMARK    5  A    between atoms: N_20  and  C_21
REMARK                            x       y       z     vdW  Elec       q    Type
REMARK                         _______ _______ _______ _____ _____    ______ ____
ROOT
ATOM      1  C   UNL     1      -2.886   3.250 -24.354  0.00  0.00    +0.162 A 
ATOM      2  C   UNL     1      -2.595   3.706 -25.499  0.00  0.00    +0.050 A 
ATOM      3  C   UNL     1      -1.403   3.753 -25.881  0.00  0.00    +0.008 A 
ATOM      4  C   UNL     1      -0.487   3.344 -25.124  0.00  0.00    -0.034 A 
ATOM      5  C   UNL     1      -0.757   2.886 -23.980  0.00  0.00    +0.016 A 
ATOM      6  C   UNL     1       0.159   2.479 -23.228  0.00  0.00    +0.072 C 
ATOM      7  C   UNL     1       1.113   1.988 -22.287  0.00  0.00    +0.071 C 
ATOM      8  C   UNL     1       2.466   2.028 -22.691  0.00  0.00    +0.133 C 
ATOM      9  N   UNL     1       2.751   2.544 -23.974  0.00  0.00    +0.239 N 
ATOM     10  H   UNL     1       3.711   2.597 -24.318  0.00  0.00    +0.204 HD
ATOM     11  C   UNL     1       3.924   2.614 -24.408  0.00  0.00    +0.191 C 
ATOM     12  C   UNL     1       1.639   2.982 -24.754  0.00  0.00    +0.096 C 
ATOM     13  C   UNL     1       1.352   2.524 -23.608  0.00  0.00    -0.010 C 
ATOM     14  C   UNL     1       2.276   2.112 -22.845  0.00  0.00    +0.000 C 
ATOM     15  C   UNL     1       1.999   1.659 -21.711  0.00  0.00    +0.136 C 
ATOM     16 CL   UNL     1       2.915   1.252 -20.960  0.00  0.00    -0.115 Cl
ATOM     17  C   UNL     1       0.795   1.610 -21.320  0.00  0.00    +0.180 C 
ATOM     18  C   UNL     1      -0.120   2.017 -22.073  0.00  0.00    +0.149 C 
ATOM     19  C   UNL     1      -0.674   1.624 -21.018  0.00  0.00    +0.060 C 
ATOM     20  O   UNL     1      -1.605   2.239 -22.258  0.00  0.00    -0.478 OA
ATOM     21  C   UNL     1       0.727   3.389 -25.509  0.00  0.00    +0.094 C 
ATOM     22  C   UNL     1      -1.960   2.837 -23.591  0.00  0.00    +0.167 A 
ENDROOT
BRANCH   1  24
ATOM     23  C   UNL     1      -4.902   4.056 -24.389  0.00  0.00    +0.277 C 
ATOM     24  O   UNL     1      -4.080   3.205 -23.975  0.00  0.00    -0.491 OA
ENDBRANCH   1  24
BRANCH  17  25
ATOM     25  O   UNL     1       0.521   1.155 -20.184  0.00  0.00    -0.386 OA
ATOM     26  H   UNL     1      -0.320   1.531 -19.880  0.00  0.00    +0.210 HD
ENDBRANCH  17  25
TORSDOF 2
ENDMDL
MODEL 8
REMARK VINA RESULT:    -9.135      3.071      5.599
REMARK INTER + INTRA:         -10.053
REMARK INTER:                  -9.931
REMARK INTRA:                  -0.122
REMARK UNBOUND:                -0.117
REMARK  Name = COc1ccc2c3c1O[C@]1(C)[C@H](O)[C@H](Cl)C=C4[C@@H](C2)N(C)CC[C@@]431   ZINC000100393464
REMARK  5 active torsions:
REMARK  status: ('A' for Active; 'I' for Inactive)
REMARK    1  A    between atoms: C_1  and  O_2
REMARK    2  A    between atoms: O_2  and  C_3
REMARK    3  A    between atoms: C_10  and  C_11
REMARK    4  A    between atoms: C_12  and  O_13
REMARK    5  A    between atoms: N_20  and  C_21
REMARK                            x       y       z     vdW  Elec       q    Type
REMARK                         _______ _______ _______ _____ _____    ______ ____
ROOT
ATOM      1  C   UNL     1      -1.879   3.868 -23.429  0.00  0.00    +0.162 A 
ATOM      2  C   UNL     1      -2.437   2.822 -22.980  0.00  0.00    +0.050 A 
ATOM      3  C   UNL     1      -1.753   1.912 -22.458  0.00  0.00    +0.008 A 
ATOM      4  C   UNL     1      -0.505   2.033 -22.377  0.00  0.00    -0.034 A 
ATOM      5  C   UNL     1       0.068   3.067 -22.819  0.00  0.00    +0.016 A 
ATOM      6  C   UNL     1       1.313   3.185 -22.737  0.00  0.00    +0.072 C 
ATOM      7  C   UNL     1       2.717   3.431 -22.701  0.00  0.00    +0.071 C 
ATOM      8  C   UNL     1       3.514   2.420 -22.116  0.00  0.00    +0.133 C 
ATOM      9  N   UNL     1       2.857   1.270 -21.627  0.00  0.00    +0.239 N 
ATOM     10  H   UNL     1       3.382   0.509 -21.195  0.00  0.00    +0.204 HD
ATOM     11  C   UNL     1       3.489   0.329 -21.095  0.00  0.00    +0.191 C 
ATOM     12  C   UNL     1       1.437   1.231 -21.767  0.00  0.00    +0.096 C 
ATOM     13  C   UNL     1       1.998   2.275 -22.215  0.00  0.00    -0.010 C 
ATOM     14  C   UNL     1       3.257   2.397 -22.134  0.00  0.00    +0.000 C 
ATOM     15  C   UNL     1       3.817   3.427 -22.575  0.00  0.00    +0.136 C 
ATOM     16 CL   UNL     1       5.061   3.544 -22.493  0.00  0.00    -0.115 Cl
ATOM     17  C   UNL     1       3.131   4.351 -23.104  0.00  0.00    +0.180 C 
ATOM     18  C   UNL     1       1.886   4.232 -23.185  0.00  0.00    +0.149 C 
ATOM     19  C   UNL     1       2.173   5.341 -23.697  0.00  0.00    +0.060 C 
ATOM     20  O   UNL     1       0.581   4.849 -23.634  0.00  0.00    -0.478 OA
ATOM     21  C   UNL     1       0.193   1.109 -21.847  0.00  0.00    +0.094 C 
ATOM     22  C   UNL     1      -0.619   3.989 -23.347  0.00  0.00    +0.167 A 
ENDROOT
BRANCH   1  24
ATOM     23  C   UNL     1      -3.449   4.491 -24.794  0.00  0.00    +0.277 C 
ATOM     24  O   UNL     1      -2.566   4.777 -23.951  0.00  0.00    -0.491 OA
ENDBRANCH   1  24
BRANCH  17  25
ATOM     25  O   UNL     1       3.696   5.380 -23.545  0.00  0.00    -0.386 OA
ATOM     26  H   UNL     1       3.417   5.535 -24.460  0.00  0.00    +0.210 HD
ENDBRANCH  17  25
TORSDOF 2
ENDMDL
MODEL 9
REMARK VINA RESULT:    -8.731      2.721      3.888
REMARK INTER + INTRA:          -9.614
REMARK INTER:                  -9.496
REMARK INTRA:                  -0.117
REMARK UNBOUND:                -0.117
REMARK  Name = COc1ccc2c3c1O[C@]1(C)[C@H](O)[C@H](Cl)C=C4[C@@H](C2)N(C)CC[C@@]431   ZINC000100393464
REMARK  5 active torsions:
REMARK  status: ('A' for Active; 'I' for Inactive)
REMARK    1  A    between atoms: C_1  and  O_2
REMARK    2  A    between atoms: O_2  and  C_3
REMARK    3  A    between atoms: C_10  and  C_11
REMARK    4  A    between atoms: C_12  and  O_13
REMARK    5  A    between atoms: N_20  and  C_21
REMARK                            x       y       z     vdW  Elec       q    Type
REMARK                         _______ _______ _______ _____ _____    ______ ____
ROOT
ATOM      1  C   UNL     1       5.289   3.118 -23.094  0.00  0.00    +0.162 A 
ATOM      2  C   UNL     1       5.541   1.953 -22.665  0.00  0.00    +0.050 A 
ATOM      3  C   UNL     1       4.613   1.204 -22.279  0.00  0.00    +0.008 A 
ATOM      4  C   UNL     1       3.424   1.609 -22.317  0.00  0.00    -0.034 A 
ATOM      5  C   UNL     1       3.154   2.767 -22.742  0.00  0.00    +0.016 A 
ATOM      6  C   UNL     1       1.968   3.167 -22.778  0.00  0.00    +0.072 C 
ATOM      7  C   UNL     1       0.661   3.732 -22.867  0.00  0.00    +0.071 C 
ATOM      8  C   UNL     1      -0.406   2.910 -22.438  0.00  0.00    +0.133 C 
ATOM      9  N   UNL     1      -0.086   1.617 -21.966  0.00  0.00    +0.239 N 
ATOM     10  H   UNL     1      -0.816   0.981 -21.644  0.00  0.00    +0.204 HD
ATOM     11  C   UNL     1      -0.972   0.826 -21.568  0.00  0.00    +0.191 C 
ATOM     12  C   UNL     1       1.294   1.255 -21.964  0.00  0.00    +0.096 C 
ATOM     13  C   UNL     1       1.039   2.420 -22.393  0.00  0.00    -0.010 C 
ATOM     14  C   UNL     1      -0.160   2.828 -22.431  0.00  0.00    +0.000 C 
ATOM     15  C   UNL     1      -0.419   3.978 -22.854  0.00  0.00    +0.136 C 
ATOM     16 CL   UNL     1      -1.605   4.378 -22.890  0.00  0.00    -0.115 Cl
ATOM     17  C   UNL     1       0.515   4.740 -23.245  0.00  0.00    +0.180 C 
ATOM     18  C   UNL     1       1.701   4.338 -23.208  0.00  0.00    +0.149 C 
ATOM     19  C   UNL     1       1.734   5.505 -23.667  0.00  0.00    +0.060 C 
ATOM     20  O   UNL     1       3.155   4.654 -23.478  0.00  0.00    -0.478 OA
ATOM     21  C   UNL     1       2.478   0.851 -21.926  0.00  0.00    +0.094 C 
ATOM     22  C   UNL     1       4.088   3.525 -23.132  0.00  0.00    +0.167 A 
ENDROOT
BRANCH   1  24
ATOM     23  C   UNL     1       7.338   3.815 -22.916  0.00  0.00    +0.277 C 
ATOM     24  O   UNL     1       6.219   3.865 -23.479  0.00  0.00    -0.491 OA
ENDBRANCH   1  24
BRANCH  17  25
ATOM     25  O   UNL     1       0.253   5.891 -23.668  0.00  0.00    -0.386 OA
ATOM     26  H   UNL     1      -0.544   6.223 -23.227  0.00  0.00    +0.210 HD
ENDBRANCH  17  25
TORSDOF 2
ENDMDL
