MODEL 1
REMARK VINA RESULT:    -8.810      0.000      0.000
REMARK INTER + INTRA:         -11.058
REMARK INTER:                 -10.750
REMARK INTRA:                  -0.308
REMARK UNBOUND:                -0.445
REMARK  Name = ZINC000004104684
REMARK  5 active torsions:
REMARK  status: ('A' for Active; 'I' for Inactive)
REMARK    1  A    between atoms: N_6  and  C1*_7
REMARK    2  A    between atoms: C4*_9  and  C5*_10
REMARK    3  A    between atoms: C5*_10  and  O5*_11
REMARK    4  A    between atoms: C3*_12  and  O3*_13
REMARK    5  A    between atoms: C2*_14  and  O2*_15
REMARK                            x       y       z     vdW  Elec       q    Type
REMARK                         _______ _______ _______ _____ _____    ______ ____
ROOT
ATOM      1  O   UNL     1      -5.554   2.573 -21.278  0.00  0.00    -0.265 OA
ATOM      2  C   UNL     1      -4.383   2.784 -21.803  0.00  0.00    +0.282 A 
ATOM      3  N   UNL     1      -3.313   2.380 -21.186  0.00  0.00    -0.273 N 
ATOM      4  H   UNL     1      -3.389   1.914 -20.322  0.00  0.00    +0.173 HD
ATOM      5  C   UNL     1      -2.142   2.590 -21.711  0.00  0.00    +0.333 A 
ATOM      6  N   UNL     1      -2.041   3.205 -22.851  0.00  0.00    -0.247 N 
ATOM      7  C   UNL     1      -3.112   3.610 -23.469  0.00  0.00    +0.170 A 
ATOM      8  N   UNL     1      -3.012   4.224 -24.609  0.00  0.00    -0.234 NA
ATOM      9  C   UNL     1      -4.082   4.629 -25.226  0.00  0.00    +0.133 A 
ATOM     10  C   UNL     1      -5.253   4.418 -24.701  0.00  0.00    +0.131 A 
ATOM     11  N   UNL     1      -5.353   3.803 -23.561  0.00  0.00    -0.245 NA
ATOM     12  O   UNL     1      -1.071   2.186 -21.095  0.00  0.00    -0.246 OA
ATOM     13  C   UNL     1      -4.283   3.399 -22.944  0.00  0.00    +0.171 A 
ENDROOT
BRANCH   6  14
ATOM     14  C1* UNL     1      -0.871   3.415 -23.376  0.00  0.00    +0.257 C 
ATOM     15  O4* UNL     1      -0.174   2.558 -24.060  0.00  0.00    -0.346 OA
ATOM     16  C4* UNL     1       0.936   3.133 -24.415  0.00  0.00    +0.177 C 
ATOM     17  C3* UNL     1       0.927   4.347 -23.950  0.00  0.00    +0.178 C 
ATOM     18  C2* UNL     1      -0.191   4.521 -23.308  0.00  0.00    +0.195 C 
BRANCH  17  19
ATOM     19  O3* UNL     1       1.868   5.231 -24.101  0.00  0.00    -0.386 OA
ATOM     20  H3* UNL     1       1.836   5.865 -23.368  0.00  0.00    +0.210 HD
ENDBRANCH  17  19
BRANCH  18  21
ATOM     21  O2* UNL     1      -0.561   5.611 -22.704  0.00  0.00    -0.385 OA
ATOM     22  H2* UNL     1      -0.879   5.396 -21.813  0.00  0.00    +0.210 HD
ENDBRANCH  18  21
BRANCH  16  23
ATOM     23  C5* UNL     1       1.889   2.590 -25.113  0.00  0.00    +0.190 C 
BRANCH  23  24
ATOM     24  O5* UNL     1       1.675   2.241 -26.347  0.00  0.00    -0.392 OA
ATOM     25  H5* UNL     1       2.469   1.813 -26.704  0.00  0.00    +0.210 HD
ENDBRANCH  23  24
ENDBRANCH  16  23
ENDBRANCH   6  14
TORSDOF 5
ENDMDL
MODEL 2
REMARK VINA RESULT:    -8.483      2.551      3.985
REMARK INTER + INTRA:         -10.663
REMARK INTER:                 -10.348
REMARK INTRA:                  -0.315
REMARK UNBOUND:                -0.445
REMARK  Name = ZINC000004104684
REMARK  5 active torsions:
REMARK  status: ('A' for Active; 'I' for Inactive)
REMARK    1  A    between atoms: N_6  and  C1*_7
REMARK    2  A    between atoms: C4*_9  and  C5*_10
REMARK    3  A    between atoms: C5*_10  and  O5*_11
REMARK    4  A    between atoms: C3*_12  and  O3*_13
REMARK    5  A    between atoms: C2*_14  and  O2*_15
REMARK                            x       y       z     vdW  Elec       q    Type
REMARK                         _______ _______ _______ _____ _____    ______ ____
ROOT
ATOM      1  O   UNL     1      -2.885   3.742 -25.986  0.00  0.00    -0.265 OA
ATOM      2  C   UNL     1      -1.822   3.425 -25.308  0.00  0.00    +0.282 A 
ATOM      3  N   UNL     1      -0.659   3.416 -25.889  0.00  0.00    -0.273 N 
ATOM      4  H   UNL     1      -0.584   3.650 -26.842  0.00  0.00    +0.173 HD
ATOM      5  C   UNL     1       0.403   3.099 -25.211  0.00  0.00    +0.333 A 
ATOM      6  N   UNL     1       0.303   2.790 -23.952  0.00  0.00    -0.247 N 
ATOM      7  C   UNL     1      -0.860   2.798 -23.371  0.00  0.00    +0.170 A 
ATOM      8  N   UNL     1      -0.960   2.490 -22.112  0.00  0.00    -0.234 NA
ATOM      9  C   UNL     1      -2.123   2.498 -21.532  0.00  0.00    +0.133 A 
ATOM     10  C   UNL     1      -3.186   2.816 -22.210  0.00  0.00    +0.131 A 
ATOM     11  N   UNL     1      -3.086   3.124 -23.468  0.00  0.00    -0.245 NA
ATOM     12  O   UNL     1       1.567   3.090 -25.791  0.00  0.00    -0.246 OA
ATOM     13  C   UNL     1      -1.923   3.116 -24.049  0.00  0.00    +0.171 A 
ENDROOT
BRANCH   6  14
ATOM     14  C1* UNL     1       1.366   2.472 -23.274  0.00  0.00    +0.257 C 
ATOM     15  O4* UNL     1       1.682   1.281 -22.861  0.00  0.00    -0.346 OA
ATOM     16  C4* UNL     1       2.810   1.363 -22.222  0.00  0.00    +0.177 C 
ATOM     17  C3* UNL     1       3.193   2.605 -22.239  0.00  0.00    +0.178 C 
ATOM     18  C2* UNL     1       2.300   3.291 -22.890  0.00  0.00    +0.195 C 
BRANCH  17  19
ATOM     19  O3* UNL     1       4.278   3.079 -21.701  0.00  0.00    -0.386 OA
ATOM     20  H3* UNL     1       4.361   2.744 -20.794  0.00  0.00    +0.210 HD
ENDBRANCH  17  19
BRANCH  18  21
ATOM     21  O2* UNL     1       2.336   4.571 -23.116  0.00  0.00    -0.385 OA
ATOM     22  H2* UNL     1       3.223   4.910 -22.919  0.00  0.00    +0.210 HD
ENDBRANCH  18  21
BRANCH  16  23
ATOM     23  C5* UNL     1       3.445   0.376 -21.663  0.00  0.00    +0.190 C 
BRANCH  23  24
ATOM     24  O5* UNL     1       3.564   0.328 -20.369  0.00  0.00    -0.392 OA
ATOM     25  H5* UNL     1       2.913   0.922 -19.963  0.00  0.00    +0.210 HD
ENDBRANCH  23  24
ENDBRANCH  16  23
ENDBRANCH   6  14
TORSDOF 5
ENDMDL
MODEL 3
REMARK VINA RESULT:    -8.465      3.346      4.537
REMARK INTER + INTRA:         -10.642
REMARK INTER:                 -10.342
REMARK INTRA:                  -0.300
REMARK UNBOUND:                -0.445
REMARK  Name = ZINC000004104684
REMARK  5 active torsions:
REMARK  status: ('A' for Active; 'I' for Inactive)
REMARK    1  A    between atoms: N_6  and  C1*_7
REMARK    2  A    between atoms: C4*_9  and  C5*_10
REMARK    3  A    between atoms: C5*_10  and  O5*_11
REMARK    4  A    between atoms: C3*_12  and  O3*_13
REMARK    5  A    between atoms: C2*_14  and  O2*_15
REMARK                            x       y       z     vdW  Elec       q    Type
REMARK                         _______ _______ _______ _____ _____    ______ ____
ROOT
ATOM      1  O   UNL     1      -2.686   2.490 -22.541  0.00  0.00    -0.265 OA
ATOM      2  C   UNL     1      -1.394   2.367 -22.477  0.00  0.00    +0.282 A 
ATOM      3  N   UNL     1      -0.842   1.843 -21.423  0.00  0.00    -0.273 N 
ATOM      4  H   UNL     1      -1.404   1.539 -20.674  0.00  0.00    +0.173 HD
ATOM      5  C   UNL     1       0.450   1.720 -21.359  0.00  0.00    +0.333 A 
ATOM      6  N   UNL     1       1.191   2.122 -22.348  0.00  0.00    -0.247 N 
ATOM      7  C   UNL     1       0.640   2.646 -23.403  0.00  0.00    +0.170 A 
ATOM      8  N   UNL     1       1.381   3.048 -24.392  0.00  0.00    -0.234 NA
ATOM      9  C   UNL     1       0.830   3.572 -25.446  0.00  0.00    +0.133 A 
ATOM     10  C   UNL     1      -0.463   3.695 -25.510  0.00  0.00    +0.131 A 
ATOM     11  N   UNL     1      -1.204   3.293 -24.521  0.00  0.00    -0.245 NA
ATOM     12  O   UNL     1       1.003   1.196 -20.305  0.00  0.00    -0.246 OA
ATOM     13  C   UNL     1      -0.653   2.769 -23.467  0.00  0.00    +0.171 A 
ENDROOT
BRANCH   6  14
ATOM     14  C1* UNL     1       2.484   1.999 -22.284  0.00  0.00    +0.257 C 
ATOM     15  O4* UNL     1       3.317   2.896 -21.846  0.00  0.00    -0.346 OA
ATOM     16  C4* UNL     1       4.518   2.409 -21.938  0.00  0.00    +0.177 C 
ATOM     17  C3* UNL     1       4.429   1.210 -22.432  0.00  0.00    +0.178 C 
ATOM     18  C2* UNL     1       3.172   0.957 -22.646  0.00  0.00    +0.195 C 
BRANCH  17  19
ATOM     19  O3* UNL     1       5.422   0.406 -22.671  0.00  0.00    -0.386 OA
ATOM     20  H3* UNL     1       5.960   0.764 -23.395  0.00  0.00    +0.210 HD
ENDBRANCH  17  19
BRANCH  18  21
ATOM     21  O2* UNL     1       2.688  -0.146 -23.137  0.00  0.00    -0.385 OA
ATOM     22  H2* UNL     1       1.971   0.062 -23.756  0.00  0.00    +0.210 HD
ENDBRANCH  18  21
BRANCH  16  23
ATOM     23  C5* UNL     1       5.616   3.015 -21.595  0.00  0.00    +0.190 C 
BRANCH  23  24
ATOM     24  O5* UNL     1       6.045   2.939 -20.370  0.00  0.00    -0.392 OA
ATOM     25  H5* UNL     1       5.932   3.799 -19.935  0.00  0.00    +0.210 HD
ENDBRANCH  23  24
ENDBRANCH  16  23
ENDBRANCH   6  14
TORSDOF 5
ENDMDL
MODEL 4
REMARK VINA RESULT:    -8.436      4.720      7.242
REMARK INTER + INTRA:         -10.608
REMARK INTER:                 -10.240
REMARK INTRA:                  -0.367
REMARK UNBOUND:                -0.445
REMARK  Name = ZINC000004104684
REMARK  5 active torsions:
REMARK  status: ('A' for Active; 'I' for Inactive)
REMARK    1  A    between atoms: N_6  and  C1*_7
REMARK    2  A    between atoms: C4*_9  and  C5*_10
REMARK    3  A    between atoms: C5*_10  and  O5*_11
REMARK    4  A    between atoms: C3*_12  and  O3*_13
REMARK    5  A    between atoms: C2*_14  and  O2*_15
REMARK                            x       y       z     vdW  Elec       q    Type
REMARK                         _______ _______ _______ _____ _____    ______ ____
ROOT
ATOM      1  O   UNL     1       5.724   0.790 -19.568  0.00  0.00    -0.265 OA
ATOM      2  C   UNL     1       4.982   1.109 -20.586  0.00  0.00    +0.282 A 
ATOM      3  N   UNL     1       4.012   0.326 -20.954  0.00  0.00    -0.273 N 
ATOM      4  H   UNL     1       3.839  -0.508 -20.460  0.00  0.00    +0.173 HD
ATOM      5  C   UNL     1       3.270   0.645 -21.972  0.00  0.00    +0.333 A 
ATOM      6  N   UNL     1       3.498   1.746 -22.624  0.00  0.00    -0.247 N 
ATOM      7  C   UNL     1       4.469   2.530 -22.257  0.00  0.00    +0.170 A 
ATOM      8  N   UNL     1       4.697   3.631 -22.908  0.00  0.00    -0.234 NA
ATOM      9  C   UNL     1       5.667   4.414 -22.541  0.00  0.00    +0.133 A 
ATOM     10  C   UNL     1       6.410   4.095 -21.522  0.00  0.00    +0.131 A 
ATOM     11  N   UNL     1       6.181   2.994 -20.871  0.00  0.00    -0.245 NA
ATOM     12  O   UNL     1       2.299  -0.138 -22.340  0.00  0.00    -0.246 OA
ATOM     13  C   UNL     1       5.211   2.211 -21.238  0.00  0.00    +0.171 A 
ENDROOT
BRANCH   6  14
ATOM     14  C1* UNL     1       2.756   2.065 -23.643  0.00  0.00    +0.257 C 
ATOM     15  O4* UNL     1       1.845   2.993 -23.665  0.00  0.00    -0.346 OA
ATOM     16  C4* UNL     1       1.321   3.012 -24.854  0.00  0.00    +0.177 C 
ATOM     17  C3* UNL     1       1.907   2.097 -25.568  0.00  0.00    +0.178 C 
ATOM     18  C2* UNL     1       2.794   1.512 -24.818  0.00  0.00    +0.195 C 
BRANCH  17  19
ATOM     19  O3* UNL     1       1.651   1.817 -26.811  0.00  0.00    -0.386 OA
ATOM     20  H3* UNL     1       0.929   2.383 -27.127  0.00  0.00    +0.210 HD
ENDBRANCH  17  19
BRANCH  18  21
ATOM     21  O2* UNL     1       3.580   0.543 -25.183  0.00  0.00    -0.385 OA
ATOM     22  H2* UNL     1       3.558  -0.161 -24.516  0.00  0.00    +0.210 HD
ENDBRANCH  18  21
BRANCH  16  23
ATOM     23  C5* UNL     1       0.376   3.808 -25.259  0.00  0.00    +0.190 C 
BRANCH  23  24
ATOM     24  O5* UNL     1      -0.633   3.333 -25.928  0.00  0.00    -0.392 OA
ATOM     25  H5* UNL     1      -0.365   3.178 -26.847  0.00  0.00    +0.210 HD
ENDBRANCH  23  24
ENDBRANCH  16  23
ENDBRANCH   6  14
TORSDOF 5
ENDMDL
MODEL 5
REMARK VINA RESULT:    -8.341      2.577      4.974
REMARK INTER + INTRA:         -10.493
REMARK INTER:                 -10.019
REMARK INTRA:                  -0.475
REMARK UNBOUND:                -0.445
REMARK  Name = ZINC000004104684
REMARK  5 active torsions:
REMARK  status: ('A' for Active; 'I' for Inactive)
REMARK    1  A    between atoms: N_6  and  C1*_7
REMARK    2  A    between atoms: C4*_9  and  C5*_10
REMARK    3  A    between atoms: C5*_10  and  O5*_11
REMARK    4  A    between atoms: C3*_12  and  O3*_13
REMARK    5  A    between atoms: C2*_14  and  O2*_15
REMARK                            x       y       z     vdW  Elec       q    Type
REMARK                         _______ _______ _______ _____ _____    ______ ____
ROOT
ATOM      1  O   UNL     1       2.089   1.041 -20.755  0.00  0.00    -0.265 OA
ATOM      2  C   UNL     1       1.156   1.516 -21.526  0.00  0.00    +0.282 A 
ATOM      3  N   UNL     1      -0.069   1.585 -21.097  0.00  0.00    -0.273 N 
ATOM      4  H   UNL     1      -0.290   1.277 -20.189  0.00  0.00    +0.173 HD
ATOM      5  C   UNL     1      -1.001   2.061 -21.868  0.00  0.00    +0.333 A 
ATOM      6  N   UNL     1      -0.709   2.468 -23.067  0.00  0.00    -0.247 N 
ATOM      7  C   UNL     1       0.517   2.399 -23.496  0.00  0.00    +0.170 A 
ATOM      8  N   UNL     1       0.809   2.806 -24.696  0.00  0.00    -0.234 NA
ATOM      9  C   UNL     1       2.034   2.738 -25.124  0.00  0.00    +0.133 A 
ATOM     10  C   UNL     1       2.966   2.262 -24.354  0.00  0.00    +0.131 A 
ATOM     11  N   UNL     1       2.674   1.855 -23.155  0.00  0.00    -0.245 NA
ATOM     12  O   UNL     1      -2.227   2.130 -21.440  0.00  0.00    -0.246 OA
ATOM     13  C   UNL     1       1.449   1.924 -22.726  0.00  0.00    +0.171 A 
ENDROOT
BRANCH   6  14
ATOM     14  C1* UNL     1      -1.642   2.944 -23.838  0.00  0.00    +0.257 C 
ATOM     15  O4* UNL     1      -2.342   2.267 -24.699  0.00  0.00    -0.346 OA
ATOM     16  C4* UNL     1      -3.170   3.085 -25.276  0.00  0.00    +0.177 C 
ATOM     17  C3* UNL     1      -2.984   4.268 -24.771  0.00  0.00    +0.178 C 
ATOM     18  C2* UNL     1      -2.039   4.181 -23.882  0.00  0.00    +0.195 C 
BRANCH  17  19
ATOM     19  O3* UNL     1      -3.629   5.349 -25.098  0.00  0.00    -0.386 OA
ATOM     20  H3* UNL     1      -3.447   5.564 -26.026  0.00  0.00    +0.210 HD
ENDBRANCH  17  19
BRANCH  18  21
ATOM     21  O2* UNL     1      -1.574   5.160 -23.165  0.00  0.00    -0.385 OA
ATOM     22  H2* UNL     1      -1.189   4.808 -22.346  0.00  0.00    +0.210 HD
ENDBRANCH  18  21
BRANCH  16  23
ATOM     23  C5* UNL     1      -4.035   2.774 -26.195  0.00  0.00    +0.190 C 
BRANCH  23  24
ATOM     24  O5* UNL     1      -5.233   3.278 -26.160  0.00  0.00    -0.392 OA
ATOM     25  H5* UNL     1      -5.275   4.051 -26.746  0.00  0.00    +0.210 HD
ENDBRANCH  23  24
ENDBRANCH  16  23
ENDBRANCH   6  14
TORSDOF 5
ENDMDL
MODEL 6
REMARK VINA RESULT:    -8.021      3.040      6.384
REMARK INTER + INTRA:         -10.107
REMARK INTER:                  -9.634
REMARK INTRA:                  -0.473
REMARK UNBOUND:                -0.445
REMARK  Name = ZINC000004104684
REMARK  5 active torsions:
REMARK  status: ('A' for Active; 'I' for Inactive)
REMARK    1  A    between atoms: N_6  and  C1*_7
REMARK    2  A    between atoms: C4*_9  and  C5*_10
REMARK    3  A    between atoms: C5*_10  and  O5*_11
REMARK    4  A    between atoms: C3*_12  and  O3*_13
REMARK    5  A    between atoms: C2*_14  and  O2*_15
REMARK                            x       y       z     vdW  Elec       q    Type
REMARK                         _______ _______ _______ _____ _____    ______ ____
ROOT
ATOM      1  O   UNL     1       5.151   4.419 -22.709  0.00  0.00    -0.265 OA
ATOM      2  C   UNL     1       3.898   4.111 -22.865  0.00  0.00    +0.282 A 
ATOM      3  N   UNL     1       3.032   5.037 -23.152  0.00  0.00    -0.273 N 
ATOM      4  H   UNL     1       3.325   5.971 -23.251  0.00  0.00    +0.173 HD
ATOM      5  C   UNL     1       1.779   4.729 -23.308  0.00  0.00    +0.333 A 
ATOM      6  N   UNL     1       1.391   3.495 -23.177  0.00  0.00    -0.247 N 
ATOM      7  C   UNL     1       2.258   2.568 -22.890  0.00  0.00    +0.170 A 
ATOM      8  N   UNL     1       1.870   1.334 -22.760  0.00  0.00    -0.234 NA
ATOM      9  C   UNL     1       2.736   0.409 -22.473  0.00  0.00    +0.133 A 
ATOM     10  C   UNL     1       3.990   0.717 -22.317  0.00  0.00    +0.131 A 
ATOM     11  N   UNL     1       4.377   1.951 -22.448  0.00  0.00    -0.245 NA
ATOM     12  O   UNL     1       0.912   5.654 -23.594  0.00  0.00    -0.246 OA
ATOM     13  C   UNL     1       3.511   2.876 -22.734  0.00  0.00    +0.171 A 
ENDROOT
BRANCH   6  14
ATOM     14  C1* UNL     1       0.138   3.187 -23.333  0.00  0.00    +0.257 C 
ATOM     15  O4* UNL     1      -0.749   3.091 -22.388  0.00  0.00    -0.346 OA
ATOM     16  C4* UNL     1      -1.883   2.765 -22.932  0.00  0.00    +0.177 C 
ATOM     17  C3* UNL     1      -1.699   2.659 -24.215  0.00  0.00    +0.178 C 
ATOM     18  C2* UNL     1      -0.448   2.920 -24.462  0.00  0.00    +0.195 C 
BRANCH  17  19
ATOM     19  O3* UNL     1      -2.603   2.348 -25.094  0.00  0.00    -0.386 OA
ATOM     20  H3* UNL     1      -3.407   2.865 -24.927  0.00  0.00    +0.210 HD
ENDBRANCH  17  19
BRANCH  18  21
ATOM     21  O2* UNL     1       0.115   2.915 -25.634  0.00  0.00    -0.385 OA
ATOM     22  H2* UNL     1       0.589   3.750 -25.770  0.00  0.00    +0.210 HD
ENDBRANCH  18  21
BRANCH  16  23
ATOM     23  C5* UNL     1      -3.006   2.578 -22.305  0.00  0.00    +0.190 C 
BRANCH  23  24
ATOM     24  O5* UNL     1      -4.079   3.204 -22.689  0.00  0.00    -0.392 OA
ATOM     25  H5* UNL     1      -3.840   3.888 -23.335  0.00  0.00    +0.210 HD
ENDBRANCH  23  24
ENDBRANCH  16  23
ENDBRANCH   6  14
TORSDOF 5
ENDMDL
MODEL 7
REMARK VINA RESULT:    -7.937      3.854      6.507
REMARK INTER + INTRA:         -10.007
REMARK INTER:                  -9.518
REMARK INTRA:                  -0.489
REMARK UNBOUND:                -0.445
REMARK  Name = ZINC000004104684
REMARK  5 active torsions:
REMARK  status: ('A' for Active; 'I' for Inactive)
REMARK    1  A    between atoms: N_6  and  C1*_7
REMARK    2  A    between atoms: C4*_9  and  C5*_10
REMARK    3  A    between atoms: C5*_10  and  O5*_11
REMARK    4  A    between atoms: C3*_12  and  O3*_13
REMARK    5  A    between atoms: C2*_14  and  O2*_15
REMARK                            x       y       z     vdW  Elec       q    Type
REMARK                         _______ _______ _______ _____ _____    ______ ____
ROOT
ATOM      1  O   UNL     1       5.118   0.417 -20.745  0.00  0.00    -0.265 OA
ATOM      2  C   UNL     1       4.155   1.006 -21.389  0.00  0.00    +0.282 A 
ATOM      3  N   UNL     1       2.984   0.447 -21.461  0.00  0.00    -0.273 N 
ATOM      4  H   UNL     1       2.827  -0.423 -21.028  0.00  0.00    +0.173 HD
ATOM      5  C   UNL     1       2.020   1.036 -22.105  0.00  0.00    +0.333 A 
ATOM      6  N   UNL     1       2.228   2.184 -22.677  0.00  0.00    -0.247 N 
ATOM      7  C   UNL     1       3.399   2.744 -22.606  0.00  0.00    +0.170 A 
ATOM      8  N   UNL     1       3.606   3.893 -23.178  0.00  0.00    -0.234 NA
ATOM      9  C   UNL     1       4.777   4.452 -23.106  0.00  0.00    +0.133 A 
ATOM     10  C   UNL     1       5.741   3.864 -22.462  0.00  0.00    +0.131 A 
ATOM     11  N   UNL     1       5.533   2.715 -21.889  0.00  0.00    -0.245 NA
ATOM     12  O   UNL     1       0.849   0.476 -22.178  0.00  0.00    -0.246 OA
ATOM     13  C   UNL     1       4.363   2.155 -21.961  0.00  0.00    +0.171 A 
ENDROOT
BRANCH   6  14
ATOM     14  C1* UNL     1       1.264   2.773 -23.321  0.00  0.00    +0.257 C 
ATOM     15  O4* UNL     1       0.406   3.609 -22.817  0.00  0.00    -0.346 OA
ATOM     16  C4* UNL     1      -0.398   3.982 -23.767  0.00  0.00    +0.177 C 
ATOM     17  C3* UNL     1      -0.039   3.377 -24.860  0.00  0.00    +0.178 C 
ATOM     18  C2* UNL     1       0.990   2.630 -24.584  0.00  0.00    +0.195 C 
BRANCH  17  19
ATOM     19  O3* UNL     1      -0.606   3.497 -26.023  0.00  0.00    -0.386 OA
ATOM     20  H3* UNL     1       0.018   3.229 -26.716  0.00  0.00    +0.210 HD
ENDBRANCH  17  19
BRANCH  18  21
ATOM     21  O2* UNL     1       1.630   1.872 -25.425  0.00  0.00    -0.385 OA
ATOM     22  H2* UNL     1       1.067   1.694 -26.194  0.00  0.00    +0.210 HD
ENDBRANCH  18  21
BRANCH  16  23
ATOM     23  C5* UNL     1      -1.390   4.814 -23.646  0.00  0.00    +0.190 C 
BRANCH  23  24
ATOM     24  O5* UNL     1      -2.550   4.524 -24.157  0.00  0.00    -0.392 OA
ATOM     25  H5* UNL     1      -3.236   4.627 -23.479  0.00  0.00    +0.210 HD
ENDBRANCH  23  24
ENDBRANCH  16  23
ENDBRANCH   6  14
TORSDOF 5
ENDMDL
MODEL 8
REMARK VINA RESULT:    -7.858      3.098      4.966
REMARK INTER + INTRA:          -9.911
REMARK INTER:                  -9.436
REMARK INTRA:                  -0.475
REMARK UNBOUND:                -0.445
REMARK  Name = ZINC000004104684
REMARK  5 active torsions:
REMARK  status: ('A' for Active; 'I' for Inactive)
REMARK    1  A    between atoms: N_6  and  C1*_7
REMARK    2  A    between atoms: C4*_9  and  C5*_10
REMARK    3  A    between atoms: C5*_10  and  O5*_11
REMARK    4  A    between atoms: C3*_12  and  O3*_13
REMARK    5  A    between atoms: C2*_14  and  O2*_15
REMARK                            x       y       z     vdW  Elec       q    Type
REMARK                         _______ _______ _______ _____ _____    ______ ____
ROOT
ATOM      1  O   UNL     1      -2.144   3.403 -25.233  0.00  0.00    -0.265 OA
ATOM      2  C   UNL     1      -0.982   3.135 -24.715  0.00  0.00    +0.282 A 
ATOM      3  N   UNL     1       0.098   3.314 -25.415  0.00  0.00    -0.273 N 
ATOM      4  H   UNL     1       0.037   3.653 -26.337  0.00  0.00    +0.173 HD
ATOM      5  C   UNL     1       1.260   3.046 -24.897  0.00  0.00    +0.333 A 
ATOM      6  N   UNL     1       1.341   2.598 -23.680  0.00  0.00    -0.247 N 
ATOM      7  C   UNL     1       0.261   2.418 -22.979  0.00  0.00    +0.170 A 
ATOM      8  N   UNL     1       0.342   1.970 -21.762  0.00  0.00    -0.234 NA
ATOM      9  C   UNL     1      -0.739   1.791 -21.062  0.00  0.00    +0.133 A 
ATOM     10  C   UNL     1      -1.900   2.060 -21.580  0.00  0.00    +0.131 A 
ATOM     11  N   UNL     1      -1.982   2.507 -22.797  0.00  0.00    -0.245 NA
ATOM     12  O   UNL     1       2.341   3.225 -25.597  0.00  0.00    -0.246 OA
ATOM     13  C   UNL     1      -0.901   2.687 -23.497  0.00  0.00    +0.171 A 
ENDROOT
BRANCH   6  14
ATOM     14  C1* UNL     1       2.503   2.329 -23.162  0.00  0.00    +0.257 C 
ATOM     15  O4* UNL     1       3.231   3.141 -22.453  0.00  0.00    -0.346 OA
ATOM     16  C4* UNL     1       4.318   2.515 -22.115  0.00  0.00    +0.177 C 
ATOM     17  C3* UNL     1       4.265   1.316 -22.615  0.00  0.00    +0.178 C 
ATOM     18  C2* UNL     1       3.142   1.202 -23.261  0.00  0.00    +0.195 C 
BRANCH  17  19
ATOM     19  O3* UNL     1       5.172   0.395 -22.489  0.00  0.00    -0.386 OA
ATOM     20  H3* UNL     1       5.247  -0.100 -23.320  0.00  0.00    +0.210 HD
ENDBRANCH  17  19
BRANCH  18  21
ATOM     21  O2* UNL     1       2.732   0.144 -23.896  0.00  0.00    -0.385 OA
ATOM     22  H2* UNL     1       1.873  -0.134 -23.542  0.00  0.00    +0.210 HD
ENDBRANCH  18  21
BRANCH  16  23
ATOM     23  C5* UNL     1       5.290   3.003 -21.403  0.00  0.00    +0.190 C 
BRANCH  23  24
ATOM     24  O5* UNL     1       5.614   2.445 -20.274  0.00  0.00    -0.392 OA
ATOM     25  H5* UNL     1       5.136   2.880 -19.550  0.00  0.00    +0.210 HD
ENDBRANCH  23  24
ENDBRANCH  16  23
ENDBRANCH   6  14
TORSDOF 5
ENDMDL
MODEL 9
REMARK VINA RESULT:    -7.705      2.247      5.754
REMARK INTER + INTRA:          -9.727
REMARK INTER:                  -9.282
REMARK INTRA:                  -0.445
REMARK UNBOUND:                -0.445
REMARK  Name = ZINC000004104684
REMARK  5 active torsions:
REMARK  status: ('A' for Active; 'I' for Inactive)
REMARK    1  A    between atoms: N_6  and  C1*_7
REMARK    2  A    between atoms: C4*_9  and  C5*_10
REMARK    3  A    between atoms: C5*_10  and  O5*_11
REMARK    4  A    between atoms: C3*_12  and  O3*_13
REMARK    5  A    between atoms: C2*_14  and  O2*_15
REMARK                            x       y       z     vdW  Elec       q    Type
REMARK                         _______ _______ _______ _____ _____    ______ ____
ROOT
ATOM      1  O   UNL     1       1.997   2.416 -25.908  0.00  0.00    -0.265 OA
ATOM      2  C   UNL     1       0.958   2.621 -25.154  0.00  0.00    +0.282 A 
ATOM      3  N   UNL     1      -0.087   3.224 -25.638  0.00  0.00    -0.273 N 
ATOM      4  H   UNL     1      -0.091   3.525 -26.575  0.00  0.00    +0.173 HD
ATOM      5  C   UNL     1      -1.126   3.429 -24.884  0.00  0.00    +0.333 A 
ATOM      6  N   UNL     1      -1.120   3.031 -23.647  0.00  0.00    -0.247 N 
ATOM      7  C   UNL     1      -0.074   2.428 -23.162  0.00  0.00    +0.170 A 
ATOM      8  N   UNL     1      -0.068   2.031 -21.925  0.00  0.00    -0.234 NA
ATOM      9  C   UNL     1       0.977   1.429 -21.441  0.00  0.00    +0.133 A 
ATOM     10  C   UNL     1       2.016   1.224 -22.195  0.00  0.00    +0.131 A 
ATOM     11  N   UNL     1       2.010   1.621 -23.432  0.00  0.00    -0.245 NA
ATOM     12  O   UNL     1      -2.172   4.031 -25.367  0.00  0.00    -0.246 OA
ATOM     13  C   UNL     1       0.965   2.223 -23.916  0.00  0.00    +0.171 A 
ENDROOT
BRANCH   6  14
ATOM     14  C1* UNL     1      -2.159   3.236 -22.893  0.00  0.00    +0.257 C 
ATOM     15  O4* UNL     1      -3.265   2.554 -22.913  0.00  0.00    -0.346 OA
ATOM     16  C4* UNL     1      -4.064   3.056 -22.019  0.00  0.00    +0.177 C 
ATOM     17  C3* UNL     1      -3.452   4.049 -21.445  0.00  0.00    +0.178 C 
ATOM     18  C2* UNL     1      -2.275   4.161 -21.986  0.00  0.00    +0.195 C 
BRANCH  17  19
ATOM     19  O3* UNL     1      -3.933   4.799 -20.499  0.00  0.00    -0.386 OA
ATOM     20  H3* UNL     1      -4.441   4.251 -19.880  0.00  0.00    +0.210 HD
ENDBRANCH  17  19
BRANCH  18  21
ATOM     21  O2* UNL     1      -1.372   5.042 -21.673  0.00  0.00    -0.385 OA
ATOM     22  H2* UNL     1      -1.804   5.864 -21.394  0.00  0.00    +0.210 HD
ENDBRANCH  18  21
BRANCH  16  23
ATOM     23  C5* UNL     1      -5.264   2.638 -21.746  0.00  0.00    +0.190 C 
BRANCH  23  24
ATOM     24  O5* UNL     1      -6.291   3.389 -22.012  0.00  0.00    -0.392 OA
ATOM     25  H5* UNL     1      -6.772   3.022 -22.771  0.00  0.00    +0.210 HD
ENDBRANCH  23  24
ENDBRANCH  16  23
ENDBRANCH   6  14
TORSDOF 5
ENDMDL
