MODEL 1
REMARK VINA RESULT:   -11.256      0.000      0.000
REMARK INTER + INTRA:         -12.047
REMARK INTER:                 -11.941
REMARK INTRA:                  -0.106
REMARK UNBOUND:                -0.134
REMARK  Name = COc1ccc2c3c1OC1=C[C@H](C)C=C4[C@@H](C2)N(C)CC[C@]143                 ZINC000096316436
REMARK  4 active torsions:
REMARK  status: ('A' for Active; 'I' for Inactive)
REMARK    1  A    between atoms: C_1  and  O_2
REMARK    2  A    between atoms: O_2  and  C_3
REMARK    3  A    between atoms: C_12  and  C_13
REMARK    4  A    between atoms: N_18  and  C_19
REMARK                            x       y       z     vdW  Elec       q    Type
REMARK                         _______ _______ _______ _____ _____    ______ ____
ROOT
ATOM      1  C   UNL     1      -4.811   3.634 -22.916  0.00  0.00    +0.162 A 
ATOM      2  C   UNL     1      -4.935   4.085 -24.090  0.00  0.00    +0.050 A 
ATOM      3  C   UNL     1      -3.961   4.097 -24.871  0.00  0.00    +0.008 A 
ATOM      4  C   UNL     1      -2.853   3.659 -24.489  0.00  0.00    -0.034 A 
ATOM      5  C   UNL     1      -2.705   3.205 -23.325  0.00  0.00    +0.020 A 
ATOM      6  C   UNL     1      -1.598   2.769 -22.950  0.00  0.00    +0.088 C 
ATOM      7  C   UNL     1      -0.389   2.247 -22.408  0.00  0.00    +0.075 C 
ATOM      8  C   UNL     1       0.729   2.247 -23.266  0.00  0.00    +0.133 C 
ATOM      9  N   UNL     1       0.552   2.758 -24.568  0.00  0.00    +0.239 N 
ATOM     10  H   UNL     1       1.330   2.780 -25.227  0.00  0.00    +0.204 HD
ATOM     11  C   UNL     1       1.492   2.794 -25.390  0.00  0.00    +0.191 C 
ATOM     12  C   UNL     1      -0.748   3.232 -24.901  0.00  0.00    +0.096 C 
ATOM     13  C   UNL     1      -0.620   2.779 -23.728  0.00  0.00    -0.007 C 
ATOM     14  C   UNL     1       0.498   2.338 -23.344  0.00  0.00    -0.014 C 
ATOM     15  C   UNL     1       0.631   1.889 -22.184  0.00  0.00    +0.035 C 
ATOM     16  C   UNL     1       1.739   1.453 -21.809  0.00  0.00    +0.016 C 
ATOM     17  C   UNL     1      -0.353   1.875 -21.391  0.00  0.00    +0.023 C 
ATOM     18  C   UNL     1      -1.461   2.312 -21.768  0.00  0.00    +0.117 C 
ATOM     19  O   UNL     1      -2.900   2.580 -21.417  0.00  0.00    -0.455 OA
ATOM     20  C   UNL     1      -1.855   3.669 -25.282  0.00  0.00    +0.094 C 
ATOM     21  C   UNL     1      -3.688   3.192 -22.534  0.00  0.00    +0.174 A 
ENDROOT
BRANCH   1  23
ATOM     22  C   UNL     1      -6.287   2.538 -21.773  0.00  0.00    +0.277 C 
ATOM     23  O   UNL     1      -5.788   3.624 -22.139  0.00  0.00    -0.491 OA
ENDBRANCH   1  23
TORSDOF 1
ENDMDL
MODEL 2
REMARK VINA RESULT:   -11.153      2.155      5.530
REMARK INTER + INTRA:         -11.939
REMARK INTER:                 -11.826
REMARK INTRA:                  -0.113
REMARK UNBOUND:                -0.134
REMARK  Name = COc1ccc2c3c1OC1=C[C@H](C)C=C4[C@@H](C2)N(C)CC[C@]143                 ZINC000096316436
REMARK  4 active torsions:
REMARK  status: ('A' for Active; 'I' for Inactive)
REMARK    1  A    between atoms: C_1  and  O_2
REMARK    2  A    between atoms: O_2  and  C_3
REMARK    3  A    between atoms: C_12  and  C_13
REMARK    4  A    between atoms: N_18  and  C_19
REMARK                            x       y       z     vdW  Elec       q    Type
REMARK                         _______ _______ _______ _____ _____    ______ ____
ROOT
ATOM      1  C   UNL     1       1.625   2.245 -23.542  0.00  0.00    +0.162 A 
ATOM      2  C   UNL     1       1.708   1.671 -22.420  0.00  0.00    +0.050 A 
ATOM      3  C   UNL     1       0.699   1.548 -21.695  0.00  0.00    +0.008 A 
ATOM      4  C   UNL     1      -0.403   1.995 -22.083  0.00  0.00    -0.034 A 
ATOM      5  C   UNL     1      -0.510   2.570 -23.197  0.00  0.00    +0.020 A 
ATOM      6  C   UNL     1      -1.612   3.015 -23.578  0.00  0.00    +0.088 C 
ATOM      7  C   UNL     1      -2.810   3.561 -24.121  0.00  0.00    +0.075 C 
ATOM      8  C   UNL     1      -3.967   3.437 -23.325  0.00  0.00    +0.133 C 
ATOM      9  N   UNL     1      -3.835   2.791 -22.079  0.00  0.00    +0.239 N 
ATOM     10  H   UNL     1      -4.642   2.676 -21.466  0.00  0.00    +0.204 HD
ATOM     11  C   UNL     1      -4.811   2.641 -21.314  0.00  0.00    +0.191 C 
ATOM     12  C   UNL     1      -2.538   2.319 -21.733  0.00  0.00    +0.096 C 
ATOM     13  C   UNL     1      -2.625   2.893 -22.855  0.00  0.00    -0.007 C 
ATOM     14  C   UNL     1      -3.737   3.345 -23.246  0.00  0.00    -0.014 C 
ATOM     15  C   UNL     1      -3.829   3.914 -24.356  0.00  0.00    +0.035 C 
ATOM     16  C   UNL     1      -4.932   4.359 -24.737  0.00  0.00    +0.016 C 
ATOM     17  C   UNL     1      -2.810   4.041 -25.092  0.00  0.00    +0.023 C 
ATOM     18  C   UNL     1      -1.708   3.595 -24.708  0.00  0.00    +0.117 C 
ATOM     19  O   UNL     1      -0.245   3.406 -25.014  0.00  0.00    -0.455 OA
ATOM     20  C   UNL     1      -1.437   1.872 -21.346  0.00  0.00    +0.094 C 
ATOM     21  C   UNL     1       0.508   2.696 -23.931  0.00  0.00    +0.174 A 
ENDROOT
BRANCH   1  23
ATOM     22  C   UNL     1       3.446   1.419 -24.372  0.00  0.00    +0.277 C 
ATOM     23  O   UNL     1       2.637   2.365 -24.264  0.00  0.00    -0.491 OA
ENDBRANCH   1  23
TORSDOF 1
ENDMDL
MODEL 3
REMARK VINA RESULT:   -10.156      2.239      3.334
REMARK INTER + INTRA:         -10.884
REMARK INTER:                 -10.758
REMARK INTRA:                  -0.126
REMARK UNBOUND:                -0.134
REMARK  Name = COc1ccc2c3c1OC1=C[C@H](C)C=C4[C@@H](C2)N(C)CC[C@]143                 ZINC000096316436
REMARK  4 active torsions:
REMARK  status: ('A' for Active; 'I' for Inactive)
REMARK    1  A    between atoms: C_1  and  O_2
REMARK    2  A    between atoms: O_2  and  C_3
REMARK    3  A    between atoms: C_12  and  C_13
REMARK    4  A    between atoms: N_18  and  C_19
REMARK                            x       y       z     vdW  Elec       q    Type
REMARK                         _______ _______ _______ _____ _____    ______ ____
ROOT
ATOM      1  C   UNL     1      -1.822   3.208 -23.153  0.00  0.00    +0.162 A 
ATOM      2  C   UNL     1      -1.801   4.424 -23.493  0.00  0.00    +0.050 A 
ATOM      3  C   UNL     1      -0.718   5.039 -23.582  0.00  0.00    +0.008 A 
ATOM      4  C   UNL     1       0.355   4.446 -23.332  0.00  0.00    -0.034 A 
ATOM      5  C   UNL     1       0.359   3.235 -22.992  0.00  0.00    +0.020 A 
ATOM      6  C   UNL     1       1.433   2.649 -22.744  0.00  0.00    +0.088 C 
ATOM      7  C   UNL     1       2.589   1.875 -22.437  0.00  0.00    +0.075 C 
ATOM      8  C   UNL     1       3.827   2.542 -22.529  0.00  0.00    +0.133 C 
ATOM      9  N   UNL     1       3.810   3.899 -22.911  0.00  0.00    +0.239 N 
ATOM     10  H   UNL     1       4.679   4.426 -22.992  0.00  0.00    +0.204 HD
ATOM     11  C   UNL     1       4.864   4.562 -23.016  0.00  0.00    +0.191 C 
ATOM     12  C   UNL     1       2.536   4.478 -23.173  0.00  0.00    +0.096 C 
ATOM     13  C   UNL     1       2.519   3.261 -22.832  0.00  0.00    -0.007 C 
ATOM     14  C   UNL     1       3.603   2.664 -22.580  0.00  0.00    -0.014 C 
ATOM     15  C   UNL     1       3.592   1.459 -22.243  0.00  0.00    +0.035 C 
ATOM     16  C   UNL     1       4.667   0.874 -21.995  0.00  0.00    +0.016 C 
ATOM     17  C   UNL     1       2.498   0.834 -22.152  0.00  0.00    +0.023 C 
ATOM     18  C   UNL     1       1.424   1.423 -22.400  0.00  0.00    +0.117 C 
ATOM     19  O   UNL     1      -0.076   1.330 -22.490  0.00  0.00    -0.455 OA
ATOM     20  C   UNL     1       1.464   5.069 -23.422  0.00  0.00    +0.094 C 
ATOM     21  C   UNL     1      -0.734   2.612 -22.901  0.00  0.00    +0.174 A 
ENDROOT
BRANCH   1  23
ATOM     22  C   UNL     1      -3.755   2.944 -22.214  0.00  0.00    +0.277 C 
ATOM     23  O   UNL     1      -2.908   2.597 -23.065  0.00  0.00    -0.491 OA
ENDBRANCH   1  23
TORSDOF 1
ENDMDL
MODEL 4
REMARK VINA RESULT:   -10.087      1.355      2.785
REMARK INTER + INTRA:         -10.810
REMARK INTER:                 -10.820
REMARK INTRA:                   0.010
REMARK UNBOUND:                -0.134
REMARK  Name = COc1ccc2c3c1OC1=C[C@H](C)C=C4[C@@H](C2)N(C)CC[C@]143                 ZINC000096316436
REMARK  4 active torsions:
REMARK  status: ('A' for Active; 'I' for Inactive)
REMARK    1  A    between atoms: C_1  and  O_2
REMARK    2  A    between atoms: O_2  and  C_3
REMARK    3  A    between atoms: C_12  and  C_13
REMARK    4  A    between atoms: N_18  and  C_19
REMARK                            x       y       z     vdW  Elec       q    Type
REMARK                         _______ _______ _______ _____ _____    ______ ____
ROOT
ATOM      1  C   UNL     1      -4.247   3.610 -23.287  0.00  0.00    +0.162 A 
ATOM      2  C   UNL     1      -4.476   3.167 -22.126  0.00  0.00    +0.050 A 
ATOM      3  C   UNL     1      -3.554   2.675 -21.442  0.00  0.00    +0.008 A 
ATOM      4  C   UNL     1      -2.394   2.622 -21.909  0.00  0.00    -0.034 A 
ATOM      5  C   UNL     1      -2.142   3.058 -23.062  0.00  0.00    +0.020 A 
ATOM      6  C   UNL     1      -0.984   3.002 -23.523  0.00  0.00    +0.088 C 
ATOM      7  C   UNL     1       0.292   2.993 -24.155  0.00  0.00    +0.075 C 
ATOM      8  C   UNL     1       1.354   2.445 -23.407  0.00  0.00    +0.133 C 
ATOM      9  N   UNL     1       1.060   1.960 -22.116  0.00  0.00    +0.239 N 
ATOM     10  H   UNL     1       1.793   1.554 -21.535  0.00  0.00    +0.204 HD
ATOM     11  C   UNL     1       1.943   1.459 -21.389  0.00  0.00    +0.191 C 
ATOM     12  C   UNL     1      -0.291   2.068 -21.681  0.00  0.00    +0.096 C 
ATOM     13  C   UNL     1      -0.058   2.511 -22.841  0.00  0.00    -0.007 C 
ATOM     14  C   UNL     1       1.112   2.457 -23.311  0.00  0.00    -0.014 C 
ATOM     15  C   UNL     1       1.348   2.894 -24.459  0.00  0.00    +0.035 C 
ATOM     16  C   UNL     1       2.508   2.838 -24.919  0.00  0.00    +0.016 C 
ATOM     17  C   UNL     1       0.418   3.391 -25.154  0.00  0.00    +0.023 C 
ATOM     18  C   UNL     1      -0.741   3.446 -24.692  0.00  0.00    +0.117 C 
ATOM     19  O   UNL     1      -2.174   3.853 -24.916  0.00  0.00    -0.455 OA
ATOM     20  C   UNL     1      -1.449   2.122 -21.215  0.00  0.00    +0.094 C 
ATOM     21  C   UNL     1      -3.073   3.555 -23.756  0.00  0.00    +0.174 A 
ENDROOT
BRANCH   1  23
ATOM     22  C   UNL     1      -5.356   3.719 -25.143  0.00  0.00    +0.277 C 
ATOM     23  O   UNL     1      -5.172   4.101 -23.967  0.00  0.00    -0.491 OA
ENDBRANCH   1  23
TORSDOF 1
ENDMDL
MODEL 5
REMARK VINA RESULT:    -9.856      2.019      3.516
REMARK INTER + INTRA:         -10.565
REMARK INTER:                 -10.422
REMARK INTRA:                  -0.143
REMARK UNBOUND:                -0.134
REMARK  Name = COc1ccc2c3c1OC1=C[C@H](C)C=C4[C@@H](C2)N(C)CC[C@]143                 ZINC000096316436
REMARK  4 active torsions:
REMARK  status: ('A' for Active; 'I' for Inactive)
REMARK    1  A    between atoms: C_1  and  O_2
REMARK    2  A    between atoms: O_2  and  C_3
REMARK    3  A    between atoms: C_12  and  C_13
REMARK    4  A    between atoms: N_18  and  C_19
REMARK                            x       y       z     vdW  Elec       q    Type
REMARK                         _______ _______ _______ _____ _____    ______ ____
ROOT
ATOM      1  C   UNL     1      -2.556   3.736 -23.320  0.00  0.00    +0.162 A 
ATOM      2  C   UNL     1      -3.026   2.914 -22.484  0.00  0.00    +0.050 A 
ATOM      3  C   UNL     1      -2.263   2.185 -21.815  0.00  0.00    +0.008 A 
ATOM      4  C   UNL     1      -1.025   2.269 -21.975  0.00  0.00    -0.034 A 
ATOM      5  C   UNL     1      -0.535   3.081 -22.801  0.00  0.00    +0.020 A 
ATOM      6  C   UNL     1       0.701   3.161 -22.956  0.00  0.00    +0.088 C 
ATOM      7  C   UNL     1       2.088   3.343 -23.220  0.00  0.00    +0.075 C 
ATOM      8  C   UNL     1       2.974   2.534 -22.481  0.00  0.00    +0.133 C 
ATOM      9  N   UNL     1       2.414   1.628 -21.557  0.00  0.00    +0.239 N 
ATOM     10  H   UNL     1       3.012   1.020 -20.997  0.00  0.00    +0.204 HD
ATOM     11  C   UNL     1       3.129   0.876 -20.862  0.00  0.00    +0.191 C 
ATOM     12  C   UNL     1       0.994   1.611 -21.453  0.00  0.00    +0.096 C 
ATOM     13  C   UNL     1       1.467   2.433 -22.289  0.00  0.00    -0.007 C 
ATOM     14  C   UNL     1       2.717   2.517 -22.448  0.00  0.00    -0.014 C 
ATOM     15  C   UNL     1       3.190   3.329 -23.274  0.00  0.00    +0.035 C 
ATOM     16  C   UNL     1       4.427   3.408 -23.428  0.00  0.00    +0.016 C 
ATOM     17  C   UNL     1       2.422   4.068 -23.952  0.00  0.00    +0.023 C 
ATOM     18  C   UNL     1       1.185   3.986 -23.796  0.00  0.00    +0.117 C 
ATOM     19  O   UNL     1      -0.175   4.486 -24.203  0.00  0.00    -0.455 OA
ATOM     20  C   UNL     1      -0.242   1.528 -21.295  0.00  0.00    +0.094 C 
ATOM     21  C   UNL     1      -1.303   3.819 -23.478  0.00  0.00    +0.174 A 
ENDROOT
BRANCH   1  23
ATOM     22  C   UNL     1      -3.605   4.161 -25.166  0.00  0.00    +0.277 C 
ATOM     23  O   UNL     1      -3.323   4.463 -23.986  0.00  0.00    -0.491 OA
ENDBRANCH   1  23
TORSDOF 1
ENDMDL
MODEL 6
REMARK VINA RESULT:    -9.030      3.035      6.366
REMARK INTER + INTRA:          -9.692
REMARK INTER:                  -9.581
REMARK INTRA:                  -0.111
REMARK UNBOUND:                -0.134
REMARK  Name = COc1ccc2c3c1OC1=C[C@H](C)C=C4[C@@H](C2)N(C)CC[C@]143                 ZINC000096316436
REMARK  4 active torsions:
REMARK  status: ('A' for Active; 'I' for Inactive)
REMARK    1  A    between atoms: C_1  and  O_2
REMARK    2  A    between atoms: O_2  and  C_3
REMARK    3  A    between atoms: C_12  and  C_13
REMARK    4  A    between atoms: N_18  and  C_19
REMARK                            x       y       z     vdW  Elec       q    Type
REMARK                         _______ _______ _______ _____ _____    ______ ____
ROOT
ATOM      1  C   UNL     1       4.502   2.692 -22.995  0.00  0.00    +0.162 A 
ATOM      2  C   UNL     1       4.570   1.813 -22.090  0.00  0.00    +0.050 A 
ATOM      3  C   UNL     1       3.533   1.394 -21.535  0.00  0.00    +0.008 A 
ATOM      4  C   UNL     1       2.418   1.848 -21.878  0.00  0.00    -0.034 A 
ATOM      5  C   UNL     1       2.326   2.722 -22.777  0.00  0.00    +0.020 A 
ATOM      6  C   UNL     1       1.212   3.171 -23.115  0.00  0.00    +0.088 C 
ATOM      7  C   UNL     1       0.002   3.757 -23.585  0.00  0.00    +0.075 C 
ATOM      8  C   UNL     1      -1.186   3.304 -22.977  0.00  0.00    +0.133 C 
ATOM      9  N   UNL     1      -1.072   2.323 -21.971  0.00  0.00    +0.239 N 
ATOM     10  H   UNL     1      -1.901   1.962 -21.500  0.00  0.00    +0.204 HD
ATOM     11  C   UNL     1      -2.075   1.868 -21.383  0.00  0.00    +0.191 C 
ATOM     12  C   UNL     1       0.243   1.875 -21.656  0.00  0.00    +0.096 C 
ATOM     13  C   UNL     1       0.171   2.754 -22.562  0.00  0.00    -0.007 C 
ATOM     14  C   UNL     1      -0.954   3.210 -22.907  0.00  0.00    -0.014 C 
ATOM     15  C   UNL     1      -1.031   4.080 -23.802  0.00  0.00    +0.035 C 
ATOM     16  C   UNL     1      -2.146   4.528 -24.140  0.00  0.00    +0.016 C 
ATOM     17  C   UNL     1       0.016   4.507 -24.366  0.00  0.00    +0.023 C 
ATOM     18  C   UNL     1       1.131   4.057 -24.027  0.00  0.00    +0.117 C 
ATOM     19  O   UNL     1       2.623   4.089 -24.231  0.00  0.00    -0.455 OA
ATOM     20  C   UNL     1       1.356   1.423 -21.314  0.00  0.00    +0.094 C 
ATOM     21  C   UNL     1       3.373   3.148 -23.339  0.00  0.00    +0.174 A 
ENDROOT
BRANCH   1  23
ATOM     22  C   UNL     1       6.597   3.228 -22.888  0.00  0.00    +0.277 C 
ATOM     23  O   UNL     1       5.543   3.108 -23.548  0.00  0.00    -0.491 OA
ENDBRANCH   1  23
TORSDOF 1
ENDMDL
MODEL 7
REMARK VINA RESULT:    -8.593      2.209      3.615
REMARK INTER + INTRA:          -9.229
REMARK INTER:                  -9.090
REMARK INTRA:                  -0.139
REMARK UNBOUND:                -0.134
REMARK  Name = COc1ccc2c3c1OC1=C[C@H](C)C=C4[C@@H](C2)N(C)CC[C@]143                 ZINC000096316436
REMARK  4 active torsions:
REMARK  status: ('A' for Active; 'I' for Inactive)
REMARK    1  A    between atoms: C_1  and  O_2
REMARK    2  A    between atoms: O_2  and  C_3
REMARK    3  A    between atoms: C_12  and  C_13
REMARK    4  A    between atoms: N_18  and  C_19
REMARK                            x       y       z     vdW  Elec       q    Type
REMARK                         _______ _______ _______ _____ _____    ______ ____
ROOT
ATOM      1  C   UNL     1      -4.191   3.119 -26.105  0.00  0.00    +0.162 A 
ATOM      2  C   UNL     1      -5.255   3.673 -25.709  0.00  0.00    +0.050 A 
ATOM      3  C   UNL     1      -5.423   3.927 -24.498  0.00  0.00    +0.008 A 
ATOM      4  C   UNL     1      -4.532   3.631 -23.671  0.00  0.00    -0.034 A 
ATOM      5  C   UNL     1      -3.465   3.080 -24.043  0.00  0.00    +0.020 A 
ATOM      6  C   UNL     1      -2.580   2.787 -23.213  0.00  0.00    +0.088 C 
ATOM      7  C   UNL     1      -1.501   2.406 -22.364  0.00  0.00    +0.075 C 
ATOM      8  C   UNL     1      -1.662   2.680 -20.992  0.00  0.00    +0.133 C 
ATOM      9  N   UNL     1      -2.863   3.299 -20.586  0.00  0.00    +0.239 N 
ATOM     10  H   UNL     1      -3.028   3.518 -19.604  0.00  0.00    +0.204 HD
ATOM     11  C   UNL     1      -3.084   3.576 -19.389  0.00  0.00    +0.191 C 
ATOM     12  C   UNL     1      -3.811   3.593 -21.607  0.00  0.00    +0.096 C 
ATOM     13  C   UNL     1      -2.745   3.039 -22.000  0.00  0.00    -0.007 C 
ATOM     14  C   UNL     1      -1.847   2.741 -21.164  0.00  0.00    -0.014 C 
ATOM     15  C   UNL     1      -0.790   2.193 -21.548  0.00  0.00    +0.035 C 
ATOM     16  C   UNL     1       0.095   1.900 -20.718  0.00  0.00    +0.016 C 
ATOM     17  C   UNL     1      -0.616   1.934 -22.772  0.00  0.00    +0.023 C 
ATOM     18  C   UNL     1      -1.503   2.228 -23.601  0.00  0.00    +0.117 C 
ATOM     19  O   UNL     1      -1.937   2.222 -25.043  0.00  0.00    -0.455 OA
ATOM     20  C   UNL     1      -4.700   3.889 -22.433  0.00  0.00    +0.094 C 
ATOM     21  C   UNL     1      -3.292   2.822 -25.266  0.00  0.00    +0.174 A 
ENDROOT
BRANCH   1  23
ATOM     22  C   UNL     1      -3.279   3.589 -28.012  0.00  0.00    +0.277 C 
ATOM     23  O   UNL     1      -4.027   2.867 -27.318  0.00  0.00    -0.491 OA
ENDBRANCH   1  23
TORSDOF 1
ENDMDL
