MODEL 1
REMARK VINA RESULT:   -10.043      0.000      0.000
REMARK INTER + INTRA:         -11.494
REMARK INTER:                 -11.190
REMARK INTRA:                  -0.304
REMARK UNBOUND:                -0.277
REMARK  Name = COc1cc2c(cc1OC)[C@]13CCN[C@@H](C2)[C@@H]1CCC(=O)C3                   ZINC000100393755
REMARK  4 active torsions:
REMARK  status: ('A' for Active; 'I' for Inactive)
REMARK    1  A    between atoms: C_1  and  O_2
REMARK    2  A    between atoms: O_2  and  C_3
REMARK    3  A    between atoms: C_8  and  O_9
REMARK    4  A    between atoms: O_9  and  C_10
REMARK                            x       y       z     vdW  Elec       q    Type
REMARK                         _______ _______ _______ _____ _____    ______ ____
ROOT
ATOM      1  C   UNL     1       0.581   2.139 -22.993  0.00  0.00    +0.162 A 
ATOM      2  C   UNL     1      -0.261   1.952 -22.066  0.00  0.00    +0.053 A 
ATOM      3  C   UNL     1      -1.643   2.395 -22.263  0.00  0.00    -0.035 A 
ATOM      4  C   UNL     1      -1.897   2.858 -23.177  0.00  0.00    -0.033 A 
ATOM      5  C   UNL     1      -2.717   3.211 -23.502  0.00  0.00    +0.015 C 
ATOM      6  C   UNL     1      -1.175   2.632 -23.084  0.00  0.00    +0.063 C 
ATOM      7  C   UNL     1      -0.953   1.989 -21.741  0.00  0.00    +0.130 C 
ATOM      8  N   UNL     1      -1.887   1.902 -20.991  0.00  0.00    +0.230 N 
ATOM      9  H   UNL     1      -2.040   0.895 -20.943  0.00  0.00    +0.202 HD
ATOM     10  H   UNL     1      -1.620   2.396 -20.139  0.00  0.00    +0.202 HD
ATOM     11  C   UNL     1      -3.314   2.444 -21.390  0.00  0.00    +0.071 C 
ATOM     12  C   UNL     1      -3.001   3.771 -24.618  0.00  0.00    +0.086 C 
ATOM     13  C   UNL     1      -4.218   4.184 -24.845  0.00  0.00    +0.134 C 
ATOM     14  O   UNL     1      -4.504   4.749 -25.971  0.00  0.00    -0.297 OA
ATOM     15  C   UNL     1      -5.165   4.028 -23.927  0.00  0.00    +0.075 C 
ATOM     16  C   UNL     1      -4.911   3.458 -22.770  0.00  0.00    +0.017 C 
ATOM     17  C   UNL     1      -3.733   3.043 -22.514  0.00  0.00    +0.049 C 
ATOM     18  C   UNL     1      -1.033   3.068 -24.169  0.00  0.00    +0.054 A 
ATOM     19  C   UNL     1      -2.406   2.200 -21.366  0.00  0.00    +0.090 C 
ATOM     20  C   UNL     1       0.202   2.702 -24.059  0.00  0.00    +0.162 A 
ENDROOT
BRANCH   1  22
ATOM     21  C   UNL     1       2.676   2.266 -22.063  0.00  0.00    +0.277 C 
ATOM     22  O   UNL     1       1.857   1.779 -22.920  0.00  0.00    -0.491 OA
ENDBRANCH   1  22
BRANCH  20  23
ATOM     23  O   UNL     1       1.026   2.913 -25.028  0.00  0.00    -0.491 OA
ATOM     24  C   UNL     1       1.156   4.110 -25.508  0.00  0.00    +0.277 C 
ENDBRANCH  20  23
TORSDOF 2
ENDMDL
MODEL 2
REMARK VINA RESULT:    -9.839      2.001      3.217
REMARK INTER + INTRA:         -11.267
REMARK INTER:                 -11.074
REMARK INTRA:                  -0.192
REMARK UNBOUND:                -0.277
REMARK  Name = COc1cc2c(cc1OC)[C@]13CCN[C@@H](C2)[C@@H]1CCC(=O)C3                   ZINC000100393755
REMARK  4 active torsions:
REMARK  status: ('A' for Active; 'I' for Inactive)
REMARK    1  A    between atoms: C_1  and  O_2
REMARK    2  A    between atoms: O_2  and  C_3
REMARK    3  A    between atoms: C_8  and  O_9
REMARK    4  A    between atoms: O_9  and  C_10
REMARK                            x       y       z     vdW  Elec       q    Type
REMARK                         _______ _______ _______ _____ _____    ______ ____
ROOT
ATOM      1  C   UNL     1       0.122   3.181 -24.575  0.00  0.00    +0.162 A 
ATOM      2  C   UNL     1      -0.864   3.523 -25.292  0.00  0.00    +0.053 A 
ATOM      3  C   UNL     1      -2.203   3.534 -24.699  0.00  0.00    -0.035 A 
ATOM      4  C   UNL     1      -2.306   3.255 -23.686  0.00  0.00    -0.033 A 
ATOM      5  C   UNL     1      -3.067   3.195 -23.121  0.00  0.00    +0.015 C 
ATOM      6  C   UNL     1      -1.605   3.246 -23.986  0.00  0.00    +0.063 C 
ATOM      7  C   UNL     1      -1.603   3.664 -25.432  0.00  0.00    +0.130 C 
ATOM      8  N   UNL     1      -2.652   3.955 -25.941  0.00  0.00    +0.230 N 
ATOM      9  H   UNL     1      -2.541   4.953 -26.122  0.00  0.00    +0.202 HD
ATOM     10  H   UNL     1      -2.770   3.327 -26.736  0.00  0.00    +0.202 HD
ATOM     11  C   UNL     1      -4.002   3.904 -25.128  0.00  0.00    +0.071 C 
ATOM     12  C   UNL     1      -3.168   2.853 -21.891  0.00  0.00    +0.086 C 
ATOM     13  C   UNL     1      -4.338   2.846 -21.314  0.00  0.00    +0.134 C 
ATOM     14  O   UNL     1      -4.439   2.500 -20.073  0.00  0.00    -0.297 OA
ATOM     15  C   UNL     1      -5.427   3.190 -21.992  0.00  0.00    +0.075 C 
ATOM     16  C   UNL     1      -5.363   3.547 -23.255  0.00  0.00    +0.017 C 
ATOM     17  C   UNL     1      -4.236   3.566 -23.851  0.00  0.00    +0.049 C 
ATOM     18  C   UNL     1      -1.289   2.891 -22.908  0.00  0.00    +0.054 A 
ATOM     19  C   UNL     1      -3.105   3.863 -25.408  0.00  0.00    +0.090 C 
ATOM     20  C   UNL     1      -0.082   2.860 -23.369  0.00  0.00    +0.162 A 
ENDROOT
BRANCH   1  22
ATOM     21  C   UNL     1       1.879   2.112 -25.594  0.00  0.00    +0.277 C 
ATOM     22  O   UNL     1       1.376   3.136 -25.010  0.00  0.00    -0.491 OA
ENDBRANCH   1  22
BRANCH  20  23
ATOM     23  O   UNL     1       0.893   2.505 -22.603  0.00  0.00    -0.491 OA
ATOM     24  C   UNL     1       0.720   1.541 -21.753  0.00  0.00    +0.277 C 
ENDBRANCH  20  23
TORSDOF 2
ENDMDL
MODEL 3
REMARK VINA RESULT:    -9.766      1.928      5.476
REMARK INTER + INTRA:         -11.185
REMARK INTER:                 -11.016
REMARK INTRA:                  -0.169
REMARK UNBOUND:                -0.277
REMARK  Name = COc1cc2c(cc1OC)[C@]13CCN[C@@H](C2)[C@@H]1CCC(=O)C3                   ZINC000100393755
REMARK  4 active torsions:
REMARK  status: ('A' for Active; 'I' for Inactive)
REMARK    1  A    between atoms: C_1  and  O_2
REMARK    2  A    between atoms: O_2  and  C_3
REMARK    3  A    between atoms: C_8  and  O_9
REMARK    4  A    between atoms: O_9  and  C_10
REMARK                            x       y       z     vdW  Elec       q    Type
REMARK                         _______ _______ _______ _____ _____    ______ ____
ROOT
ATOM      1  C   UNL     1      -3.026   3.329 -23.561  0.00  0.00    +0.162 A 
ATOM      2  C   UNL     1      -2.175   3.473 -24.487  0.00  0.00    +0.053 A 
ATOM      3  C   UNL     1      -0.784   3.090 -24.238  0.00  0.00    -0.035 A 
ATOM      4  C   UNL     1      -0.531   2.704 -23.289  0.00  0.00    -0.033 A 
ATOM      5  C   UNL     1       0.295   2.402 -22.927  0.00  0.00    +0.015 C 
ATOM      6  C   UNL     1      -1.258   2.900 -23.409  0.00  0.00    +0.063 C 
ATOM      7  C   UNL     1      -1.477   3.434 -24.799  0.00  0.00    +0.130 C 
ATOM      8  N   UNL     1      -0.534   3.494 -25.541  0.00  0.00    +0.230 N 
ATOM      9  H   UNL     1      -0.771   2.805 -26.255  0.00  0.00    +0.202 HD
ATOM     10  H   UNL     1      -0.445   4.472 -25.817  0.00  0.00    +0.202 HD
ATOM     11  C   UNL     1       0.902   3.029 -25.083  0.00  0.00    +0.071 C 
ATOM     12  C   UNL     1       0.577   1.937 -21.769  0.00  0.00    +0.086 C 
ATOM     13  C   UNL     1       1.802   1.581 -21.495  0.00  0.00    +0.134 C 
ATOM     14  O   UNL     1       2.087   1.111 -20.326  0.00  0.00    -0.297 OA
ATOM     15  C   UNL     1       2.759   1.698 -22.408  0.00  0.00    +0.075 C 
ATOM     16  C   UNL     1       2.507   2.172 -23.608  0.00  0.00    +0.017 C 
ATOM     17  C   UNL     1       1.321   2.529 -23.911  0.00  0.00    +0.049 C 
ATOM     18  C   UNL     1      -1.404   2.541 -22.296  0.00  0.00    +0.054 A 
ATOM     19  C   UNL     1      -0.013   3.242 -25.137  0.00  0.00    +0.090 C 
ATOM     20  C   UNL     1      -2.647   2.859 -22.450  0.00  0.00    +0.162 A 
ENDROOT
BRANCH   1  22
ATOM     21  C   UNL     1      -4.819   4.132 -24.748  0.00  0.00    +0.277 C 
ATOM     22  O   UNL     1      -4.311   3.642 -23.678  0.00  0.00    -0.491 OA
ENDBRANCH   1  22
BRANCH  20  23
ATOM     23  O   UNL     1      -3.480   2.696 -21.480  0.00  0.00    -0.491 OA
ATOM     24  C   UNL     1      -3.307   3.348 -20.372  0.00  0.00    +0.277 C 
ENDBRANCH  20  23
TORSDOF 2
ENDMDL
MODEL 4
REMARK VINA RESULT:    -9.431      2.167      5.270
REMARK INTER + INTRA:         -10.810
REMARK INTER:                 -10.712
REMARK INTRA:                  -0.098
REMARK UNBOUND:                -0.277
REMARK  Name = COc1cc2c(cc1OC)[C@]13CCN[C@@H](C2)[C@@H]1CCC(=O)C3                   ZINC000100393755
REMARK  4 active torsions:
REMARK  status: ('A' for Active; 'I' for Inactive)
REMARK    1  A    between atoms: C_1  and  O_2
REMARK    2  A    between atoms: O_2  and  C_3
REMARK    3  A    between atoms: C_8  and  O_9
REMARK    4  A    between atoms: O_9  and  C_10
REMARK                            x       y       z     vdW  Elec       q    Type
REMARK                         _______ _______ _______ _____ _____    ______ ____
ROOT
ATOM      1  C   UNL     1      -4.755   3.519 -22.629  0.00  0.00    +0.162 A 
ATOM      2  C   UNL     1      -4.586   3.642 -23.877  0.00  0.00    +0.053 A 
ATOM      3  C   UNL     1      -3.226   3.591 -24.419  0.00  0.00    -0.035 A 
ATOM      4  C   UNL     1      -2.424   3.452 -23.747  0.00  0.00    -0.033 A 
ATOM      5  C   UNL     1      -1.485   3.391 -23.887  0.00  0.00    +0.015 C 
ATOM      6  C   UNL     1      -3.127   3.477 -23.456  0.00  0.00    +0.063 C 
ATOM      7  C   UNL     1      -4.173   3.679 -24.520  0.00  0.00    +0.130 C 
ATOM      8  N   UNL     1      -3.811   3.775 -25.662  0.00  0.00    +0.230 N 
ATOM      9  H   UNL     1      -4.191   2.929 -26.086  0.00  0.00    +0.202 HD
ATOM     10  H   UNL     1      -4.145   4.680 -25.996  0.00  0.00    +0.202 HD
ATOM     11  C   UNL     1      -2.284   3.694 -26.049  0.00  0.00    +0.071 C 
ATOM     12  C   UNL     1      -0.528   3.222 -23.054  0.00  0.00    +0.086 C 
ATOM     13  C   UNL     1       0.703   3.169 -23.483  0.00  0.00    +0.134 C 
ATOM     14  O   UNL     1       1.669   2.998 -22.643  0.00  0.00    -0.297 OA
ATOM     15  C   UNL     1       0.971   3.289 -24.778  0.00  0.00    +0.075 C 
ATOM     16  C   UNL     1       0.015   3.464 -25.663  0.00  0.00    +0.017 C 
ATOM     17  C   UNL     1      -1.200   3.521 -25.279  0.00  0.00    +0.049 C 
ATOM     18  C   UNL     1      -2.570   3.319 -22.430  0.00  0.00    +0.054 A 
ATOM     19  C   UNL     1      -3.110   3.711 -25.601  0.00  0.00    +0.090 C 
ATOM     20  C   UNL     1      -3.743   3.355 -21.889  0.00  0.00    +0.162 A 
ENDROOT
BRANCH   1  22
ATOM     21  C   UNL     1      -6.623   2.496 -21.774  0.00  0.00    +0.277 C 
ATOM     22  O   UNL     1      -5.941   3.550 -22.033  0.00  0.00    -0.491 OA
ENDBRANCH   1  22
BRANCH  20  23
ATOM     23  O   UNL     1      -3.868   3.225 -20.612  0.00  0.00    -0.491 OA
ATOM     24  C   UNL     1      -2.994   3.771 -19.824  0.00  0.00    +0.277 C 
ENDBRANCH  20  23
TORSDOF 2
ENDMDL
MODEL 5
REMARK VINA RESULT:    -9.372      2.219      5.884
REMARK INTER + INTRA:         -10.745
REMARK INTER:                 -10.665
REMARK INTRA:                  -0.080
REMARK UNBOUND:                -0.277
REMARK  Name = COc1cc2c(cc1OC)[C@]13CCN[C@@H](C2)[C@@H]1CCC(=O)C3                   ZINC000100393755
REMARK  4 active torsions:
REMARK  status: ('A' for Active; 'I' for Inactive)
REMARK    1  A    between atoms: C_1  and  O_2
REMARK    2  A    between atoms: O_2  and  C_3
REMARK    3  A    between atoms: C_8  and  O_9
REMARK    4  A    between atoms: O_9  and  C_10
REMARK                            x       y       z     vdW  Elec       q    Type
REMARK                         _______ _______ _______ _____ _____    ______ ____
ROOT
ATOM      1  C   UNL     1      -1.328   4.007 -23.348  0.00  0.00    +0.162 A 
ATOM      2  C   UNL     1      -0.341   4.753 -23.620  0.00  0.00    +0.053 A 
ATOM      3  C   UNL     1       1.012   4.274 -23.330  0.00  0.00    -0.035 A 
ATOM      4  C   UNL     1       1.124   3.317 -22.900  0.00  0.00    -0.033 A 
ATOM      5  C   UNL     1       1.896   2.827 -22.638  0.00  0.00    +0.015 C 
ATOM      6  C   UNL     1       0.416   3.556 -23.047  0.00  0.00    +0.063 C 
ATOM      7  C   UNL     1       0.402   4.933 -23.657  0.00  0.00    +0.130 C 
ATOM      8  N   UNL     1       1.453   5.485 -23.839  0.00  0.00    +0.230 N 
ATOM      9  H   UNL     1       1.506   5.528 -24.857  0.00  0.00    +0.202 HD
ATOM     10  H   UNL     1       1.414   6.361 -23.317  0.00  0.00    +0.202 HD
ATOM     11  C   UNL     1       2.820   4.798 -23.456  0.00  0.00    +0.071 C 
ATOM     12  C   UNL     1       2.008   1.663 -22.117  0.00  0.00    +0.086 C 
ATOM     13  C   UNL     1       3.191   1.189 -21.838  0.00  0.00    +0.134 C 
ATOM     14  O   UNL     1       3.303   0.014 -21.313  0.00  0.00    -0.297 OA
ATOM     15  C   UNL     1       4.281   1.904 -22.091  0.00  0.00    +0.075 C 
ATOM     16  C   UNL     1       4.206   3.102 -22.625  0.00  0.00    +0.017 C 
ATOM     17  C   UNL     1       3.066   3.597 -22.911  0.00  0.00    +0.049 C 
ATOM     18  C   UNL     1       0.107   2.510 -22.603  0.00  0.00    +0.054 A 
ATOM     19  C   UNL     1       1.914   5.007 -23.601  0.00  0.00    +0.090 C 
ATOM     20  C   UNL     1      -1.112   2.872 -22.834  0.00  0.00    +0.162 A 
ENDROOT
BRANCH   1  22
ATOM     21  C   UNL     1      -3.081   4.503 -24.743  0.00  0.00    +0.277 C 
ATOM     22  O   UNL     1      -2.594   4.340 -23.569  0.00  0.00    -0.491 OA
ENDBRANCH   1  22
BRANCH  20  23
ATOM     23  O   UNL     1      -2.087   2.080 -22.541  0.00  0.00    -0.491 OA
ATOM     24  C   UNL     1      -2.628   2.140 -21.363  0.00  0.00    +0.277 C 
ENDBRANCH  20  23
TORSDOF 2
ENDMDL
MODEL 6
REMARK VINA RESULT:    -9.297      2.040      3.348
REMARK INTER + INTRA:         -10.661
REMARK INTER:                 -10.364
REMARK INTRA:                  -0.297
REMARK UNBOUND:                -0.277
REMARK  Name = COc1cc2c(cc1OC)[C@]13CCN[C@@H](C2)[C@@H]1CCC(=O)C3                   ZINC000100393755
REMARK  4 active torsions:
REMARK  status: ('A' for Active; 'I' for Inactive)
REMARK    1  A    between atoms: C_1  and  O_2
REMARK    2  A    between atoms: O_2  and  C_3
REMARK    3  A    between atoms: C_8  and  O_9
REMARK    4  A    between atoms: O_9  and  C_10
REMARK                            x       y       z     vdW  Elec       q    Type
REMARK                         _______ _______ _______ _____ _____    ______ ____
ROOT
ATOM      1  C   UNL     1       2.090   2.183 -23.603  0.00  0.00    +0.162 A 
ATOM      2  C   UNL     1       1.475   2.723 -24.569  0.00  0.00    +0.053 A 
ATOM      3  C   UNL     1       0.046   3.012 -24.428  0.00  0.00    -0.035 A 
ATOM      4  C   UNL     1      -0.430   2.759 -23.520  0.00  0.00    -0.033 A 
ATOM      5  C   UNL     1      -1.329   2.858 -23.228  0.00  0.00    +0.015 C 
ATOM      6  C   UNL     1       0.313   2.605 -23.584  0.00  0.00    +0.063 C 
ATOM      7  C   UNL     1       0.863   3.016 -24.924  0.00  0.00    +0.130 C 
ATOM      8  N   UNL     1       0.113   3.519 -25.716  0.00  0.00    +0.230 N 
ATOM      9  H   UNL     1       0.470   4.472 -25.784  0.00  0.00    +0.202 HD
ATOM     10  H   UNL     1       0.135   2.930 -26.549  0.00  0.00    +0.202 HD
ATOM     11  C   UNL     1      -1.410   3.749 -25.374  0.00  0.00    +0.071 C 
ATOM     12  C   UNL     1      -1.885   2.543 -22.119  0.00  0.00    +0.086 C 
ATOM     13  C   UNL     1      -3.156   2.778 -21.941  0.00  0.00    +0.134 C 
ATOM     14  O   UNL     1      -3.717   2.460 -20.822  0.00  0.00    -0.297 OA
ATOM     15  C   UNL     1      -3.879   3.343 -22.902  0.00  0.00    +0.075 C 
ATOM     16  C   UNL     1      -3.343   3.681 -24.053  0.00  0.00    +0.017 C 
ATOM     17  C   UNL     1      -2.103   3.465 -24.262  0.00  0.00    +0.049 C 
ATOM     18  C   UNL     1       0.190   2.190 -22.488  0.00  0.00    +0.054 A 
ATOM     19  C   UNL     1      -0.497   3.522 -25.361  0.00  0.00    +0.090 C 
ATOM     20  C   UNL     1       1.450   1.909 -22.548  0.00  0.00    +0.162 A 
ENDROOT
BRANCH   1  22
ATOM     21  C   UNL     1       4.307   2.756 -23.747  0.00  0.00    +0.277 C 
ATOM     22  O   UNL     1       3.382   1.878 -23.624  0.00  0.00    -0.491 OA
ENDBRANCH   1  22
BRANCH  20  23
ATOM     23  O   UNL     1       2.037   1.358 -21.540  0.00  0.00    -0.491 OA
ATOM     24  C   UNL     1       1.543   1.511 -20.351  0.00  0.00    +0.277 C 
ENDBRANCH  20  23
TORSDOF 2
ENDMDL
MODEL 7
REMARK VINA RESULT:    -8.921      2.694      4.201
REMARK INTER + INTRA:         -10.241
REMARK INTER:                  -9.954
REMARK INTRA:                  -0.287
REMARK UNBOUND:                -0.277
REMARK  Name = COc1cc2c(cc1OC)[C@]13CCN[C@@H](C2)[C@@H]1CCC(=O)C3                   ZINC000100393755
REMARK  4 active torsions:
REMARK  status: ('A' for Active; 'I' for Inactive)
REMARK    1  A    between atoms: C_1  and  O_2
REMARK    2  A    between atoms: O_2  and  C_3
REMARK    3  A    between atoms: C_8  and  O_9
REMARK    4  A    between atoms: O_9  and  C_10
REMARK                            x       y       z     vdW  Elec       q    Type
REMARK                         _______ _______ _______ _____ _____    ______ ____
ROOT
ATOM      1  C   UNL     1       3.649   2.986 -23.426  0.00  0.00    +0.162 A 
ATOM      2  C   UNL     1       2.984   4.035 -23.671  0.00  0.00    +0.053 A 
ATOM      3  C   UNL     1       1.560   4.068 -23.330  0.00  0.00    -0.035 A 
ATOM      4  C   UNL     1       1.130   3.212 -22.887  0.00  0.00    -0.033 A 
ATOM      5  C   UNL     1       0.244   3.028 -22.595  0.00  0.00    +0.015 C 
ATOM      6  C   UNL     1       1.871   3.185 -23.061  0.00  0.00    +0.063 C 
ATOM      7  C   UNL     1       2.353   4.468 -23.683  0.00  0.00    +0.130 C 
ATOM      8  N   UNL     1       1.561   5.359 -23.835  0.00  0.00    +0.230 N 
ATOM      9  H   UNL     1       1.904   6.071 -23.191  0.00  0.00    +0.202 HD
ATOM     10  H   UNL     1       1.551   5.569 -24.834  0.00  0.00    +0.202 HD
ATOM     11  C   UNL     1       0.053   5.201 -23.398  0.00  0.00    +0.071 C 
ATOM     12  C   UNL     1      -0.255   1.978 -22.059  0.00  0.00    +0.086 C 
ATOM     13  C   UNL     1      -1.519   1.954 -21.735  0.00  0.00    +0.134 C 
ATOM     14  O   UNL     1      -2.023   0.895 -21.195  0.00  0.00    -0.297 OA
ATOM     15  C   UNL     1      -2.292   3.011 -21.957  0.00  0.00    +0.075 C 
ATOM     16  C   UNL     1      -1.814   4.107 -22.505  0.00  0.00    +0.017 C 
ATOM     17  C   UNL     1      -0.584   4.165 -22.834  0.00  0.00    +0.049 C 
ATOM     18  C   UNL     1       1.804   2.095 -22.618  0.00  0.00    +0.054 A 
ATOM     19  C   UNL     1       0.968   5.075 -23.577  0.00  0.00    +0.090 C 
ATOM     20  C   UNL     1       3.063   2.001 -22.894  0.00  0.00    +0.162 A 
ENDROOT
BRANCH   1  22
ATOM     21  C   UNL     1       5.830   3.696 -23.324  0.00  0.00    +0.277 C 
ATOM     22  O   UNL     1       4.943   2.848 -23.694  0.00  0.00    -0.491 OA
ENDBRANCH   1  22
BRANCH  20  23
ATOM     23  O   UNL     1       3.702   0.913 -22.627  0.00  0.00    -0.491 OA
ATOM     24  C   UNL     1       3.717   0.462 -21.411  0.00  0.00    +0.277 C 
ENDBRANCH  20  23
TORSDOF 2
ENDMDL
MODEL 8
REMARK VINA RESULT:    -8.490      1.857      3.059
REMARK INTER + INTRA:          -9.759
REMARK INTER:                  -9.720
REMARK INTRA:                  -0.039
REMARK UNBOUND:                -0.277
REMARK  Name = COc1cc2c(cc1OC)[C@]13CCN[C@@H](C2)[C@@H]1CCC(=O)C3                   ZINC000100393755
REMARK  4 active torsions:
REMARK  status: ('A' for Active; 'I' for Inactive)
REMARK    1  A    between atoms: C_1  and  O_2
REMARK    2  A    between atoms: O_2  and  C_3
REMARK    3  A    between atoms: C_8  and  O_9
REMARK    4  A    between atoms: O_9  and  C_10
REMARK                            x       y       z     vdW  Elec       q    Type
REMARK                         _______ _______ _______ _____ _____    ______ ____
ROOT
ATOM      1  C   UNL     1       3.322   1.731 -21.836  0.00  0.00    +0.162 A 
ATOM      2  C   UNL     1       2.294   1.476 -21.142  0.00  0.00    +0.053 A 
ATOM      3  C   UNL     1       0.973   1.791 -21.689  0.00  0.00    -0.035 A 
ATOM      4  C   UNL     1       0.917   2.224 -22.651  0.00  0.00    -0.033 A 
ATOM      5  C   UNL     1       0.177   2.499 -23.179  0.00  0.00    +0.015 C 
ATOM      6  C   UNL     1       1.609   2.063 -22.375  0.00  0.00    +0.063 C 
ATOM      7  C   UNL     1       1.542   1.453 -21.000  0.00  0.00    +0.130 C 
ATOM      8  N   UNL     1       0.461   1.289 -20.503  0.00  0.00    +0.230 N 
ATOM      9  H   UNL     1       0.387   0.272 -20.465  0.00  0.00    +0.202 HD
ATOM     10  H   UNL     1       0.464   1.810 -19.626  0.00  0.00    +0.202 HD
ATOM     11  C   UNL     1      -0.862   1.697 -21.259  0.00  0.00    +0.071 C 
ATOM     12  C   UNL     1       0.135   3.023 -24.346  0.00  0.00    +0.086 C 
ATOM     13  C   UNL     1      -1.017   3.324 -24.880  0.00  0.00    +0.134 C 
ATOM     14  O   UNL     1      -1.060   3.852 -26.058  0.00  0.00    -0.297 OA
ATOM     15  C   UNL     1      -2.147   3.090 -24.223  0.00  0.00    +0.075 C 
ATOM     16  C   UNL     1      -2.143   2.554 -23.023  0.00  0.00    +0.017 C 
ATOM     17  C   UNL     1      -1.036   2.248 -22.470  0.00  0.00    +0.049 C 
ATOM     18  C   UNL     1       1.980   2.503 -23.403  0.00  0.00    +0.054 A 
ATOM     19  C   UNL     1       0.029   1.536 -21.004  0.00  0.00    +0.090 C 
ATOM     20  C   UNL     1       3.175   2.250 -22.979  0.00  0.00    +0.162 A 
ENDROOT
BRANCH   1  22
ATOM     21  C   UNL     1       4.924   0.381 -20.899  0.00  0.00    +0.277 C 
ATOM     22  O   UNL     1       4.565   1.486 -21.438  0.00  0.00    -0.491 OA
ENDBRANCH   1  22
BRANCH  20  23
ATOM     23  O   UNL     1       4.194   2.525 -23.719  0.00  0.00    -0.491 OA
ATOM     24  C   UNL     1       4.773   3.680 -23.605  0.00  0.00    +0.277 C 
ENDBRANCH  20  23
TORSDOF 2
ENDMDL
MODEL 9
REMARK VINA RESULT:    -8.454      3.684      5.724
REMARK INTER + INTRA:          -9.720
REMARK INTER:                  -9.443
REMARK INTRA:                  -0.277
REMARK UNBOUND:                -0.277
REMARK  Name = COc1cc2c(cc1OC)[C@]13CCN[C@@H](C2)[C@@H]1CCC(=O)C3                   ZINC000100393755
REMARK  4 active torsions:
REMARK  status: ('A' for Active; 'I' for Inactive)
REMARK    1  A    between atoms: C_1  and  O_2
REMARK    2  A    between atoms: O_2  and  C_3
REMARK    3  A    between atoms: C_8  and  O_9
REMARK    4  A    between atoms: O_9  and  C_10
REMARK                            x       y       z     vdW  Elec       q    Type
REMARK                         _______ _______ _______ _____ _____    ______ ____
ROOT
ATOM      1  C   UNL     1       5.675   4.657 -22.826  0.00  0.00    +0.162 A 
ATOM      2  C   UNL     1       5.380   3.539 -23.342  0.00  0.00    +0.053 A 
ATOM      3  C   UNL     1       3.981   3.251 -23.663  0.00  0.00    -0.035 A 
ATOM      4  C   UNL     1       3.256   3.990 -23.453  0.00  0.00    -0.033 A 
ATOM      5  C   UNL     1       2.314   4.006 -23.580  0.00  0.00    +0.015 C 
ATOM      6  C   UNL     1       3.981   4.148 -23.283  0.00  0.00    +0.063 C 
ATOM      7  C   UNL     1       4.906   3.013 -23.632  0.00  0.00    +0.130 C 
ATOM      8  N   UNL     1       4.431   2.022 -24.119  0.00  0.00    +0.230 N 
ATOM      9  H   UNL     1       4.820   2.032 -25.062  0.00  0.00    +0.202 HD
ATOM     10  H   UNL     1       4.676   1.250 -23.499  0.00  0.00    +0.202 HD
ATOM     11  C   UNL     1       2.882   1.902 -24.391  0.00  0.00    +0.071 C 
ATOM     12  C   UNL     1       1.453   4.916 -23.318  0.00  0.00    +0.086 C 
ATOM     13  C   UNL     1       0.192   4.711 -23.584  0.00  0.00    +0.134 C 
ATOM     14  O   UNL     1      -0.677   5.629 -23.318  0.00  0.00    -0.297 OA
ATOM     15  C   UNL     1      -0.206   3.566 -24.126  0.00  0.00    +0.075 C 
ATOM     16  C   UNL     1       0.649   2.608 -24.409  0.00  0.00    +0.017 C 
ATOM     17  C   UNL     1       1.889   2.774 -24.163  0.00  0.00    +0.049 C 
ATOM     18  C   UNL     1       3.535   5.174 -22.912  0.00  0.00    +0.054 A 
ATOM     19  C   UNL     1       3.745   2.186 -24.148  0.00  0.00    +0.090 C 
ATOM     20  C   UNL     1       4.750   5.490 -22.605  0.00  0.00    +0.162 A 
ENDROOT
BRANCH   1  22
ATOM     21  C   UNL     1       7.556   4.500 -21.521  0.00  0.00    +0.277 C 
ATOM     22  O   UNL     1       6.908   5.021 -22.496  0.00  0.00    -0.491 OA
ENDBRANCH   1  22
BRANCH  20  23
ATOM     23  O   UNL     1       5.004   6.641 -22.081  0.00  0.00    -0.491 OA
ATOM     24  C   UNL     1       4.096   7.566 -22.099  0.00  0.00    +0.277 C 
ENDBRANCH  20  23
TORSDOF 2
ENDMDL
