MODEL 1
REMARK VINA RESULT:   -10.228      0.000      0.000
REMARK INTER + INTRA:         -13.406
REMARK INTER:                 -12.786
REMARK INTRA:                  -0.620
REMARK UNBOUND:                 0.410
REMARK  Name = C=C[C@@H]1CN2CC[C@H]1C[C@H]2[C@H](OC(=O)c1ccccc1)c1ccnc2ccccc12      ZINC000253387606
REMARK  6 active torsions:
REMARK  status: ('A' for Active; 'I' for Inactive)
REMARK    1  A    between atoms: C_2  and  C_3
REMARK    2  A    between atoms: C_10  and  C_11
REMARK    3  A    between atoms: C_11  and  O_12
REMARK    4  A    between atoms: C_11  and  C_21
REMARK    5  A    between atoms: O_12  and  C_13
REMARK    6  A    between atoms: C_13  and  C_15
REMARK                            x       y       z     vdW  Elec       q    Type
REMARK                         _______ _______ _______ _____ _____    ______ ____
ROOT
ATOM      1  C   UNL     1      -1.029   2.674 -23.815  0.00  0.00    +0.255 C 
ENDROOT
BRANCH   1   2
ATOM      2  C   UNL     1      -2.124   3.071 -24.443  0.00  0.00    +0.009 A 
ATOM      3  C   UNL     1      -2.092   3.307 -25.740  0.00  0.00    +0.028 A 
ATOM      4  C   UNL     1      -3.184   3.704 -26.368  0.00  0.00    +0.112 A 
ATOM      5  N   UNL     1      -4.308   3.862 -25.693  0.00  0.00    -0.255 NA
ATOM      6  C   UNL     1      -4.341   3.626 -24.397  0.00  0.00    +0.071 A 
ATOM      7  C   UNL     1      -5.465   3.784 -23.721  0.00  0.00    +0.028 A 
ATOM      8  C   UNL     1      -5.496   3.547 -22.426  0.00  0.00    +0.002 A 
ATOM      9  C   UNL     1      -4.404   3.151 -21.797  0.00  0.00    +0.001 A 
ATOM     10  C   UNL     1      -3.280   2.993 -22.473  0.00  0.00    +0.010 A 
ATOM     11  C   UNL     1      -3.248   3.229 -23.769  0.00  0.00    +0.007 A 
ENDBRANCH   1   2
BRANCH   1  18
ATOM     12  C   UNL     1       2.010   5.204 -23.325  0.00  0.00    +0.060 C 
ATOM     13  C   UNL     1       0.865   5.391 -22.651  0.00  0.00    +0.139 C 
ATOM     14  N   UNL     1      -0.140   4.533 -22.829  0.00  0.00    +0.241 N 
ATOM     15  H   UNL     1      -1.078   4.480 -22.432  0.00  0.00    +0.204 HD
ATOM     16  C   UNL     1       0.871   4.784 -23.110  0.00  0.00    +0.132 C 
ATOM     17  C   UNL     1       1.185   3.990 -23.855  0.00  0.00    +0.055 C 
ATOM     18  C   UNL     1      -0.022   3.512 -23.653  0.00  0.00    +0.111 C 
ATOM     19  C   UNL     1       1.119   3.329 -24.322  0.00  0.00    +0.063 C 
ATOM     20  C   UNL     1       2.123   4.166 -24.159  0.00  0.00    +0.011 C 
BRANCH  12  22
ATOM     21  C   UNL     1       4.205   5.587 -22.799  0.00  0.00    +0.004 C 
ATOM     22  C   UNL     1       3.022   6.041 -23.165  0.00  0.00    -0.026 C 
ENDBRANCH  12  22
ENDBRANCH   1  18
BRANCH   1  23
ATOM     23  O   UNL     1      -0.944   1.442 -23.352  0.00  0.00    -0.447 OA
BRANCH  23  24
ATOM     24  C   UNL     1      -0.497   1.227 -22.130  0.00  0.00    +0.340 C 
ATOM     25  O   UNL     1      -1.347   1.095 -21.130  0.00  0.00    -0.245 OA
BRANCH  24  26
ATOM     26  C   UNL     1       0.800   1.143 -21.909  0.00  0.00    +0.059 A 
ATOM     27  C   UNL     1       1.330   1.741 -20.854  0.00  0.00    +0.015 A 
ATOM     28  C   UNL     1       2.628   1.657 -20.634  0.00  0.00    +0.001 A 
ATOM     29  C   UNL     1       3.399   0.979 -21.462  0.00  0.00    +0.000 A 
ATOM     30  C   UNL     1       2.870   0.381 -22.516  0.00  0.00    +0.001 A 
ATOM     31  C   UNL     1       1.572   0.465 -22.736  0.00  0.00    +0.015 A 
ENDBRANCH  24  26
ENDBRANCH  23  24
ENDBRANCH   1  23
TORSDOF 6
ENDMDL
MODEL 2
REMARK VINA RESULT:    -9.714      1.977      6.003
REMARK INTER + INTRA:         -12.712
REMARK INTER:                 -11.374
REMARK INTRA:                  -1.338
REMARK UNBOUND:                 0.410
REMARK  Name = C=C[C@@H]1CN2CC[C@H]1C[C@H]2[C@H](OC(=O)c1ccccc1)c1ccnc2ccccc12      ZINC000253387606
REMARK  6 active torsions:
REMARK  status: ('A' for Active; 'I' for Inactive)
REMARK    1  A    between atoms: C_2  and  C_3
REMARK    2  A    between atoms: C_10  and  C_11
REMARK    3  A    between atoms: C_11  and  O_12
REMARK    4  A    between atoms: C_11  and  C_21
REMARK    5  A    between atoms: O_12  and  C_13
REMARK    6  A    between atoms: C_13  and  C_15
REMARK                            x       y       z     vdW  Elec       q    Type
REMARK                         _______ _______ _______ _____ _____    ______ ____
ROOT
ATOM      1  C   UNL     1       0.870   3.686 -23.017  0.00  0.00    +0.255 C 
ENDROOT
BRANCH   1   2
ATOM      2  C   UNL     1       1.597   2.701 -23.518  0.00  0.00    +0.009 A 
ATOM      3  C   UNL     1       1.594   2.473 -24.816  0.00  0.00    +0.028 A 
ATOM      4  C   UNL     1       2.319   1.490 -25.319  0.00  0.00    +0.112 A 
ATOM      5  N   UNL     1       3.049   0.737 -24.515  0.00  0.00    -0.255 NA
ATOM      6  C   UNL     1       3.053   0.965 -23.218  0.00  0.00    +0.071 A 
ATOM      7  C   UNL     1       3.783   0.212 -22.414  0.00  0.00    +0.028 A 
ATOM      8  C   UNL     1       3.786   0.440 -21.117  0.00  0.00    +0.002 A 
ATOM      9  C   UNL     1       3.060   1.423 -20.614  0.00  0.00    +0.001 A 
ATOM     10  C   UNL     1       2.331   2.176 -21.418  0.00  0.00    +0.010 A 
ATOM     11  C   UNL     1       2.327   1.948 -22.716  0.00  0.00    +0.007 A 
ENDBRANCH   1   2
BRANCH   1  18
ATOM     12  C   UNL     1      -3.108   3.469 -23.116  0.00  0.00    +0.060 C 
ATOM     13  C   UNL     1      -2.453   4.211 -24.022  0.00  0.00    +0.139 C 
ATOM     14  N   UNL     1      -1.122   4.270 -23.972  0.00  0.00    +0.241 N 
ATOM     15  H   UNL     1      -0.433   4.758 -24.544  0.00  0.00    +0.204 HD
ATOM     16  C   UNL     1      -2.008   3.857 -23.517  0.00  0.00    +0.132 C 
ATOM     17  C   UNL     1      -1.638   3.223 -22.652  0.00  0.00    +0.055 C 
ATOM     18  C   UNL     1      -0.448   3.614 -23.049  0.00  0.00    +0.111 C 
ATOM     19  C   UNL     1      -1.103   2.877 -22.149  0.00  0.00    +0.063 C 
ATOM     20  C   UNL     1      -2.419   2.806 -22.182  0.00  0.00    +0.011 C 
BRANCH  12  22
ATOM     21  C   UNL     1      -5.115   3.380 -22.019  0.00  0.00    +0.004 C 
ATOM     22  C   UNL     1      -4.429   3.395 -23.145  0.00  0.00    -0.026 C 
ENDBRANCH  12  22
ENDBRANCH   1  18
BRANCH   1  23
ATOM     23  O   UNL     1       1.460   4.738 -22.484  0.00  0.00    -0.447 OA
BRANCH  23  24
ATOM     24  C   UNL     1       2.234   5.505 -23.227  0.00  0.00    +0.340 C 
ATOM     25  O   UNL     1       1.771   6.021 -24.349  0.00  0.00    -0.245 OA
BRANCH  24  26
ATOM     26  C   UNL     1       3.472   5.757 -22.847  0.00  0.00    +0.059 A 
ATOM     27  C   UNL     1       4.419   4.856 -23.045  0.00  0.00    +0.015 A 
ATOM     28  C   UNL     1       5.657   5.108 -22.665  0.00  0.00    +0.001 A 
ATOM     29  C   UNL     1       5.952   6.256 -22.086  0.00  0.00    +0.000 A 
ATOM     30  C   UNL     1       5.004   7.157 -21.888  0.00  0.00    +0.001 A 
ATOM     31  C   UNL     1       3.767   6.904 -22.268  0.00  0.00    +0.015 A 
ENDBRANCH  24  26
ENDBRANCH  23  24
ENDBRANCH   1  23
TORSDOF 6
ENDMDL
MODEL 3
REMARK VINA RESULT:    -9.636      2.259      4.550
REMARK INTER + INTRA:         -12.606
REMARK INTER:                 -12.434
REMARK INTRA:                  -0.172
REMARK UNBOUND:                 0.410
REMARK  Name = C=C[C@@H]1CN2CC[C@H]1C[C@H]2[C@H](OC(=O)c1ccccc1)c1ccnc2ccccc12      ZINC000253387606
REMARK  6 active torsions:
REMARK  status: ('A' for Active; 'I' for Inactive)
REMARK    1  A    between atoms: C_2  and  C_3
REMARK    2  A    between atoms: C_10  and  C_11
REMARK    3  A    between atoms: C_11  and  O_12
REMARK    4  A    between atoms: C_11  and  C_21
REMARK    5  A    between atoms: O_12  and  C_13
REMARK    6  A    between atoms: C_13  and  C_15
REMARK                            x       y       z     vdW  Elec       q    Type
REMARK                         _______ _______ _______ _____ _____    ______ ____
ROOT
ATOM      1  C   UNL     1       0.206   4.053 -23.471  0.00  0.00    +0.255 C 
ENDROOT
BRANCH   1   2
ATOM      2  C   UNL     1      -0.305   3.088 -22.724  0.00  0.00    +0.009 A 
ATOM      3  C   UNL     1       0.188   1.867 -22.794  0.00  0.00    +0.028 A 
ATOM      4  C   UNL     1      -0.320   0.902 -22.049  0.00  0.00    +0.112 A 
ATOM      5  N   UNL     1      -1.325   1.165 -21.233  0.00  0.00    -0.255 NA
ATOM      6  C   UNL     1      -1.819   2.385 -21.162  0.00  0.00    +0.071 A 
ATOM      7  C   UNL     1      -2.824   2.648 -20.347  0.00  0.00    +0.028 A 
ATOM      8  C   UNL     1      -3.317   3.868 -20.277  0.00  0.00    +0.002 A 
ATOM      9  C   UNL     1      -2.808   4.832 -21.022  0.00  0.00    +0.001 A 
ATOM     10  C   UNL     1      -1.803   4.569 -21.838  0.00  0.00    +0.010 A 
ATOM     11  C   UNL     1      -1.310   3.349 -21.908  0.00  0.00    +0.007 A 
ENDBRANCH   1   2
BRANCH   1  18
ATOM     12  C   UNL     1       4.017   5.119 -23.010  0.00  0.00    +0.060 C 
ATOM     13  C   UNL     1       3.044   6.034 -22.884  0.00  0.00    +0.139 C 
ATOM     14  N   UNL     1       1.775   5.657 -23.042  0.00  0.00    +0.241 N 
ATOM     15  H   UNL     1       0.893   6.168 -22.992  0.00  0.00    +0.204 HD
ATOM     16  C   UNL     1       2.803   5.331 -23.044  0.00  0.00    +0.132 C 
ATOM     17  C   UNL     1       2.769   4.221 -23.274  0.00  0.00    +0.055 C 
ATOM     18  C   UNL     1       1.469   4.406 -23.318  0.00  0.00    +0.111 C 
ATOM     19  C   UNL     1       2.440   3.499 -23.444  0.00  0.00    +0.063 C 
ATOM     20  C   UNL     1       3.700   3.852 -23.291  0.00  0.00    +0.011 C 
BRANCH  12  22
ATOM     21  C   UNL     1       6.244   4.593 -23.083  0.00  0.00    +0.004 C 
ATOM     22  C   UNL     1       5.284   5.469 -22.858  0.00  0.00    -0.026 C 
ENDBRANCH  12  22
ENDBRANCH   1  18
BRANCH   1  23
ATOM     23  O   UNL     1      -0.546   4.661 -24.368  0.00  0.00    -0.447 OA
BRANCH  23  24
ATOM     24  C   UNL     1      -1.108   3.966 -25.338  0.00  0.00    +0.340 C 
ATOM     25  O   UNL     1      -0.357   3.367 -26.242  0.00  0.00    -0.245 OA
BRANCH  24  26
ATOM     26  C   UNL     1      -2.422   3.870 -25.403  0.00  0.00    +0.059 A 
ATOM     27  C   UNL     1      -3.180   4.708 -24.715  0.00  0.00    +0.015 A 
ATOM     28  C   UNL     1      -4.494   4.610 -24.781  0.00  0.00    +0.001 A 
ATOM     29  C   UNL     1      -5.054   3.681 -25.530  0.00  0.00    +0.000 A 
ATOM     30  C   UNL     1      -4.296   2.843 -26.217  0.00  0.00    +0.001 A 
ATOM     31  C   UNL     1      -2.982   2.940 -26.152  0.00  0.00    +0.015 A 
ENDBRANCH  24  26
ENDBRANCH  23  24
ENDBRANCH   1  23
TORSDOF 6
ENDMDL
MODEL 4
REMARK VINA RESULT:    -9.396      1.803      6.372
REMARK INTER + INTRA:         -12.282
REMARK INTER:                 -11.062
REMARK INTRA:                  -1.221
REMARK UNBOUND:                 0.410
REMARK  Name = C=C[C@@H]1CN2CC[C@H]1C[C@H]2[C@H](OC(=O)c1ccccc1)c1ccnc2ccccc12      ZINC000253387606
REMARK  6 active torsions:
REMARK  status: ('A' for Active; 'I' for Inactive)
REMARK    1  A    between atoms: C_2  and  C_3
REMARK    2  A    between atoms: C_10  and  C_11
REMARK    3  A    between atoms: C_11  and  O_12
REMARK    4  A    between atoms: C_11  and  C_21
REMARK    5  A    between atoms: O_12  and  C_13
REMARK    6  A    between atoms: C_13  and  C_15
REMARK                            x       y       z     vdW  Elec       q    Type
REMARK                         _______ _______ _______ _____ _____    ______ ____
ROOT
ATOM      1  C   UNL     1       0.288   3.169 -23.565  0.00  0.00    +0.255 C 
ENDROOT
BRANCH   1   2
ATOM      2  C   UNL     1       1.510   3.546 -23.227  0.00  0.00    +0.009 A 
ATOM      3  C   UNL     1       1.861   4.813 -23.324  0.00  0.00    +0.028 A 
ATOM      4  C   UNL     1       3.081   5.191 -22.987  0.00  0.00    +0.112 A 
ATOM      5  N   UNL     1       3.948   4.294 -22.552  0.00  0.00    -0.255 NA
ATOM      6  C   UNL     1       3.598   3.028 -22.454  0.00  0.00    +0.071 A 
ATOM      7  C   UNL     1       4.465   2.131 -22.019  0.00  0.00    +0.028 A 
ATOM      8  C   UNL     1       4.114   0.865 -21.922  0.00  0.00    +0.002 A 
ATOM      9  C   UNL     1       2.894   0.487 -22.260  0.00  0.00    +0.001 A 
ATOM     10  C   UNL     1       2.027   1.384 -22.695  0.00  0.00    +0.010 A 
ATOM     11  C   UNL     1       2.378   2.650 -22.792  0.00  0.00    +0.007 A 
ENDBRANCH   1   2
BRANCH   1  18
ATOM     12  C   UNL     1      -2.644   3.276 -20.869  0.00  0.00    +0.060 C 
ATOM     13  C   UNL     1      -2.076   4.417 -21.289  0.00  0.00    +0.139 C 
ATOM     14  N   UNL     1      -1.097   4.360 -22.191  0.00  0.00    +0.241 N 
ATOM     15  H   UNL     1      -0.534   5.080 -22.644  0.00  0.00    +0.204 HD
ATOM     16  C   UNL     1      -1.794   3.784 -21.603  0.00  0.00    +0.132 C 
ATOM     17  C   UNL     1      -1.600   2.701 -21.876  0.00  0.00    +0.055 C 
ATOM     18  C   UNL     1      -0.684   3.204 -22.672  0.00  0.00    +0.111 C 
ATOM     19  C   UNL     1      -1.251   2.071 -22.251  0.00  0.00    +0.063 C 
ATOM     20  C   UNL     1      -2.221   2.107 -21.360  0.00  0.00    +0.011 C 
BRANCH  12  22
ATOM     21  C   UNL     1      -4.579   2.404 -20.010  0.00  0.00    +0.004 C 
ATOM     22  C   UNL     1      -3.618   3.307 -19.974  0.00  0.00    -0.026 C 
ENDBRANCH  12  22
ENDBRANCH   1  18
BRANCH   1  23
ATOM     23  O   UNL     1       0.040   2.758 -24.794  0.00  0.00    -0.447 OA
BRANCH  23  24
ATOM     24  C   UNL     1      -0.647   3.525 -25.619  0.00  0.00    +0.340 C 
ATOM     25  O   UNL     1      -0.029   4.162 -26.595  0.00  0.00    -0.245 OA
BRANCH  24  26
ATOM     26  C   UNL     1      -1.950   3.653 -25.468  0.00  0.00    +0.059 A 
ATOM     27  C   UNL     1      -2.456   4.802 -25.051  0.00  0.00    +0.015 A 
ATOM     28  C   UNL     1      -3.760   4.930 -24.900  0.00  0.00    +0.001 A 
ATOM     29  C   UNL     1      -4.561   3.915 -25.163  0.00  0.00    +0.000 A 
ATOM     30  C   UNL     1      -4.055   2.766 -25.579  0.00  0.00    +0.001 A 
ATOM     31  C   UNL     1      -2.751   2.639 -25.730  0.00  0.00    +0.015 A 
ENDBRANCH  24  26
ENDBRANCH  23  24
ENDBRANCH   1  23
TORSDOF 6
ENDMDL
MODEL 5
REMARK VINA RESULT:    -9.355      1.766      5.890
REMARK INTER + INTRA:         -12.227
REMARK INTER:                 -12.486
REMARK INTRA:                   0.259
REMARK UNBOUND:                 0.410
REMARK  Name = C=C[C@@H]1CN2CC[C@H]1C[C@H]2[C@H](OC(=O)c1ccccc1)c1ccnc2ccccc12      ZINC000253387606
REMARK  6 active torsions:
REMARK  status: ('A' for Active; 'I' for Inactive)
REMARK    1  A    between atoms: C_2  and  C_3
REMARK    2  A    between atoms: C_10  and  C_11
REMARK    3  A    between atoms: C_11  and  O_12
REMARK    4  A    between atoms: C_11  and  C_21
REMARK    5  A    between atoms: O_12  and  C_13
REMARK    6  A    between atoms: C_13  and  C_15
REMARK                            x       y       z     vdW  Elec       q    Type
REMARK                         _______ _______ _______ _____ _____    ______ ____
ROOT
ATOM      1  C   UNL     1       0.238   2.897 -23.135  0.00  0.00    +0.255 C 
ENDROOT
BRANCH   1   2
ATOM      2  C   UNL     1       1.366   3.586 -23.192  0.00  0.00    +0.009 A 
ATOM      3  C   UNL     1       1.338   4.903 -23.153  0.00  0.00    +0.028 A 
ATOM      4  C   UNL     1       2.464   5.592 -23.209  0.00  0.00    +0.112 A 
ATOM      5  N   UNL     1       3.618   4.956 -23.304  0.00  0.00    -0.255 NA
ATOM      6  C   UNL     1       3.646   3.639 -23.342  0.00  0.00    +0.071 A 
ATOM      7  C   UNL     1       4.800   3.003 -23.437  0.00  0.00    +0.028 A 
ATOM      8  C   UNL     1       4.828   1.686 -23.476  0.00  0.00    +0.002 A 
ATOM      9  C   UNL     1       3.702   0.997 -23.420  0.00  0.00    +0.001 A 
ATOM     10  C   UNL     1       2.548   1.633 -23.325  0.00  0.00    +0.010 A 
ATOM     11  C   UNL     1       2.520   2.951 -23.287  0.00  0.00    +0.007 A 
ENDBRANCH   1   2
BRANCH   1  18
ATOM     12  C   UNL     1      -2.959   4.150 -25.157  0.00  0.00    +0.060 C 
ATOM     13  C   UNL     1      -2.355   3.002 -25.501  0.00  0.00    +0.139 C 
ATOM     14  N   UNL     1      -1.286   2.600 -24.811  0.00  0.00    +0.241 N 
ATOM     15  H   UNL     1      -0.683   1.782 -24.892  0.00  0.00    +0.204 HD
ATOM     16  C   UNL     1      -2.039   3.366 -24.912  0.00  0.00    +0.132 C 
ATOM     17  C   UNL     1      -1.814   4.122 -24.098  0.00  0.00    +0.055 C 
ATOM     18  C   UNL     1      -0.821   3.312 -23.805  0.00  0.00    +0.111 C 
ATOM     19  C   UNL     1      -1.425   4.454 -23.467  0.00  0.00    +0.063 C 
ATOM     20  C   UNL     1      -2.482   4.867 -24.136  0.00  0.00    +0.011 C 
BRANCH  12  22
ATOM     21  C   UNL     1      -5.148   4.820 -25.188  0.00  0.00    +0.004 C 
ATOM     22  C   UNL     1      -4.021   4.569 -25.826  0.00  0.00    -0.026 C 
ENDBRANCH  12  22
ENDBRANCH   1  18
BRANCH   1  23
ATOM     23  O   UNL     1       0.171   1.797 -22.411  0.00  0.00    -0.447 OA
BRANCH  23  24
ATOM     24  C   UNL     1      -0.344   1.837 -21.197  0.00  0.00    +0.340 C 
ATOM     25  O   UNL     1       0.368   1.431 -20.164  0.00  0.00    -0.245 OA
BRANCH  24  26
ATOM     26  C   UNL     1      -1.572   2.283 -21.019  0.00  0.00    +0.059 A 
ATOM     27  C   UNL     1      -1.779   3.383 -20.313  0.00  0.00    +0.015 A 
ATOM     28  C   UNL     1      -3.007   3.829 -20.135  0.00  0.00    +0.001 A 
ATOM     29  C   UNL     1      -4.031   3.182 -20.657  0.00  0.00    +0.000 A 
ATOM     30  C   UNL     1      -3.824   2.082 -21.363  0.00  0.00    +0.001 A 
ATOM     31  C   UNL     1      -2.595   1.636 -21.541  0.00  0.00    +0.015 A 
ENDBRANCH  24  26
ENDBRANCH  23  24
ENDBRANCH   1  23
TORSDOF 6
ENDMDL
MODEL 6
REMARK VINA RESULT:    -9.102      1.654      6.092
REMARK INTER + INTRA:         -11.885
REMARK INTER:                 -11.604
REMARK INTRA:                  -0.281
REMARK UNBOUND:                 0.410
REMARK  Name = C=C[C@@H]1CN2CC[C@H]1C[C@H]2[C@H](OC(=O)c1ccccc1)c1ccnc2ccccc12      ZINC000253387606
REMARK  6 active torsions:
REMARK  status: ('A' for Active; 'I' for Inactive)
REMARK    1  A    between atoms: C_2  and  C_3
REMARK    2  A    between atoms: C_10  and  C_11
REMARK    3  A    between atoms: C_11  and  O_12
REMARK    4  A    between atoms: C_11  and  C_21
REMARK    5  A    between atoms: O_12  and  C_13
REMARK    6  A    between atoms: C_13  and  C_15
REMARK                            x       y       z     vdW  Elec       q    Type
REMARK                         _______ _______ _______ _____ _____    ______ ____
ROOT
ATOM      1  C   UNL     1      -0.916   2.880 -22.291  0.00  0.00    +0.255 C 
ENDROOT
BRANCH   1   2
ATOM      2  C   UNL     1       0.334   2.454 -22.368  0.00  0.00    +0.009 A 
ATOM      3  C   UNL     1       0.617   1.190 -22.123  0.00  0.00    +0.028 A 
ATOM      4  C   UNL     1       1.865   0.764 -22.199  0.00  0.00    +0.112 A 
ATOM      5  N   UNL     1       2.828   1.609 -22.523  0.00  0.00    -0.255 NA
ATOM      6  C   UNL     1       2.545   2.872 -22.768  0.00  0.00    +0.071 A 
ATOM      7  C   UNL     1       3.508   3.717 -23.091  0.00  0.00    +0.028 A 
ATOM      8  C   UNL     1       3.224   4.980 -23.336  0.00  0.00    +0.002 A 
ATOM      9  C   UNL     1       1.976   5.406 -23.260  0.00  0.00    +0.001 A 
ATOM     10  C   UNL     1       1.014   4.561 -22.936  0.00  0.00    +0.010 A 
ATOM     11  C   UNL     1       1.297   3.298 -22.691  0.00  0.00    +0.007 A 
ENDBRANCH   1   2
BRANCH   1  18
ATOM     12  C   UNL     1      -2.979   3.608 -25.621  0.00  0.00    +0.060 C 
ATOM     13  C   UNL     1      -2.429   4.622 -24.937  0.00  0.00    +0.139 C 
ATOM     14  N   UNL     1      -1.743   4.358 -23.824  0.00  0.00    +0.241 N 
ATOM     15  H   UNL     1      -1.251   4.956 -23.160  0.00  0.00    +0.204 HD
ATOM     16  C   UNL     1      -2.311   3.933 -24.637  0.00  0.00    +0.132 C 
ATOM     17  C   UNL     1      -2.314   2.814 -24.453  0.00  0.00    +0.055 C 
ATOM     18  C   UNL     1      -1.600   3.121 -23.394  0.00  0.00    +0.111 C 
ATOM     19  C   UNL     1      -2.148   2.114 -24.078  0.00  0.00    +0.063 C 
ATOM     20  C   UNL     1      -2.830   2.355 -25.179  0.00  0.00    +0.011 C 
BRANCH  12  22
ATOM     21  C   UNL     1      -3.220   3.404 -27.889  0.00  0.00    +0.004 C 
ATOM     22  C   UNL     1      -3.665   3.845 -26.727  0.00  0.00    -0.026 C 
ENDBRANCH  12  22
ENDBRANCH   1  18
BRANCH   1  23
ATOM     23  O   UNL     1      -1.480   3.063 -21.112  0.00  0.00    -0.447 OA
BRANCH  23  24
ATOM     24  C   UNL     1      -2.546   3.831 -21.003  0.00  0.00    +0.340 C 
ATOM     25  O   UNL     1      -2.412   5.109 -20.706  0.00  0.00    -0.245 OA
BRANCH  24  26
ATOM     26  C   UNL     1      -3.747   3.320 -21.192  0.00  0.00    +0.059 A 
ATOM     27  C   UNL     1      -4.083   2.186 -20.598  0.00  0.00    +0.015 A 
ATOM     28  C   UNL     1      -5.285   1.676 -20.788  0.00  0.00    +0.001 A 
ATOM     29  C   UNL     1      -6.152   2.292 -21.567  0.00  0.00    +0.000 A 
ATOM     30  C   UNL     1      -5.816   3.426 -22.161  0.00  0.00    +0.001 A 
ATOM     31  C   UNL     1      -4.615   3.936 -21.971  0.00  0.00    +0.015 A 
ENDBRANCH  24  26
ENDBRANCH  23  24
ENDBRANCH   1  23
TORSDOF 6
ENDMDL
MODEL 7
REMARK VINA RESULT:    -8.880      2.127      4.904
REMARK INTER + INTRA:         -11.585
REMARK INTER:                 -10.679
REMARK INTRA:                  -0.907
REMARK UNBOUND:                 0.410
REMARK  Name = C=C[C@@H]1CN2CC[C@H]1C[C@H]2[C@H](OC(=O)c1ccccc1)c1ccnc2ccccc12      ZINC000253387606
REMARK  6 active torsions:
REMARK  status: ('A' for Active; 'I' for Inactive)
REMARK    1  A    between atoms: C_2  and  C_3
REMARK    2  A    between atoms: C_10  and  C_11
REMARK    3  A    between atoms: C_11  and  O_12
REMARK    4  A    between atoms: C_11  and  C_21
REMARK    5  A    between atoms: O_12  and  C_13
REMARK    6  A    between atoms: C_13  and  C_15
REMARK                            x       y       z     vdW  Elec       q    Type
REMARK                         _______ _______ _______ _____ _____    ______ ____
ROOT
ATOM      1  C   UNL     1      -0.295   2.709 -23.329  0.00  0.00    +0.255 C 
ENDROOT
BRANCH   1   2
ATOM      2  C   UNL     1      -0.859   3.641 -22.578  0.00  0.00    +0.009 A 
ATOM      3  C   UNL     1      -0.379   4.869 -22.578  0.00  0.00    +0.028 A 
ATOM      4  C   UNL     1      -0.941   5.801 -21.829  0.00  0.00    +0.112 A 
ATOM      5  N   UNL     1      -1.986   5.498 -21.080  0.00  0.00    -0.255 NA
ATOM      6  C   UNL     1      -2.467   4.271 -21.080  0.00  0.00    +0.071 A 
ATOM      7  C   UNL     1      -3.513   3.968 -20.332  0.00  0.00    +0.028 A 
ATOM      8  C   UNL     1      -3.993   2.741 -20.332  0.00  0.00    +0.002 A 
ATOM      9  C   UNL     1      -3.431   1.809 -21.081  0.00  0.00    +0.001 A 
ATOM     10  C   UNL     1      -2.385   2.112 -21.830  0.00  0.00    +0.010 A 
ATOM     11  C   UNL     1      -1.905   3.340 -21.829  0.00  0.00    +0.007 A 
ENDBRANCH   1   2
BRANCH   1  18
ATOM     12  C   UNL     1       3.261   1.224 -22.317  0.00  0.00    +0.060 C 
ATOM     13  C   UNL     1       3.107   1.856 -23.491  0.00  0.00    +0.139 C 
ATOM     14  N   UNL     1       1.908   2.346 -23.811  0.00  0.00    +0.241 N 
ATOM     15  H   UNL     1       1.567   2.850 -24.629  0.00  0.00    +0.204 HD
ATOM     16  C   UNL     1       2.478   1.814 -23.065  0.00  0.00    +0.132 C 
ATOM     17  C   UNL     1       1.748   1.594 -22.225  0.00  0.00    +0.055 C 
ATOM     18  C   UNL     1       0.883   2.217 -22.994  0.00  0.00    +0.111 C 
ATOM     19  C   UNL     1       1.041   1.588 -21.827  0.00  0.00    +0.063 C 
ATOM     20  C   UNL     1       2.217   1.097 -21.493  0.00  0.00    +0.011 C 
BRANCH  12  22
ATOM     21  C   UNL     1       4.647   0.297 -20.749  0.00  0.00    +0.004 C 
ATOM     22  C   UNL     1       4.440   0.730 -21.978  0.00  0.00    -0.026 C 
ENDBRANCH  12  22
ENDBRANCH   1  18
BRANCH   1  23
ATOM     23  O   UNL     1      -0.910   2.272 -24.411  0.00  0.00    -0.447 OA
BRANCH  23  24
ATOM     24  C   UNL     1      -1.371   3.131 -25.299  0.00  0.00    +0.340 C 
ATOM     25  O   UNL     1      -0.541   3.728 -26.133  0.00  0.00    -0.245 OA
BRANCH  24  26
ATOM     26  C   UNL     1      -2.663   3.392 -25.353  0.00  0.00    +0.059 A 
ATOM     27  C   UNL     1      -3.483   2.543 -25.951  0.00  0.00    +0.015 A 
ATOM     28  C   UNL     1      -4.775   2.805 -26.004  0.00  0.00    +0.001 A 
ATOM     29  C   UNL     1      -5.251   3.910 -25.464  0.00  0.00    +0.000 A 
ATOM     30  C   UNL     1      -4.431   4.758 -24.867  0.00  0.00    +0.001 A 
ATOM     31  C   UNL     1      -3.139   4.496 -24.813  0.00  0.00    +0.015 A 
ENDBRANCH  24  26
ENDBRANCH  23  24
ENDBRANCH   1  23
TORSDOF 6
ENDMDL
MODEL 8
REMARK VINA RESULT:    -8.743      2.398      6.389
REMARK INTER + INTRA:         -11.400
REMARK INTER:                 -12.079
REMARK INTRA:                   0.678
REMARK UNBOUND:                 0.410
REMARK  Name = C=C[C@@H]1CN2CC[C@H]1C[C@H]2[C@H](OC(=O)c1ccccc1)c1ccnc2ccccc12      ZINC000253387606
REMARK  6 active torsions:
REMARK  status: ('A' for Active; 'I' for Inactive)
REMARK    1  A    between atoms: C_2  and  C_3
REMARK    2  A    between atoms: C_10  and  C_11
REMARK    3  A    between atoms: C_11  and  O_12
REMARK    4  A    between atoms: C_11  and  C_21
REMARK    5  A    between atoms: O_12  and  C_13
REMARK    6  A    between atoms: C_13  and  C_15
REMARK                            x       y       z     vdW  Elec       q    Type
REMARK                         _______ _______ _______ _____ _____    ______ ____
ROOT
ATOM      1  C   UNL     1       3.025   3.616 -23.958  0.00  0.00    +0.255 C 
ENDROOT
BRANCH   1   2
ATOM      2  C   UNL     1       3.616   4.637 -23.359  0.00  0.00    +0.009 A 
ATOM      3  C   UNL     1       2.899   5.658 -22.933  0.00  0.00    +0.028 A 
ATOM      4  C   UNL     1       3.488   6.678 -22.335  0.00  0.00    +0.112 A 
ATOM      5  N   UNL     1       4.798   6.671 -22.165  0.00  0.00    -0.255 NA
ATOM      6  C   UNL     1       5.515   5.651 -22.591  0.00  0.00    +0.071 A 
ATOM      7  C   UNL     1       6.825   5.644 -22.421  0.00  0.00    +0.028 A 
ATOM      8  C   UNL     1       7.542   4.624 -22.847  0.00  0.00    +0.002 A 
ATOM      9  C   UNL     1       6.953   3.604 -23.445  0.00  0.00    +0.001 A 
ATOM     10  C   UNL     1       5.643   3.611 -23.615  0.00  0.00    +0.010 A 
ATOM     11  C   UNL     1       4.926   4.631 -23.189  0.00  0.00    +0.007 A 
ENDBRANCH   1   2
BRANCH   1  18
ATOM     12  C   UNL     1      -0.915   3.668 -24.549  0.00  0.00    +0.060 C 
ATOM     13  C   UNL     1      -0.424   3.467 -23.316  0.00  0.00    +0.139 C 
ATOM     14  N   UNL     1       0.898   3.453 -23.140  0.00  0.00    +0.241 N 
ATOM     15  H   UNL     1       1.481   3.321 -22.313  0.00  0.00    +0.204 HD
ATOM     16  C   UNL     1       0.101   3.564 -23.859  0.00  0.00    +0.132 C 
ATOM     17  C   UNL     1       0.613   3.738 -24.855  0.00  0.00    +0.055 C 
ATOM     18  C   UNL     1       1.720   3.633 -24.154  0.00  0.00    +0.111 C 
ATOM     19  C   UNL     1       1.226   3.833 -25.378  0.00  0.00    +0.063 C 
ATOM     20  C   UNL     1      -0.076   3.850 -25.573  0.00  0.00    +0.011 C 
BRANCH  12  22
ATOM     21  C   UNL     1      -2.710   3.468 -25.955  0.00  0.00    +0.004 C 
ATOM     22  C   UNL     1      -2.223   3.685 -24.749  0.00  0.00    -0.026 C 
ENDBRANCH  12  22
ENDBRANCH   1  18
BRANCH   1  23
ATOM     23  O   UNL     1       3.739   2.583 -24.360  0.00  0.00    -0.447 OA
BRANCH  23  24
ATOM     24  C   UNL     1       3.423   1.367 -23.958  0.00  0.00    +0.340 C 
ATOM     25  O   UNL     1       2.797   0.543 -24.777  0.00  0.00    -0.245 OA
BRANCH  24  26
ATOM     26  C   UNL     1       3.732   0.976 -22.737  0.00  0.00    +0.059 A 
ATOM     27  C   UNL     1       2.781   0.829 -21.830  0.00  0.00    +0.015 A 
ATOM     28  C   UNL     1       3.092   0.438 -20.609  0.00  0.00    +0.001 A 
ATOM     29  C   UNL     1       4.348   0.193 -20.290  0.00  0.00    +0.000 A 
ATOM     30  C   UNL     1       5.299   0.340 -21.197  0.00  0.00    +0.001 A 
ATOM     31  C   UNL     1       4.988   0.731 -22.418  0.00  0.00    +0.015 A 
ENDBRANCH  24  26
ENDBRANCH  23  24
ENDBRANCH   1  23
TORSDOF 6
ENDMDL
MODEL 9
REMARK VINA RESULT:    -8.439      1.962      6.465
REMARK INTER + INTRA:         -10.989
REMARK INTER:                 -11.399
REMARK INTRA:                   0.410
REMARK UNBOUND:                 0.410
REMARK  Name = C=C[C@@H]1CN2CC[C@H]1C[C@H]2[C@H](OC(=O)c1ccccc1)c1ccnc2ccccc12      ZINC000253387606
REMARK  6 active torsions:
REMARK  status: ('A' for Active; 'I' for Inactive)
REMARK    1  A    between atoms: C_2  and  C_3
REMARK    2  A    between atoms: C_10  and  C_11
REMARK    3  A    between atoms: C_11  and  O_12
REMARK    4  A    between atoms: C_11  and  C_21
REMARK    5  A    between atoms: O_12  and  C_13
REMARK    6  A    between atoms: C_13  and  C_15
REMARK                            x       y       z     vdW  Elec       q    Type
REMARK                         _______ _______ _______ _____ _____    ______ ____
ROOT
ATOM      1  C   UNL     1       0.427   2.376 -23.471  0.00  0.00    +0.255 C 
ENDROOT
BRANCH   1   2
ATOM      2  C   UNL     1       1.607   2.055 -22.966  0.00  0.00    +0.009 A 
ATOM      3  C   UNL     1       1.822   0.835 -22.515  0.00  0.00    +0.028 A 
ATOM      4  C   UNL     1       2.999   0.513 -22.011  0.00  0.00    +0.112 A 
ATOM      5  N   UNL     1       3.961   1.417 -21.961  0.00  0.00    -0.255 NA
ATOM      6  C   UNL     1       3.747   2.636 -22.412  0.00  0.00    +0.071 A 
ATOM      7  C   UNL     1       4.708   3.541 -22.363  0.00  0.00    +0.028 A 
ATOM      8  C   UNL     1       4.493   4.759 -22.814  0.00  0.00    +0.002 A 
ATOM      9  C   UNL     1       3.316   5.082 -23.318  0.00  0.00    +0.001 A 
ATOM     10  C   UNL     1       2.354   4.178 -23.368  0.00  0.00    +0.010 A 
ATOM     11  C   UNL     1       2.569   2.958 -22.916  0.00  0.00    +0.007 A 
ENDBRANCH   1   2
BRANCH   1  18
ATOM     12  C   UNL     1      -2.647   3.095 -21.039  0.00  0.00    +0.060 C 
ATOM     13  C   UNL     1      -2.481   1.873 -21.568  0.00  0.00    +0.139 C 
ATOM     14  N   UNL     1      -1.446   1.653 -22.379  0.00  0.00    +0.241 N 
ATOM     15  H   UNL     1      -1.130   0.824 -22.883  0.00  0.00    +0.204 HD
ATOM     16  C   UNL     1      -1.955   2.384 -21.771  0.00  0.00    +0.132 C 
ATOM     17  C   UNL     1      -1.354   3.340 -21.878  0.00  0.00    +0.055 C 
ATOM     18  C   UNL     1      -0.592   2.614 -22.665  0.00  0.00    +0.111 C 
ATOM     19  C   UNL     1      -0.760   3.829 -22.137  0.00  0.00    +0.063 C 
ATOM     20  C   UNL     1      -1.777   4.066 -21.333  0.00  0.00    +0.011 C 
BRANCH  12  22
ATOM     21  C   UNL     1      -4.899   3.090 -20.629  0.00  0.00    +0.004 C 
ATOM     22  C   UNL     1      -3.666   3.338 -20.231  0.00  0.00    -0.026 C 
ENDBRANCH  12  22
ENDBRANCH   1  18
BRANCH   1  23
ATOM     23  O   UNL     1       0.268   2.458 -24.778  0.00  0.00    -0.447 OA
BRANCH  23  24
ATOM     24  C   UNL     1      -0.276   3.536 -25.309  0.00  0.00    +0.340 C 
ATOM     25  O   UNL     1       0.492   4.476 -25.826  0.00  0.00    -0.245 OA
BRANCH  24  26
ATOM     26  C   UNL     1      -1.587   3.673 -25.323  0.00  0.00    +0.059 A 
ATOM     27  C   UNL     1      -2.143   4.758 -24.808  0.00  0.00    +0.015 A 
ATOM     28  C   UNL     1      -3.455   4.894 -24.822  0.00  0.00    +0.001 A 
ATOM     29  C   UNL     1      -4.215   3.953 -25.348  0.00  0.00    +0.000 A 
ATOM     30  C   UNL     1      -3.659   2.868 -25.862  0.00  0.00    +0.001 A 
ATOM     31  C   UNL     1      -2.347   2.732 -25.848  0.00  0.00    +0.015 A 
ENDBRANCH  24  26
ENDBRANCH  23  24
ENDBRANCH   1  23
TORSDOF 6
ENDMDL
