MODEL 1
REMARK VINA RESULT:    -9.085      0.000      0.000
REMARK INTER + INTRA:         -15.917
REMARK INTER:                 -13.447
REMARK INTRA:                  -2.469
REMARK UNBOUND:                -0.990
REMARK  Name = ZINC000085340879
REMARK  15 active torsions:
REMARK  status: ('A' for Active; 'I' for Inactive)
REMARK    1  A    between atoms: C_1  and  C_2
REMARK    2  A    between atoms: C_2  and  C_3
REMARK    3  A    between atoms: C_3  and  C_4
REMARK    4  A    between atoms: C_4  and  C_5
REMARK    5  A    between atoms: C_5  and  C_6
REMARK    6  A    between atoms: C_6  and  C_7
REMARK    7  A    between atoms: C_7  and  C_8
REMARK    8  A    between atoms: C_8  and  C_9
REMARK    9  A    between atoms: C_9  and  C_10
REMARK   10  A    between atoms: C_10  and  C_11
REMARK   11  A    between atoms: C_11  and  C_12
REMARK   12  A    between atoms: C_13  and  O_14
REMARK   13  A    between atoms: C_15  and  O_16
REMARK   14  A    between atoms: C_22  and  C_23
REMARK   15  A    between atoms: C_24  and  C_25
REMARK                            x       y       z     vdW  Elec       q    Type
REMARK                         _______ _______ _______ _____ _____    ______ ____
ROOT
ATOM      1  C   UNL     1       2.807   3.275 -24.186  0.00  0.00    +0.025 A 
ATOM      2  C   UNL     1       3.759   3.969 -23.636  0.00  0.00    +0.164 A 
ATOM      3  C   UNL     1       3.494   5.109 -23.072  0.00  0.00    +0.161 A 
ATOM      4  C   UNL     1       2.274   5.557 -23.057  0.00  0.00    +0.079 A 
ATOM      5  C   UNL     1       1.320   4.866 -23.606  0.00  0.00    +0.094 A 
ATOM      6  N   UNL     1       0.100   5.315 -23.590  0.00  0.00    -0.243 NA
ATOM      7  C   UNL     1      -0.855   4.625 -24.138  0.00  0.00    +0.090 A 
ATOM      8  C   UNL     1      -2.073   5.074 -24.122  0.00  0.00    +0.033 A 
ATOM      9  C   UNL     1      -3.030   4.384 -24.671  0.00  0.00    -0.045 A 
ATOM     10  C   UNL     1      -2.763   3.243 -25.235  0.00  0.00    -0.045 A 
ATOM     11  C   UNL     1      -1.545   2.793 -25.251  0.00  0.00    +0.033 A 
ATOM     12  C   UNL     1      -3.719   2.552 -25.784  0.00  0.00    +0.044 C 
ATOM     13  C   UNL     1      -4.247   4.833 -24.655  0.00  0.00    +0.044 C 
ATOM     14  C   UNL     1      -0.588   3.484 -24.702  0.00  0.00    +0.090 A 
ATOM     15  N   UNL     1       0.631   3.034 -24.719  0.00  0.00    -0.243 NA
ATOM     16  C   UNL     1       1.585   3.725 -24.170  0.00  0.00    +0.097 A 
ENDROOT
BRANCH   2  17
ATOM     17  O   UNL     1       4.979   3.519 -23.652  0.00  0.00    -0.503 OA
ATOM     18  H   UNL     1       5.694   4.108 -23.797  0.00  0.00    +0.292 HD
ENDBRANCH   2  17
BRANCH   3  19
ATOM     19  O   UNL     1       4.447   5.801 -22.524  0.00  0.00    -0.503 OA
ATOM     20  H   UNL     1       5.201   6.041 -23.026  0.00  0.00    +0.292 HD
ENDBRANCH   3  19
BRANCH   1  21
ATOM     21  C   UNL     1       3.071   2.136 -24.750  0.00  0.00    +0.041 C 
BRANCH  21  22
ATOM     22  C   UNL     1       2.773   1.025 -24.143  0.00  0.00    +0.005 C 
BRANCH  22  23
ATOM     23  C   UNL     1       3.297   0.756 -22.983  0.00  0.00    +0.000 C 
BRANCH  23  24
ATOM     24  C   UNL     1       2.527   0.520 -21.962  0.00  0.00    +0.000 C 
BRANCH  24  25
ATOM     25  C   UNL     1       2.100   1.506 -21.229  0.00  0.00    +0.000 C 
BRANCH  25  26
ATOM     26  C   UNL     1       0.887   1.492 -20.763  0.00  0.00    +0.000 C 
BRANCH  26  27
ATOM     27  C   UNL     1      -0.123   1.582 -21.577  0.00  0.00    -0.000 C 
BRANCH  27  28
ATOM     28  C   UNL     1      -1.068   2.445 -21.348  0.00  0.00    -0.000 C 
BRANCH  28  29
ATOM     29  C   UNL     1      -2.308   2.125 -21.567  0.00  0.00    -0.000 C 
BRANCH  29  31
ATOM     30  C   UNL     1      -3.181   3.699 -20.216  0.00  0.00    +0.004 C 
ATOM     31  C   UNL     1      -3.256   2.968 -21.287  0.00  0.00    -0.003 C 
ENDBRANCH  29  31
ENDBRANCH  28  29
ENDBRANCH  27  28
ENDBRANCH  26  27
ENDBRANCH  25  26
ENDBRANCH  24  25
ENDBRANCH  23  24
ENDBRANCH  22  23
ENDBRANCH  21  22
ENDBRANCH   1  21
TORSDOF 12
ENDMDL
MODEL 2
REMARK VINA RESULT:    -9.031      2.535      6.119
REMARK INTER + INTRA:         -15.828
REMARK INTER:                 -14.471
REMARK INTRA:                  -1.357
REMARK UNBOUND:                -0.990
REMARK  Name = ZINC000085340879
REMARK  15 active torsions:
REMARK  status: ('A' for Active; 'I' for Inactive)
REMARK    1  A    between atoms: C_1  and  C_2
REMARK    2  A    between atoms: C_2  and  C_3
REMARK    3  A    between atoms: C_3  and  C_4
REMARK    4  A    between atoms: C_4  and  C_5
REMARK    5  A    between atoms: C_5  and  C_6
REMARK    6  A    between atoms: C_6  and  C_7
REMARK    7  A    between atoms: C_7  and  C_8
REMARK    8  A    between atoms: C_8  and  C_9
REMARK    9  A    between atoms: C_9  and  C_10
REMARK   10  A    between atoms: C_10  and  C_11
REMARK   11  A    between atoms: C_11  and  C_12
REMARK   12  A    between atoms: C_13  and  O_14
REMARK   13  A    between atoms: C_15  and  O_16
REMARK   14  A    between atoms: C_22  and  C_23
REMARK   15  A    between atoms: C_24  and  C_25
REMARK                            x       y       z     vdW  Elec       q    Type
REMARK                         _______ _______ _______ _____ _____    ______ ____
ROOT
ATOM      1  C   UNL     1       2.120   3.765 -23.933  0.00  0.00    +0.025 A 
ATOM      2  C   UNL     1       2.237   2.554 -24.389  0.00  0.00    +0.164 A 
ATOM      3  C   UNL     1       3.386   1.948 -24.345  0.00  0.00    +0.161 A 
ATOM      4  C   UNL     1       4.421   2.555 -23.843  0.00  0.00    +0.079 A 
ATOM      5  C   UNL     1       4.306   3.766 -23.386  0.00  0.00    +0.094 A 
ATOM      6  N   UNL     1       5.341   4.372 -22.884  0.00  0.00    -0.243 NA
ATOM      7  C   UNL     1       5.227   5.583 -22.426  0.00  0.00    +0.090 A 
ATOM      8  C   UNL     1       6.261   6.188 -21.925  0.00  0.00    +0.033 A 
ATOM      9  C   UNL     1       6.149   7.400 -21.467  0.00  0.00    -0.045 A 
ATOM     10  C   UNL     1       4.998   8.005 -21.512  0.00  0.00    -0.045 A 
ATOM     11  C   UNL     1       3.963   7.401 -22.013  0.00  0.00    +0.033 A 
ATOM     12  C   UNL     1       4.885   9.217 -21.054  0.00  0.00    +0.044 C 
ATOM     13  C   UNL     1       7.183   8.004 -20.966  0.00  0.00    +0.044 C 
ATOM     14  C   UNL     1       4.077   6.187 -22.471  0.00  0.00    +0.090 A 
ATOM     15  N   UNL     1       3.041   5.583 -22.973  0.00  0.00    -0.243 NA
ATOM     16  C   UNL     1       3.156   4.372 -23.430  0.00  0.00    +0.097 A 
ENDROOT
BRANCH   2  17
ATOM     17  O   UNL     1       1.202   1.947 -24.892  0.00  0.00    -0.503 OA
ATOM     18  H   UNL     1       0.346   2.120 -24.551  0.00  0.00    +0.292 HD
ENDBRANCH   2  17
BRANCH   3  19
ATOM     19  O   UNL     1       3.502   0.738 -24.802  0.00  0.00    -0.503 OA
ATOM     20  H   UNL     1       4.284   0.248 -24.641  0.00  0.00    +0.292 HD
ENDBRANCH   3  19
BRANCH   1  21
ATOM     21  C   UNL     1       0.972   4.371 -23.977  0.00  0.00    +0.041 C 
BRANCH  21  22
ATOM     22  C   UNL     1       0.153   4.287 -22.970  0.00  0.00    +0.005 C 
BRANCH  22  23
ATOM     23  C   UNL     1      -1.111   4.545 -23.135  0.00  0.00    +0.000 C 
BRANCH  23  24
ATOM     24  C   UNL     1      -1.738   4.079 -24.175  0.00  0.00    +0.000 C 
BRANCH  24  25
ATOM     25  C   UNL     1      -2.970   4.428 -24.400  0.00  0.00    +0.000 C 
BRANCH  25  26
ATOM     26  C   UNL     1      -3.919   3.541 -24.334  0.00  0.00    +0.000 C 
BRANCH  26  27
ATOM     27  C   UNL     1      -4.976   3.774 -23.615  0.00  0.00    -0.000 C 
BRANCH  27  28
ATOM     28  C   UNL     1      -4.897   3.754 -22.316  0.00  0.00    -0.000 C 
BRANCH  28  29
ATOM     29  C   UNL     1      -4.578   2.654 -21.702  0.00  0.00    -0.000 C 
BRANCH  29  31
ATOM     30  C   UNL     1      -3.223   3.726 -20.259  0.00  0.00    +0.004 C 
ATOM     31  C   UNL     1      -3.575   2.638 -20.877  0.00  0.00    -0.003 C 
ENDBRANCH  29  31
ENDBRANCH  28  29
ENDBRANCH  27  28
ENDBRANCH  26  27
ENDBRANCH  25  26
ENDBRANCH  24  25
ENDBRANCH  23  24
ENDBRANCH  22  23
ENDBRANCH  21  22
ENDBRANCH   1  21
TORSDOF 12
ENDMDL
MODEL 3
REMARK VINA RESULT:    -8.714      2.558      6.106
REMARK INTER + INTRA:         -15.308
REMARK INTER:                 -14.152
REMARK INTRA:                  -1.156
REMARK UNBOUND:                -0.990
REMARK  Name = ZINC000085340879
REMARK  15 active torsions:
REMARK  status: ('A' for Active; 'I' for Inactive)
REMARK    1  A    between atoms: C_1  and  C_2
REMARK    2  A    between atoms: C_2  and  C_3
REMARK    3  A    between atoms: C_3  and  C_4
REMARK    4  A    between atoms: C_4  and  C_5
REMARK    5  A    between atoms: C_5  and  C_6
REMARK    6  A    between atoms: C_6  and  C_7
REMARK    7  A    between atoms: C_7  and  C_8
REMARK    8  A    between atoms: C_8  and  C_9
REMARK    9  A    between atoms: C_9  and  C_10
REMARK   10  A    between atoms: C_10  and  C_11
REMARK   11  A    between atoms: C_11  and  C_12
REMARK   12  A    between atoms: C_13  and  O_14
REMARK   13  A    between atoms: C_15  and  O_16
REMARK   14  A    between atoms: C_22  and  C_23
REMARK   15  A    between atoms: C_24  and  C_25
REMARK                            x       y       z     vdW  Elec       q    Type
REMARK                         _______ _______ _______ _____ _____    ______ ____
ROOT
ATOM      1  C   UNL     1       2.118   3.729 -24.012  0.00  0.00    +0.025 A 
ATOM      2  C   UNL     1       2.235   2.529 -24.496  0.00  0.00    +0.164 A 
ATOM      3  C   UNL     1       3.385   1.923 -24.471  0.00  0.00    +0.161 A 
ATOM      4  C   UNL     1       4.421   2.519 -23.960  0.00  0.00    +0.079 A 
ATOM      5  C   UNL     1       4.307   3.719 -23.475  0.00  0.00    +0.094 A 
ATOM      6  N   UNL     1       5.344   4.315 -22.964  0.00  0.00    -0.243 NA
ATOM      7  C   UNL     1       5.231   5.515 -22.478  0.00  0.00    +0.090 A 
ATOM      8  C   UNL     1       6.267   6.109 -21.968  0.00  0.00    +0.033 A 
ATOM      9  C   UNL     1       6.156   7.310 -21.482  0.00  0.00    -0.045 A 
ATOM     10  C   UNL     1       5.004   7.915 -21.508  0.00  0.00    -0.045 A 
ATOM     11  C   UNL     1       3.967   7.322 -22.018  0.00  0.00    +0.033 A 
ATOM     12  C   UNL     1       4.892   9.117 -21.022  0.00  0.00    +0.044 C 
ATOM     13  C   UNL     1       7.191   7.904 -20.972  0.00  0.00    +0.044 C 
ATOM     14  C   UNL     1       4.080   6.119 -22.504  0.00  0.00    +0.090 A 
ATOM     15  N   UNL     1       3.043   5.525 -23.015  0.00  0.00    -0.243 NA
ATOM     16  C   UNL     1       3.156   4.325 -23.500  0.00  0.00    +0.097 A 
ENDROOT
BRANCH   2  17
ATOM     17  O   UNL     1       1.198   1.932 -25.007  0.00  0.00    -0.503 OA
ATOM     18  H   UNL     1       0.556   1.544 -24.446  0.00  0.00    +0.292 HD
ENDBRANCH   2  17
BRANCH   3  19
ATOM     19  O   UNL     1       3.499   0.723 -24.956  0.00  0.00    -0.503 OA
ATOM     20  H   UNL     1       2.918   0.045 -24.672  0.00  0.00    +0.292 HD
ENDBRANCH   3  19
BRANCH   1  21
ATOM     21  C   UNL     1       0.970   4.334 -24.037  0.00  0.00    +0.041 C 
BRANCH  21  22
ATOM     22  C   UNL     1       0.008   3.938 -23.255  0.00  0.00    +0.005 C 
BRANCH  22  23
ATOM     23  C   UNL     1      -1.040   4.688 -23.082  0.00  0.00    +0.000 C 
BRANCH  23  24
ATOM     24  C   UNL     1      -1.631   4.721 -21.924  0.00  0.00    +0.000 C 
BRANCH  24  25
ATOM     25  C   UNL     1      -2.160   3.638 -21.434  0.00  0.00    +0.000 C 
BRANCH  25  26
ATOM     26  C   UNL     1      -3.372   3.662 -20.966  0.00  0.00    +0.000 C 
BRANCH  26  27
ATOM     27  C   UNL     1      -4.314   2.997 -21.567  0.00  0.00    -0.000 C 
BRANCH  27  28
ATOM     28  C   UNL     1      -5.114   3.604 -22.393  0.00  0.00    -0.000 C 
BRANCH  28  29
ATOM     29  C   UNL     1      -4.939   3.482 -23.675  0.00  0.00    -0.000 C 
BRANCH  29  31
ATOM     30  C   UNL     1      -4.004   4.573 -25.408  0.00  0.00    +0.004 C 
ATOM     31  C   UNL     1      -4.851   4.541 -24.422  0.00  0.00    -0.003 C 
ENDBRANCH  29  31
ENDBRANCH  28  29
ENDBRANCH  27  28
ENDBRANCH  26  27
ENDBRANCH  25  26
ENDBRANCH  24  25
ENDBRANCH  23  24
ENDBRANCH  22  23
ENDBRANCH  21  22
ENDBRANCH   1  21
TORSDOF 12
ENDMDL
MODEL 4
REMARK VINA RESULT:    -8.601      2.995      6.523
REMARK INTER + INTRA:         -15.121
REMARK INTER:                 -14.392
REMARK INTRA:                  -0.729
REMARK UNBOUND:                -0.990
REMARK  Name = ZINC000085340879
REMARK  15 active torsions:
REMARK  status: ('A' for Active; 'I' for Inactive)
REMARK    1  A    between atoms: C_1  and  C_2
REMARK    2  A    between atoms: C_2  and  C_3
REMARK    3  A    between atoms: C_3  and  C_4
REMARK    4  A    between atoms: C_4  and  C_5
REMARK    5  A    between atoms: C_5  and  C_6
REMARK    6  A    between atoms: C_6  and  C_7
REMARK    7  A    between atoms: C_7  and  C_8
REMARK    8  A    between atoms: C_8  and  C_9
REMARK    9  A    between atoms: C_9  and  C_10
REMARK   10  A    between atoms: C_10  and  C_11
REMARK   11  A    between atoms: C_11  and  C_12
REMARK   12  A    between atoms: C_13  and  O_14
REMARK   13  A    between atoms: C_15  and  O_16
REMARK   14  A    between atoms: C_22  and  C_23
REMARK   15  A    between atoms: C_24  and  C_25
REMARK                            x       y       z     vdW  Elec       q    Type
REMARK                         _______ _______ _______ _____ _____    ______ ____
ROOT
ATOM      1  C   UNL     1       2.859   3.052 -23.670  0.00  0.00    +0.025 A 
ATOM      2  C   UNL     1       2.403   1.836 -23.717  0.00  0.00    +0.164 A 
ATOM      3  C   UNL     1       3.039   0.876 -23.116  0.00  0.00    +0.161 A 
ATOM      4  C   UNL     1       4.135   1.131 -22.465  0.00  0.00    +0.079 A 
ATOM      5  C   UNL     1       4.594   2.346 -22.415  0.00  0.00    +0.094 A 
ATOM      6  N   UNL     1       5.689   2.601 -21.763  0.00  0.00    -0.243 NA
ATOM      7  C   UNL     1       6.149   3.815 -21.713  0.00  0.00    +0.090 A 
ATOM      8  C   UNL     1       7.243   4.069 -21.062  0.00  0.00    +0.033 A 
ATOM      9  C   UNL     1       7.705   5.284 -21.011  0.00  0.00    -0.045 A 
ATOM     10  C   UNL     1       7.068   6.244 -21.614  0.00  0.00    -0.045 A 
ATOM     11  C   UNL     1       5.972   5.992 -22.265  0.00  0.00    +0.033 A 
ATOM     12  C   UNL     1       7.528   7.460 -21.563  0.00  0.00    +0.044 C 
ATOM     13  C   UNL     1       8.799   5.537 -20.360  0.00  0.00    +0.044 C 
ATOM     14  C   UNL     1       5.512   4.775 -22.315  0.00  0.00    +0.090 A 
ATOM     15  N   UNL     1       4.416   4.522 -22.967  0.00  0.00    -0.243 NA
ATOM     16  C   UNL     1       3.957   3.307 -23.017  0.00  0.00    +0.097 A 
ENDROOT
BRANCH   2  17
ATOM     17  O   UNL     1       1.307   1.581 -24.369  0.00  0.00    -0.503 OA
ATOM     18  H   UNL     1       0.475   1.722 -23.962  0.00  0.00    +0.292 HD
ENDBRANCH   2  17
BRANCH   3  19
ATOM     19  O   UNL     1       2.581  -0.339 -23.165  0.00  0.00    -0.503 OA
ATOM     20  H   UNL     1       1.656  -0.492 -23.152  0.00  0.00    +0.292 HD
ENDBRANCH   3  19
BRANCH   1  21
ATOM     21  C   UNL     1       2.225   4.012 -24.270  0.00  0.00    +0.041 C 
BRANCH  21  22
ATOM     22  C   UNL     1       1.215   4.589 -23.688  0.00  0.00    +0.005 C 
BRANCH  22  23
ATOM     23  C   UNL     1       0.020   4.469 -24.186  0.00  0.00    +0.000 C 
BRANCH  23  24
ATOM     24  C   UNL     1      -0.988   5.047 -23.603  0.00  0.00    +0.000 C 
BRANCH  24  25
ATOM     25  C   UNL     1      -1.271   4.768 -22.365  0.00  0.00    +0.000 C 
BRANCH  25  26
ATOM     26  C   UNL     1      -1.761   3.604 -22.057  0.00  0.00    +0.000 C 
BRANCH  26  27
ATOM     27  C   UNL     1      -2.415   3.448 -20.945  0.00  0.00    -0.000 C 
BRANCH  27  28
ATOM     28  C   UNL     1      -3.692   3.690 -20.902  0.00  0.00    -0.000 C 
BRANCH  28  29
ATOM     29  C   UNL     1      -4.536   2.814 -21.358  0.00  0.00    -0.000 C 
BRANCH  29  31
ATOM     30  C   UNL     1      -5.254   3.734 -23.283  0.00  0.00    +0.004 C 
ATOM     31  C   UNL     1      -5.510   3.190 -22.131  0.00  0.00    -0.003 C 
ENDBRANCH  29  31
ENDBRANCH  28  29
ENDBRANCH  27  28
ENDBRANCH  26  27
ENDBRANCH  25  26
ENDBRANCH  24  25
ENDBRANCH  23  24
ENDBRANCH  22  23
ENDBRANCH  21  22
ENDBRANCH   1  21
TORSDOF 12
ENDMDL
MODEL 5
REMARK VINA RESULT:    -8.289      2.889      5.578
REMARK INTER + INTRA:         -14.609
REMARK INTER:                 -12.953
REMARK INTRA:                  -1.655
REMARK UNBOUND:                -0.990
REMARK  Name = ZINC000085340879
REMARK  15 active torsions:
REMARK  status: ('A' for Active; 'I' for Inactive)
REMARK    1  A    between atoms: C_1  and  C_2
REMARK    2  A    between atoms: C_2  and  C_3
REMARK    3  A    between atoms: C_3  and  C_4
REMARK    4  A    between atoms: C_4  and  C_5
REMARK    5  A    between atoms: C_5  and  C_6
REMARK    6  A    between atoms: C_6  and  C_7
REMARK    7  A    between atoms: C_7  and  C_8
REMARK    8  A    between atoms: C_8  and  C_9
REMARK    9  A    between atoms: C_9  and  C_10
REMARK   10  A    between atoms: C_10  and  C_11
REMARK   11  A    between atoms: C_11  and  C_12
REMARK   12  A    between atoms: C_13  and  O_14
REMARK   13  A    between atoms: C_15  and  O_16
REMARK   14  A    between atoms: C_22  and  C_23
REMARK   15  A    between atoms: C_24  and  C_25
REMARK                            x       y       z     vdW  Elec       q    Type
REMARK                         _______ _______ _______ _____ _____    ______ ____
ROOT
ATOM      1  C   UNL     1       4.383   2.066 -22.630  0.00  0.00    +0.025 A 
ATOM      2  C   UNL     1       5.213   1.272 -22.021  0.00  0.00    +0.164 A 
ATOM      3  C   UNL     1       4.781   0.446 -21.115  0.00  0.00    +0.161 A 
ATOM      4  C   UNL     1       3.515   0.413 -20.818  0.00  0.00    +0.079 A 
ATOM      5  C   UNL     1       2.683   1.204 -21.426  0.00  0.00    +0.094 A 
ATOM      6  N   UNL     1       1.418   1.170 -21.129  0.00  0.00    -0.243 NA
ATOM      7  C   UNL     1       0.585   1.962 -21.736  0.00  0.00    +0.090 A 
ATOM      8  C   UNL     1      -0.678   1.927 -21.438  0.00  0.00    +0.033 A 
ATOM      9  C   UNL     1      -1.513   2.718 -22.045  0.00  0.00    -0.045 A 
ATOM     10  C   UNL     1      -1.079   3.545 -22.951  0.00  0.00    -0.045 A 
ATOM     11  C   UNL     1       0.185   3.580 -23.250  0.00  0.00    +0.033 A 
ATOM     12  C   UNL     1      -1.913   4.337 -23.559  0.00  0.00    +0.044 C 
ATOM     13  C   UNL     1      -2.776   2.683 -21.748  0.00  0.00    +0.044 C 
ATOM     14  C   UNL     1       1.019   2.787 -22.641  0.00  0.00    +0.090 A 
ATOM     15  N   UNL     1       2.284   2.823 -22.940  0.00  0.00    -0.243 NA
ATOM     16  C   UNL     1       3.116   2.031 -22.332  0.00  0.00    +0.097 A 
ENDROOT
BRANCH   2  17
ATOM     17  O   UNL     1       6.479   1.307 -22.318  0.00  0.00    -0.503 OA
ATOM     18  H   UNL     1       6.762   1.096 -23.186  0.00  0.00    +0.292 HD
ENDBRANCH   2  17
BRANCH   3  19
ATOM     19  O   UNL     1       5.612  -0.345 -20.507  0.00  0.00    -0.503 OA
ATOM     20  H   UNL     1       5.608  -1.264 -20.695  0.00  0.00    +0.292 HD
ENDBRANCH   3  19
BRANCH   1  21
ATOM     21  C   UNL     1       4.814   2.891 -23.535  0.00  0.00    +0.041 C 
BRANCH  21  22
ATOM     22  C   UNL     1       5.268   4.059 -23.186  0.00  0.00    +0.005 C 
BRANCH  22  23
ATOM     23  C   UNL     1       6.430   4.459 -23.612  0.00  0.00    +0.000 C 
BRANCH  23  24
ATOM     24  C   UNL     1       7.399   4.653 -22.767  0.00  0.00    +0.000 C 
BRANCH  24  25
ATOM     25  C   UNL     1       7.208   4.439 -21.498  0.00  0.00    +0.000 C 
BRANCH  25  26
ATOM     26  C   UNL     1       7.808   5.182 -20.616  0.00  0.00    +0.000 C 
BRANCH  26  27
ATOM     27  C   UNL     1       7.132   6.063 -19.942  0.00  0.00    -0.000 C 
BRANCH  27  28
ATOM     28  C   UNL     1       7.015   7.278 -20.393  0.00  0.00    -0.000 C 
BRANCH  28  29
ATOM     29  C   UNL     1       5.836   7.778 -20.613  0.00  0.00    -0.000 C 
BRANCH  29  31
ATOM     30  C   UNL     1       4.138   7.457 -22.054  0.00  0.00    +0.004 C 
ATOM     31  C   UNL     1       5.364   7.821 -21.822  0.00  0.00    -0.003 C 
ENDBRANCH  29  31
ENDBRANCH  28  29
ENDBRANCH  27  28
ENDBRANCH  26  27
ENDBRANCH  25  26
ENDBRANCH  24  25
ENDBRANCH  23  24
ENDBRANCH  22  23
ENDBRANCH  21  22
ENDBRANCH   1  21
TORSDOF 12
ENDMDL
MODEL 6
REMARK VINA RESULT:    -8.121      2.406      4.996
REMARK INTER + INTRA:         -14.333
REMARK INTER:                 -13.762
REMARK INTRA:                  -0.571
REMARK UNBOUND:                -0.990
REMARK  Name = ZINC000085340879
REMARK  15 active torsions:
REMARK  status: ('A' for Active; 'I' for Inactive)
REMARK    1  A    between atoms: C_1  and  C_2
REMARK    2  A    between atoms: C_2  and  C_3
REMARK    3  A    between atoms: C_3  and  C_4
REMARK    4  A    between atoms: C_4  and  C_5
REMARK    5  A    between atoms: C_5  and  C_6
REMARK    6  A    between atoms: C_6  and  C_7
REMARK    7  A    between atoms: C_7  and  C_8
REMARK    8  A    between atoms: C_8  and  C_9
REMARK    9  A    between atoms: C_9  and  C_10
REMARK   10  A    between atoms: C_10  and  C_11
REMARK   11  A    between atoms: C_11  and  C_12
REMARK   12  A    between atoms: C_13  and  O_14
REMARK   13  A    between atoms: C_15  and  O_16
REMARK   14  A    between atoms: C_22  and  C_23
REMARK   15  A    between atoms: C_24  and  C_25
REMARK                            x       y       z     vdW  Elec       q    Type
REMARK                         _______ _______ _______ _____ _____    ______ ____
ROOT
ATOM      1  C   UNL     1       1.232   2.373 -23.156  0.00  0.00    +0.025 A 
ATOM      2  C   UNL     1       2.102   1.861 -22.339  0.00  0.00    +0.164 A 
ATOM      3  C   UNL     1       1.729   1.440 -21.167  0.00  0.00    +0.161 A 
ATOM      4  C   UNL     1       0.482   1.531 -20.812  0.00  0.00    +0.079 A 
ATOM      5  C   UNL     1      -0.391   2.042 -21.627  0.00  0.00    +0.094 A 
ATOM      6  N   UNL     1      -1.638   2.133 -21.271  0.00  0.00    -0.243 NA
ATOM      7  C   UNL     1      -2.512   2.645 -22.086  0.00  0.00    +0.090 A 
ATOM      8  C   UNL     1      -3.757   2.735 -21.729  0.00  0.00    +0.033 A 
ATOM      9  C   UNL     1      -4.633   3.247 -22.544  0.00  0.00    -0.045 A 
ATOM     10  C   UNL     1      -4.258   3.668 -23.716  0.00  0.00    -0.045 A 
ATOM     11  C   UNL     1      -3.012   3.578 -24.073  0.00  0.00    +0.033 A 
ATOM     12  C   UNL     1      -5.133   4.180 -24.531  0.00  0.00    +0.044 C 
ATOM     13  C   UNL     1      -5.878   3.337 -22.187  0.00  0.00    +0.044 C 
ATOM     14  C   UNL     1      -2.137   3.066 -23.257  0.00  0.00    +0.090 A 
ATOM     15  N   UNL     1      -0.890   2.976 -23.615  0.00  0.00    -0.243 NA
ATOM     16  C   UNL     1      -0.017   2.464 -22.800  0.00  0.00    +0.097 A 
ENDROOT
BRANCH   2  17
ATOM     17  O   UNL     1       3.350   1.771 -22.695  0.00  0.00    -0.503 OA
ATOM     18  H   UNL     1       3.841   2.545 -22.887  0.00  0.00    +0.292 HD
ENDBRANCH   2  17
BRANCH   3  19
ATOM     19  O   UNL     1       2.601   0.928 -20.352  0.00  0.00    -0.503 OA
ATOM     20  H   UNL     1       3.515   0.973 -20.554  0.00  0.00    +0.292 HD
ENDBRANCH   3  19
BRANCH   1  21
ATOM     21  C   UNL     1       1.604   2.795 -24.326  0.00  0.00    +0.041 C 
BRANCH  21  22
ATOM     22  C   UNL     1       2.369   3.841 -24.428  0.00  0.00    +0.005 C 
BRANCH  22  23
ATOM     23  C   UNL     1       2.205   4.849 -23.623  0.00  0.00    +0.000 C 
BRANCH  23  24
ATOM     24  C   UNL     1       3.210   5.299 -22.931  0.00  0.00    +0.000 C 
BRANCH  24  25
ATOM     25  C   UNL     1       4.418   4.909 -23.212  0.00  0.00    +0.000 C 
BRANCH  25  26
ATOM     26  C   UNL     1       5.363   5.034 -22.329  0.00  0.00    +0.000 C 
BRANCH  26  27
ATOM     27  C   UNL     1       6.115   6.094 -22.328  0.00  0.00    -0.000 C 
BRANCH  27  28
ATOM     28  C   UNL     1       6.242   6.800 -21.243  0.00  0.00    -0.000 C 
BRANCH  28  29
ATOM     29  C   UNL     1       5.798   8.021 -21.207  0.00  0.00    -0.000 C 
BRANCH  29  31
ATOM     30  C   UNL     1       4.225   9.484 -20.536  0.00  0.00    +0.004 C 
ATOM     31  C   UNL     1       4.594   8.263 -20.784  0.00  0.00    -0.003 C 
ENDBRANCH  29  31
ENDBRANCH  28  29
ENDBRANCH  27  28
ENDBRANCH  26  27
ENDBRANCH  25  26
ENDBRANCH  24  25
ENDBRANCH  23  24
ENDBRANCH  22  23
ENDBRANCH  21  22
ENDBRANCH   1  21
TORSDOF 12
ENDMDL
MODEL 7
REMARK VINA RESULT:    -7.451      2.154      4.604
REMARK INTER + INTRA:         -13.233
REMARK INTER:                 -12.031
REMARK INTRA:                  -1.202
REMARK UNBOUND:                -0.990
REMARK  Name = ZINC000085340879
REMARK  15 active torsions:
REMARK  status: ('A' for Active; 'I' for Inactive)
REMARK    1  A    between atoms: C_1  and  C_2
REMARK    2  A    between atoms: C_2  and  C_3
REMARK    3  A    between atoms: C_3  and  C_4
REMARK    4  A    between atoms: C_4  and  C_5
REMARK    5  A    between atoms: C_5  and  C_6
REMARK    6  A    between atoms: C_6  and  C_7
REMARK    7  A    between atoms: C_7  and  C_8
REMARK    8  A    between atoms: C_8  and  C_9
REMARK    9  A    between atoms: C_9  and  C_10
REMARK   10  A    between atoms: C_10  and  C_11
REMARK   11  A    between atoms: C_11  and  C_12
REMARK   12  A    between atoms: C_13  and  O_14
REMARK   13  A    between atoms: C_15  and  O_16
REMARK   14  A    between atoms: C_22  and  C_23
REMARK   15  A    between atoms: C_24  and  C_25
REMARK                            x       y       z     vdW  Elec       q    Type
REMARK                         _______ _______ _______ _____ _____    ______ ____
ROOT
ATOM      1  C   UNL     1       0.979   2.965 -23.262  0.00  0.00    +0.025 A 
ATOM      2  C   UNL     1       1.616   3.400 -24.308  0.00  0.00    +0.164 A 
ATOM      3  C   UNL     1       0.963   3.945 -25.290  0.00  0.00    +0.161 A 
ATOM      4  C   UNL     1      -0.331   4.055 -25.227  0.00  0.00    +0.079 A 
ATOM      5  C   UNL     1      -0.971   3.621 -24.182  0.00  0.00    +0.094 A 
ATOM      6  N   UNL     1      -2.264   3.731 -24.120  0.00  0.00    -0.243 NA
ATOM      7  C   UNL     1      -2.905   3.297 -23.075  0.00  0.00    +0.090 A 
ATOM      8  C   UNL     1      -4.197   3.408 -23.013  0.00  0.00    +0.033 A 
ATOM      9  C   UNL     1      -4.839   2.974 -21.969  0.00  0.00    -0.045 A 
ATOM     10  C   UNL     1      -4.184   2.429 -20.987  0.00  0.00    -0.045 A 
ATOM     11  C   UNL     1      -2.891   2.317 -21.047  0.00  0.00    +0.033 A 
ATOM     12  C   UNL     1      -4.825   1.994 -19.941  0.00  0.00    +0.044 C 
ATOM     13  C   UNL     1      -6.131   3.085 -21.907  0.00  0.00    +0.044 C 
ATOM     14  C   UNL     1      -2.250   2.752 -22.094  0.00  0.00    +0.090 A 
ATOM     15  N   UNL     1      -0.956   2.641 -22.155  0.00  0.00    -0.243 NA
ATOM     16  C   UNL     1      -0.316   3.075 -23.199  0.00  0.00    +0.097 A 
ENDROOT
BRANCH   2  17
ATOM     17  O   UNL     1       2.911   3.289 -24.371  0.00  0.00    -0.503 OA
ATOM     18  H   UNL     1       3.446   4.058 -24.407  0.00  0.00    +0.292 HD
ENDBRANCH   2  17
BRANCH   3  19
ATOM     19  O   UNL     1       1.601   4.379 -26.335  0.00  0.00    -0.503 OA
ATOM     20  H   UNL     1       1.213   4.310 -27.184  0.00  0.00    +0.292 HD
ENDBRANCH   3  19
BRANCH   1  21
ATOM     21  C   UNL     1       1.632   2.420 -22.280  0.00  0.00    +0.041 C 
BRANCH  21  22
ATOM     22  C   UNL     1       1.659   1.126 -22.156  0.00  0.00    +0.005 C 
BRANCH  22  23
ATOM     23  C   UNL     1       2.786   0.485 -22.263  0.00  0.00    +0.000 C 
BRANCH  23  24
ATOM     24  C   UNL     1       3.579   0.389 -21.237  0.00  0.00    +0.000 C 
BRANCH  24  25
ATOM     25  C   UNL     1       4.833   0.713 -21.353  0.00  0.00    +0.000 C 
BRANCH  25  26
ATOM     26  C   UNL     1       5.323   1.680 -20.637  0.00  0.00    +0.000 C 
BRANCH  26  27
ATOM     27  C   UNL     1       5.747   2.765 -21.213  0.00  0.00    -0.000 C 
BRANCH  27  28
ATOM     28  C   UNL     1       5.890   2.802 -22.506  0.00  0.00    -0.000 C 
BRANCH  28  29
ATOM     29  C   UNL     1       6.187   3.921 -23.095  0.00  0.00    -0.000 C 
BRANCH  29  31
ATOM     30  C   UNL     1       6.247   6.059 -22.394  0.00  0.00    +0.004 C 
ATOM     31  C   UNL     1       5.568   5.014 -22.764  0.00  0.00    -0.003 C 
ENDBRANCH  29  31
ENDBRANCH  28  29
ENDBRANCH  27  28
ENDBRANCH  26  27
ENDBRANCH  25  26
ENDBRANCH  24  25
ENDBRANCH  23  24
ENDBRANCH  22  23
ENDBRANCH  21  22
ENDBRANCH   1  21
TORSDOF 12
ENDMDL
MODEL 8
REMARK VINA RESULT:    -7.224      1.510      4.183
REMARK INTER + INTRA:         -12.860
REMARK INTER:                 -11.870
REMARK INTRA:                  -0.990
REMARK UNBOUND:                -0.990
REMARK  Name = ZINC000085340879
REMARK  15 active torsions:
REMARK  status: ('A' for Active; 'I' for Inactive)
REMARK    1  A    between atoms: C_1  and  C_2
REMARK    2  A    between atoms: C_2  and  C_3
REMARK    3  A    between atoms: C_3  and  C_4
REMARK    4  A    between atoms: C_4  and  C_5
REMARK    5  A    between atoms: C_5  and  C_6
REMARK    6  A    between atoms: C_6  and  C_7
REMARK    7  A    between atoms: C_7  and  C_8
REMARK    8  A    between atoms: C_8  and  C_9
REMARK    9  A    between atoms: C_9  and  C_10
REMARK   10  A    between atoms: C_10  and  C_11
REMARK   11  A    between atoms: C_11  and  C_12
REMARK   12  A    between atoms: C_13  and  O_14
REMARK   13  A    between atoms: C_15  and  O_16
REMARK   14  A    between atoms: C_22  and  C_23
REMARK   15  A    between atoms: C_24  and  C_25
REMARK                            x       y       z     vdW  Elec       q    Type
REMARK                         _______ _______ _______ _____ _____    ______ ____
ROOT
ATOM      1  C   UNL     1       2.512   3.128 -22.955  0.00  0.00    +0.025 A 
ATOM      2  C   UNL     1       3.520   2.325 -23.120  0.00  0.00    +0.164 A 
ATOM      3  C   UNL     1       3.401   1.062 -22.839  0.00  0.00    +0.161 A 
ATOM      4  C   UNL     1       2.271   0.600 -22.391  0.00  0.00    +0.079 A 
ATOM      5  C   UNL     1       1.262   1.401 -22.224  0.00  0.00    +0.094 A 
ATOM      6  N   UNL     1       0.132   0.939 -21.776  0.00  0.00    -0.243 NA
ATOM      7  C   UNL     1      -0.878   1.740 -21.609  0.00  0.00    +0.090 A 
ATOM      8  C   UNL     1      -2.005   1.277 -21.161  0.00  0.00    +0.033 A 
ATOM      9  C   UNL     1      -3.018   2.077 -20.993  0.00  0.00    -0.045 A 
ATOM     10  C   UNL     1      -2.897   3.341 -21.276  0.00  0.00    -0.045 A 
ATOM     11  C   UNL     1      -1.770   3.804 -21.724  0.00  0.00    +0.033 A 
ATOM     12  C   UNL     1      -3.909   4.142 -21.109  0.00  0.00    +0.044 C 
ATOM     13  C   UNL     1      -4.145   1.615 -20.546  0.00  0.00    +0.044 C 
ATOM     14  C   UNL     1      -0.757   3.003 -21.891  0.00  0.00    +0.090 A 
ATOM     15  N   UNL     1       0.371   3.466 -22.339  0.00  0.00    -0.243 NA
ATOM     16  C   UNL     1       1.381   2.666 -22.506  0.00  0.00    +0.097 A 
ENDROOT
BRANCH   2  17
ATOM     17  O   UNL     1       4.650   2.787 -23.569  0.00  0.00    -0.503 OA
ATOM     18  H   UNL     1       4.882   3.683 -23.422  0.00  0.00    +0.292 HD
ENDBRANCH   2  17
BRANCH   3  19
ATOM     19  O   UNL     1       4.410   0.260 -23.005  0.00  0.00    -0.503 OA
ATOM     20  H   UNL     1       4.814   0.184 -23.847  0.00  0.00    +0.292 HD
ENDBRANCH   3  19
BRANCH   1  21
ATOM     21  C   UNL     1       2.630   4.390 -23.236  0.00  0.00    +0.041 C 
BRANCH  21  22
ATOM     22  C   UNL     1       1.948   4.905 -24.217  0.00  0.00    +0.005 C 
BRANCH  22  23
ATOM     23  C   UNL     1       1.902   4.298 -25.366  0.00  0.00    +0.000 C 
BRANCH  23  24
ATOM     24  C   UNL     1       0.759   4.113 -25.957  0.00  0.00    +0.000 C 
BRANCH  24  25
ATOM     25  C   UNL     1      -0.332   4.042 -25.253  0.00  0.00    +0.000 C 
BRANCH  25  26
ATOM     26  C   UNL     1      -1.413   3.546 -25.778  0.00  0.00    +0.000 C 
BRANCH  26  27
ATOM     27  C   UNL     1      -2.302   2.977 -25.020  0.00  0.00    -0.000 C 
BRANCH  27  28
ATOM     28  C   UNL     1      -3.556   2.993 -25.362  0.00  0.00    -0.000 C 
BRANCH  28  29
ATOM     29  C   UNL     1      -4.173   4.127 -25.518  0.00  0.00    -0.000 C 
BRANCH  29  31
ATOM     30  C   UNL     1      -5.558   3.738 -23.787  0.00  0.00    +0.004 C 
ATOM     31  C   UNL     1      -4.962   4.571 -24.586  0.00  0.00    -0.003 C 
ENDBRANCH  29  31
ENDBRANCH  28  29
ENDBRANCH  27  28
ENDBRANCH  26  27
ENDBRANCH  25  26
ENDBRANCH  24  25
ENDBRANCH  23  24
ENDBRANCH  22  23
ENDBRANCH  21  22
ENDBRANCH   1  21
TORSDOF 12
ENDMDL
MODEL 9
REMARK VINA RESULT:    -7.223      3.126      6.096
REMARK INTER + INTRA:         -12.857
REMARK INTER:                 -11.885
REMARK INTRA:                  -0.972
REMARK UNBOUND:                -0.990
REMARK  Name = ZINC000085340879
REMARK  15 active torsions:
REMARK  status: ('A' for Active; 'I' for Inactive)
REMARK    1  A    between atoms: C_1  and  C_2
REMARK    2  A    between atoms: C_2  and  C_3
REMARK    3  A    between atoms: C_3  and  C_4
REMARK    4  A    between atoms: C_4  and  C_5
REMARK    5  A    between atoms: C_5  and  C_6
REMARK    6  A    between atoms: C_6  and  C_7
REMARK    7  A    between atoms: C_7  and  C_8
REMARK    8  A    between atoms: C_8  and  C_9
REMARK    9  A    between atoms: C_9  and  C_10
REMARK   10  A    between atoms: C_10  and  C_11
REMARK   11  A    between atoms: C_11  and  C_12
REMARK   12  A    between atoms: C_13  and  O_14
REMARK   13  A    between atoms: C_15  and  O_16
REMARK   14  A    between atoms: C_22  and  C_23
REMARK   15  A    between atoms: C_24  and  C_25
REMARK                            x       y       z     vdW  Elec       q    Type
REMARK                         _______ _______ _______ _____ _____    ______ ____
ROOT
ATOM      1  C   UNL     1       4.336   3.729 -23.216  0.00  0.00    +0.025 A 
ATOM      2  C   UNL     1       5.019   2.623 -23.234  0.00  0.00    +0.164 A 
ATOM      3  C   UNL     1       6.226   2.593 -22.754  0.00  0.00    +0.161 A 
ATOM      4  C   UNL     1       6.752   3.671 -22.254  0.00  0.00    +0.079 A 
ATOM      5  C   UNL     1       6.072   4.778 -22.234  0.00  0.00    +0.094 A 
ATOM      6  N   UNL     1       6.600   5.856 -21.734  0.00  0.00    -0.243 NA
ATOM      7  C   UNL     1       5.920   6.964 -21.714  0.00  0.00    +0.090 A 
ATOM      8  C   UNL     1       6.448   8.040 -21.215  0.00  0.00    +0.033 A 
ATOM      9  C   UNL     1       5.769   9.150 -21.194  0.00  0.00    -0.045 A 
ATOM     10  C   UNL     1       4.561   9.179 -21.675  0.00  0.00    -0.045 A 
ATOM     11  C   UNL     1       4.033   8.103 -22.175  0.00  0.00    +0.033 A 
ATOM     12  C   UNL     1       3.882  10.288 -21.655  0.00  0.00    +0.044 C 
ATOM     13  C   UNL     1       6.296  10.226 -20.695  0.00  0.00    +0.044 C 
ATOM     14  C   UNL     1       4.713   6.993 -22.195  0.00  0.00    +0.090 A 
ATOM     15  N   UNL     1       4.184   5.916 -22.696  0.00  0.00    -0.243 NA
ATOM     16  C   UNL     1       4.864   4.809 -22.715  0.00  0.00    +0.097 A 
ENDROOT
BRANCH   2  17
ATOM     17  O   UNL     1       4.491   1.544 -23.734  0.00  0.00    -0.503 OA
ATOM     18  H   UNL     1       3.600   1.549 -24.025  0.00  0.00    +0.292 HD
ENDBRANCH   2  17
BRANCH   3  19
ATOM     19  O   UNL     1       6.906   1.486 -22.773  0.00  0.00    -0.503 OA
ATOM     20  H   UNL     1       7.511   1.320 -23.468  0.00  0.00    +0.292 HD
ENDBRANCH   3  19
BRANCH   1  21
ATOM     21  C   UNL     1       3.130   3.760 -23.696  0.00  0.00    +0.041 C 
BRANCH  21  22
ATOM     22  C   UNL     1       2.134   3.326 -22.981  0.00  0.00    +0.005 C 
BRANCH  22  23
ATOM     23  C   UNL     1       0.953   3.853 -23.122  0.00  0.00    +0.000 C 
BRANCH  23  24
ATOM     24  C   UNL     1       0.533   4.198 -24.303  0.00  0.00    +0.000 C 
BRANCH  24  25
ATOM     25  C   UNL     1      -0.399   3.505 -24.888  0.00  0.00    +0.000 C 
BRANCH  25  26
ATOM     26  C   UNL     1      -1.650   3.788 -24.677  0.00  0.00    +0.000 C 
BRANCH  26  27
ATOM     27  C   UNL     1      -2.430   2.908 -24.124  0.00  0.00    -0.000 C 
BRANCH  27  28
ATOM     28  C   UNL     1      -3.176   3.244 -23.113  0.00  0.00    -0.000 C 
BRANCH  28  29
ATOM     29  C   UNL     1      -2.633   3.746 -22.044  0.00  0.00    -0.000 C 
BRANCH  29  31
ATOM     30  C   UNL     1      -3.902   2.447 -20.713  0.00  0.00    +0.004 C 
ATOM     31  C   UNL     1      -3.138   3.486 -20.875  0.00  0.00    -0.003 C 
ENDBRANCH  29  31
ENDBRANCH  28  29
ENDBRANCH  27  28
ENDBRANCH  26  27
ENDBRANCH  25  26
ENDBRANCH  24  25
ENDBRANCH  23  24
ENDBRANCH  22  23
ENDBRANCH  21  22
ENDBRANCH   1  21
TORSDOF 12
ENDMDL
