MODEL 1
REMARK VINA RESULT:   -11.371      0.000      0.000
REMARK INTER + INTRA:         -12.035
REMARK INTER:                 -12.035
REMARK INTRA:                   0.000
REMARK UNBOUND:                 0.000
REMARK  Name = ZINC000017419101
REMARK  3 active torsions:
REMARK  status: ('A' for Active; 'I' for Inactive)
REMARK    1  A    between atoms: C_1  and  C_2
REMARK    2  A    between atoms: C_9  and  O_10
REMARK    3  A    between atoms: C_20  and  O_21
REMARK                            x       y       z     vdW  Elec       q    Type
REMARK                         _______ _______ _______ _____ _____    ______ ____
ROOT
ATOM      1  C   UNL     1      -4.525   3.821 -23.863  0.00  0.00    +0.014 C 
ATOM      2  C   UNL     1      -3.681   3.261 -23.048  0.00  0.00    -0.003 C 
ATOM      3  C   UNL     1      -3.168   3.591 -24.197  0.00  0.00    +0.010 C 
ATOM      4  C   UNL     1      -1.914   3.351 -24.441  0.00  0.00    +0.009 C 
ATOM      5  C   UNL     1      -1.172   2.782 -23.538  0.00  0.00    +0.023 C 
ATOM      6  C   UNL     1       0.082   2.543 -23.782  0.00  0.00    -0.040 A 
ATOM      7  C   UNL     1       0.594   2.872 -24.931  0.00  0.00    +0.008 A 
ATOM      8  C   UNL     1       1.848   2.633 -25.176  0.00  0.00    +0.047 A 
ATOM      9  C   UNL     1       2.589   2.064 -24.271  0.00  0.00    +0.131 A 
ATOM     10  C   UNL     1       2.077   1.735 -23.123  0.00  0.00    +0.063 A 
ATOM     11 BR   UNL     1       2.819   1.167 -22.219  0.00  0.00    -0.046 Br
ATOM     12  C   UNL     1       0.823   1.974 -22.878  0.00  0.00    -0.026 A 
ATOM     13  C   UNL     1       0.310   1.645 -21.730  0.00  0.00    +0.037 C 
ATOM     14  C   UNL     1      -0.944   1.885 -21.485  0.00  0.00    +0.009 C 
ATOM     15  C   UNL     1      -1.686   2.453 -22.389  0.00  0.00    +0.000 C 
ATOM     16  C   UNL     1      -4.880   3.388 -22.562  0.00  0.00    +0.121 C 
ATOM     17  C   UNL     1      -4.880   2.897 -21.358  0.00  0.00    +0.032 C 
ATOM     18  C   UNL     1      -3.680   2.468 -21.100  0.00  0.00    +0.007 C 
ATOM     19  C   UNL     1      -2.939   2.693 -22.144  0.00  0.00    +0.001 C 
ENDROOT
BRANCH   9  20
ATOM     20  O   UNL     1       3.844   1.824 -24.516  0.00  0.00    -0.506 OA
ATOM     21  H   UNL     1       4.105   1.512 -25.360  0.00  0.00    +0.292 HD
ENDBRANCH   9  20
BRANCH  16  22
ATOM     22  O   UNL     1      -5.900   3.912 -23.173  0.00  0.00    -0.391 OA
ATOM     23  H   UNL     1      -6.356   3.229 -23.690  0.00  0.00    +0.210 HD
ENDBRANCH  16  22
TORSDOF 2
ENDMDL
MODEL 2
REMARK VINA RESULT:   -11.218      1.086      2.467
REMARK INTER + INTRA:         -11.874
REMARK INTER:                 -11.874
REMARK INTRA:                   0.000
REMARK UNBOUND:                 0.000
REMARK  Name = ZINC000017419101
REMARK  3 active torsions:
REMARK  status: ('A' for Active; 'I' for Inactive)
REMARK    1  A    between atoms: C_1  and  C_2
REMARK    2  A    between atoms: C_9  and  O_10
REMARK    3  A    between atoms: C_20  and  O_21
REMARK                            x       y       z     vdW  Elec       q    Type
REMARK                         _______ _______ _______ _____ _____    ______ ____
ROOT
ATOM      1  C   UNL     1      -4.888   3.104 -21.940  0.00  0.00    +0.014 C 
ATOM      2  C   UNL     1      -3.964   3.280 -22.839  0.00  0.00    -0.003 C 
ATOM      3  C   UNL     1      -3.539   2.714 -21.747  0.00  0.00    +0.010 C 
ATOM      4  C   UNL     1      -2.288   2.380 -21.634  0.00  0.00    +0.009 C 
ATOM      5  C   UNL     1      -1.462   2.612 -22.610  0.00  0.00    +0.023 C 
ATOM      6  C   UNL     1      -0.211   2.278 -22.496  0.00  0.00    -0.040 A 
ATOM      7  C   UNL     1       0.213   1.712 -21.405  0.00  0.00    +0.008 A 
ATOM      8  C   UNL     1       1.465   1.378 -21.291  0.00  0.00    +0.047 A 
ATOM      9  C   UNL     1       2.291   1.610 -22.268  0.00  0.00    +0.131 A 
ATOM     10  C   UNL     1       1.866   2.175 -23.358  0.00  0.00    +0.063 A 
ATOM     11 BR   UNL     1       2.692   2.407 -24.335  0.00  0.00    -0.046 Br
ATOM     12  C   UNL     1       0.616   2.509 -23.473  0.00  0.00    -0.026 A 
ATOM     13  C   UNL     1       0.190   3.075 -24.564  0.00  0.00    +0.037 C 
ATOM     14  C   UNL     1      -1.061   3.409 -24.677  0.00  0.00    +0.009 C 
ATOM     15  C   UNL     1      -1.887   3.178 -23.701  0.00  0.00    +0.000 C 
ATOM     16  C   UNL     1      -5.140   3.703 -23.198  0.00  0.00    +0.121 C 
ATOM     17  C   UNL     1      -5.040   4.195 -24.397  0.00  0.00    +0.032 C 
ATOM     18  C   UNL     1      -3.803   4.077 -24.778  0.00  0.00    +0.007 C 
ATOM     19  C   UNL     1      -3.138   3.512 -23.815  0.00  0.00    +0.001 C 
ENDROOT
BRANCH   9  20
ATOM     20  O   UNL     1       3.543   1.275 -22.154  0.00  0.00    -0.506 OA
ATOM     21  H   UNL     1       4.208   1.933 -22.197  0.00  0.00    +0.292 HD
ENDBRANCH   9  20
BRANCH  16  22
ATOM     22  O   UNL     1      -6.225   3.643 -22.485  0.00  0.00    -0.391 OA
ATOM     23  H   UNL     1      -6.758   2.884 -22.768  0.00  0.00    +0.210 HD
ENDBRANCH  16  22
TORSDOF 2
ENDMDL
MODEL 3
REMARK VINA RESULT:   -11.122      2.040      6.286
REMARK INTER + INTRA:         -11.772
REMARK INTER:                 -11.772
REMARK INTRA:                   0.000
REMARK UNBOUND:                 0.000
REMARK  Name = ZINC000017419101
REMARK  3 active torsions:
REMARK  status: ('A' for Active; 'I' for Inactive)
REMARK    1  A    between atoms: C_1  and  C_2
REMARK    2  A    between atoms: C_9  and  O_10
REMARK    3  A    between atoms: C_20  and  O_21
REMARK                            x       y       z     vdW  Elec       q    Type
REMARK                         _______ _______ _______ _____ _____    ______ ____
ROOT
ATOM      1  C   UNL     1       2.081   1.273 -21.752  0.00  0.00    +0.014 C 
ATOM      2  C   UNL     1       1.381   1.854 -22.681  0.00  0.00    -0.003 C 
ATOM      3  C   UNL     1       0.700   1.558 -21.613  0.00  0.00    +0.010 C 
ATOM      4  C   UNL     1      -0.566   1.846 -21.549  0.00  0.00    +0.009 C 
ATOM      5  C   UNL     1      -1.152   2.431 -22.552  0.00  0.00    +0.023 C 
ATOM      6  C   UNL     1      -2.417   2.720 -22.487  0.00  0.00    -0.040 A 
ATOM      7  C   UNL     1      -3.097   2.423 -21.420  0.00  0.00    +0.008 A 
ATOM      8  C   UNL     1      -4.364   2.712 -21.355  0.00  0.00    +0.047 A 
ATOM      9  C   UNL     1      -4.949   3.297 -22.358  0.00  0.00    +0.131 A 
ATOM     10  C   UNL     1      -4.268   3.593 -23.425  0.00  0.00    +0.063 A 
ATOM     11 BR   UNL     1      -4.854   4.177 -24.428  0.00  0.00    -0.046 Br
ATOM     12  C   UNL     1      -3.003   3.304 -23.490  0.00  0.00    -0.026 A 
ATOM     13  C   UNL     1      -2.322   3.600 -24.557  0.00  0.00    +0.037 C 
ATOM     14  C   UNL     1      -1.056   3.312 -24.622  0.00  0.00    +0.009 C 
ATOM     15  C   UNL     1      -0.470   2.727 -23.619  0.00  0.00    +0.000 C 
ATOM     16  C   UNL     1       2.630   1.677 -22.993  0.00  0.00    +0.121 C 
ATOM     17  C   UNL     1       2.817   2.153 -24.188  0.00  0.00    +0.032 C 
ATOM     18  C   UNL     1       1.683   2.623 -24.615  0.00  0.00    +0.007 C 
ATOM     19  C   UNL     1       0.795   2.439 -23.684  0.00  0.00    +0.001 C 
ENDROOT
BRANCH   9  20
ATOM     20  O   UNL     1      -6.215   3.585 -22.294  0.00  0.00    -0.506 OA
ATOM     21  H   UNL     1      -6.661   3.908 -23.052  0.00  0.00    +0.292 HD
ENDBRANCH   9  20
BRANCH  16  22
ATOM     22  O   UNL     1       3.534   1.123 -22.241  0.00  0.00    -0.391 OA
ATOM     23  H   UNL     1       3.835   0.297 -22.652  0.00  0.00    +0.210 HD
ENDBRANCH  16  22
TORSDOF 2
ENDMDL
MODEL 4
REMARK VINA RESULT:   -10.718      1.850      5.849
REMARK INTER + INTRA:         -11.345
REMARK INTER:                 -11.345
REMARK INTRA:                   0.000
REMARK UNBOUND:                 0.000
REMARK  Name = ZINC000017419101
REMARK  3 active torsions:
REMARK  status: ('A' for Active; 'I' for Inactive)
REMARK    1  A    between atoms: C_1  and  C_2
REMARK    2  A    between atoms: C_9  and  O_10
REMARK    3  A    between atoms: C_20  and  O_21
REMARK                            x       y       z     vdW  Elec       q    Type
REMARK                         _______ _______ _______ _____ _____    ______ ____
ROOT
ATOM      1  C   UNL     1       2.813   2.273 -24.505  0.00  0.00    +0.014 C 
ATOM      2  C   UNL     1       1.954   2.098 -23.545  0.00  0.00    -0.003 C 
ATOM      3  C   UNL     1       1.453   2.656 -24.608  0.00  0.00    +0.010 C 
ATOM      4  C   UNL     1       0.195   2.983 -24.639  0.00  0.00    +0.009 C 
ATOM      5  C   UNL     1      -0.562   2.753 -23.607  0.00  0.00    +0.023 C 
ATOM      6  C   UNL     1      -1.820   3.080 -23.638  0.00  0.00    -0.040 A 
ATOM      7  C   UNL     1      -2.320   3.638 -24.701  0.00  0.00    +0.008 A 
ATOM      8  C   UNL     1      -3.578   3.965 -24.732  0.00  0.00    +0.047 A 
ATOM      9  C   UNL     1      -4.334   3.735 -23.700  0.00  0.00    +0.131 A 
ATOM     10  C   UNL     1      -3.834   3.178 -22.638  0.00  0.00    +0.063 A 
ATOM     11 BR   UNL     1      -4.591   2.949 -21.606  0.00  0.00    -0.046 Br
ATOM     12  C   UNL     1      -2.577   2.851 -22.606  0.00  0.00    -0.026 A 
ATOM     13  C   UNL     1      -2.076   2.293 -21.544  0.00  0.00    +0.037 C 
ATOM     14  C   UNL     1      -0.818   1.966 -21.513  0.00  0.00    +0.009 C 
ATOM     15  C   UNL     1      -0.061   2.196 -22.545  0.00  0.00    +0.000 C 
ATOM     16  C   UNL     1       3.153   1.684 -23.263  0.00  0.00    +0.121 C 
ATOM     17  C   UNL     1       3.137   1.197 -22.057  0.00  0.00    +0.032 C 
ATOM     18  C   UNL     1       1.928   1.312 -21.595  0.00  0.00    +0.007 C 
ATOM     19  C   UNL     1       1.196   1.868 -22.513  0.00  0.00    +0.001 C 
ENDROOT
BRANCH   9  20
ATOM     20  O   UNL     1      -5.593   4.063 -23.731  0.00  0.00    -0.506 OA
ATOM     21  H   UNL     1      -6.205   3.525 -24.193  0.00  0.00    +0.292 HD
ENDBRANCH   9  20
BRANCH  16  22
ATOM     22  O   UNL     1       4.187   1.744 -24.049  0.00  0.00    -0.391 OA
ATOM     23  H   UNL     1       4.999   1.711 -23.519  0.00  0.00    +0.210 HD
ENDBRANCH  16  22
TORSDOF 2
ENDMDL
MODEL 5
REMARK VINA RESULT:    -9.928      1.368      1.976
REMARK INTER + INTRA:         -10.509
REMARK INTER:                 -10.509
REMARK INTRA:                   0.000
REMARK UNBOUND:                 0.000
REMARK  Name = ZINC000017419101
REMARK  3 active torsions:
REMARK  status: ('A' for Active; 'I' for Inactive)
REMARK    1  A    between atoms: C_1  and  C_2
REMARK    2  A    between atoms: C_9  and  O_10
REMARK    3  A    between atoms: C_20  and  O_21
REMARK                            x       y       z     vdW  Elec       q    Type
REMARK                         _______ _______ _______ _____ _____    ______ ____
ROOT
ATOM      1  C   UNL     1      -2.352   4.195 -24.435  0.00  0.00    +0.014 C 
ATOM      2  C   UNL     1      -1.831   3.476 -23.484  0.00  0.00    -0.003 C 
ATOM      3  C   UNL     1      -0.968   3.901 -24.360  0.00  0.00    +0.010 C 
ATOM      4  C   UNL     1       0.289   3.596 -24.234  0.00  0.00    +0.009 C 
ATOM      5  C   UNL     1       0.684   2.865 -23.233  0.00  0.00    +0.023 C 
ATOM      6  C   UNL     1       1.941   2.560 -23.107  0.00  0.00    -0.040 A 
ATOM      7  C   UNL     1       2.803   2.985 -23.982  0.00  0.00    +0.008 A 
ATOM      8  C   UNL     1       4.062   2.680 -23.856  0.00  0.00    +0.047 A 
ATOM      9  C   UNL     1       4.455   1.950 -22.856  0.00  0.00    +0.131 A 
ATOM     10  C   UNL     1       3.593   1.525 -21.981  0.00  0.00    +0.063 A 
ATOM     11 BR   UNL     1       3.988   0.795 -20.981  0.00  0.00    -0.046 Br
ATOM     12  C   UNL     1       2.336   1.830 -22.107  0.00  0.00    -0.026 A 
ATOM     13  C   UNL     1       1.473   1.405 -21.232  0.00  0.00    +0.037 C 
ATOM     14  C   UNL     1       0.215   1.710 -21.358  0.00  0.00    +0.009 C 
ATOM     15  C   UNL     1      -0.179   2.441 -22.359  0.00  0.00    +0.000 C 
ATOM     16  C   UNL     1      -3.117   3.636 -23.383  0.00  0.00    +0.121 C 
ATOM     17  C   UNL     1      -3.517   3.004 -22.319  0.00  0.00    +0.032 C 
ATOM     18  C   UNL     1      -2.478   2.455 -21.764  0.00  0.00    +0.007 C 
ATOM     19  C   UNL     1      -1.436   2.746 -22.484  0.00  0.00    +0.001 C 
ENDROOT
BRANCH   9  20
ATOM     20  O   UNL     1       5.713   1.644 -22.730  0.00  0.00    -0.506 OA
ATOM     21  H   UNL     1       6.297   2.233 -22.294  0.00  0.00    +0.292 HD
ENDBRANCH   9  20
BRANCH  16  22
ATOM     22  O   UNL     1      -3.871   4.309 -24.200  0.00  0.00    -0.391 OA
ATOM     23  H   UNL     1      -3.433   5.144 -24.432  0.00  0.00    +0.210 HD
ENDBRANCH  16  22
TORSDOF 2
ENDMDL
MODEL 6
REMARK VINA RESULT:    -9.532      2.314      6.648
REMARK INTER + INTRA:         -10.089
REMARK INTER:                 -10.089
REMARK INTRA:                   0.000
REMARK UNBOUND:                 0.000
REMARK  Name = ZINC000017419101
REMARK  3 active torsions:
REMARK  status: ('A' for Active; 'I' for Inactive)
REMARK    1  A    between atoms: C_1  and  C_2
REMARK    2  A    between atoms: C_9  and  O_10
REMARK    3  A    between atoms: C_20  and  O_21
REMARK                            x       y       z     vdW  Elec       q    Type
REMARK                         _______ _______ _______ _____ _____    ______ ____
ROOT
ATOM      1  C   UNL     1       4.161   1.219 -21.316  0.00  0.00    +0.014 C 
ATOM      2  C   UNL     1       3.547   2.039 -22.117  0.00  0.00    -0.003 C 
ATOM      3  C   UNL     1       2.752   1.357 -21.346  0.00  0.00    +0.010 C 
ATOM      4  C   UNL     1       1.466   1.530 -21.423  0.00  0.00    +0.009 C 
ATOM      5  C   UNL     1       0.974   2.385 -22.270  0.00  0.00    +0.023 C 
ATOM      6  C   UNL     1      -0.312   2.558 -22.347  0.00  0.00    -0.040 A 
ATOM      7  C   UNL     1      -1.106   1.876 -21.576  0.00  0.00    +0.008 A 
ATOM      8  C   UNL     1      -2.393   2.050 -21.653  0.00  0.00    +0.047 A 
ATOM      9  C   UNL     1      -2.884   2.904 -22.500  0.00  0.00    +0.131 A 
ATOM     10  C   UNL     1      -2.089   3.585 -23.271  0.00  0.00    +0.063 A 
ATOM     11 BR   UNL     1      -2.581   4.440 -24.119  0.00  0.00    -0.046 Br
ATOM     12  C   UNL     1      -0.803   3.412 -23.195  0.00  0.00    -0.026 A 
ATOM     13  C   UNL     1      -0.008   4.094 -23.966  0.00  0.00    +0.037 C 
ATOM     14  C   UNL     1       1.278   3.920 -23.889  0.00  0.00    +0.009 C 
ATOM     15  C   UNL     1       1.769   3.066 -23.041  0.00  0.00    +0.000 C 
ATOM     16  C   UNL     1       4.841   2.053 -22.236  0.00  0.00    +0.121 C 
ATOM     17  C   UNL     1       5.150   2.917 -23.158  0.00  0.00    +0.032 C 
ATOM     18  C   UNL     1       4.046   3.436 -23.607  0.00  0.00    +0.007 C 
ATOM     19  C   UNL     1       3.055   2.893 -22.965  0.00  0.00    +0.001 C 
ENDROOT
BRANCH   9  20
ATOM     20  O   UNL     1      -4.170   3.077 -22.577  0.00  0.00    -0.506 OA
ATOM     21  H   UNL     1      -4.589   3.719 -22.039  0.00  0.00    +0.292 HD
ENDBRANCH   9  20
BRANCH  16  22
ATOM     22  O   UNL     1       5.680   1.332 -21.554  0.00  0.00    -0.391 OA
ATOM     23  H   UNL     1       5.298   0.454 -21.395  0.00  0.00    +0.210 HD
ENDBRANCH  16  22
TORSDOF 2
ENDMDL
MODEL 7
REMARK VINA RESULT:    -8.503      2.787      6.782
REMARK INTER + INTRA:          -9.001
REMARK INTER:                  -9.001
REMARK INTRA:                   0.000
REMARK UNBOUND:                 0.000
REMARK  Name = ZINC000017419101
REMARK  3 active torsions:
REMARK  status: ('A' for Active; 'I' for Inactive)
REMARK    1  A    between atoms: C_1  and  C_2
REMARK    2  A    between atoms: C_9  and  O_10
REMARK    3  A    between atoms: C_20  and  O_21
REMARK                            x       y       z     vdW  Elec       q    Type
REMARK                         _______ _______ _______ _____ _____    ______ ____
ROOT
ATOM      1  C   UNL     1       5.557   4.573 -23.203  0.00  0.00    +0.014 C 
ATOM      2  C   UNL     1       4.736   3.642 -22.813  0.00  0.00    -0.003 C 
ATOM      3  C   UNL     1       4.148   4.709 -23.270  0.00  0.00    +0.010 C 
ATOM      4  C   UNL     1       2.850   4.770 -23.305  0.00  0.00    +0.009 C 
ATOM      5  C   UNL     1       2.140   3.767 -22.883  0.00  0.00    +0.023 C 
ATOM      6  C   UNL     1       0.842   3.829 -22.918  0.00  0.00    -0.040 A 
ATOM      7  C   UNL     1       0.255   4.895 -23.375  0.00  0.00    +0.008 A 
ATOM      8  C   UNL     1      -1.044   4.957 -23.410  0.00  0.00    +0.047 A 
ATOM      9  C   UNL     1      -1.754   3.953 -22.988  0.00  0.00    +0.131 A 
ATOM     10  C   UNL     1      -1.166   2.888 -22.531  0.00  0.00    +0.063 A 
ATOM     11 BR   UNL     1      -1.877   1.884 -22.109  0.00  0.00    -0.046 Br
ATOM     12  C   UNL     1       0.131   2.825 -22.496  0.00  0.00    -0.026 A 
ATOM     13  C   UNL     1       0.719   1.759 -22.039  0.00  0.00    +0.037 C 
ATOM     14  C   UNL     1       2.017   1.698 -22.004  0.00  0.00    +0.009 C 
ATOM     15  C   UNL     1       2.728   2.701 -22.426  0.00  0.00    +0.000 C 
ATOM     16  C   UNL     1       5.991   3.333 -22.673  0.00  0.00    +0.121 C 
ATOM     17  C   UNL     1       6.056   2.138 -22.165  0.00  0.00    +0.032 C 
ATOM     18  C   UNL     1       4.841   1.710 -21.991  0.00  0.00    +0.007 C 
ATOM     19  C   UNL     1       4.025   2.639 -22.391  0.00  0.00    +0.001 C 
ENDROOT
BRANCH   9  20
ATOM     20  O   UNL     1      -3.053   4.015 -23.023  0.00  0.00    -0.506 OA
ATOM     21  H   UNL     1      -3.485   4.839 -22.911  0.00  0.00    +0.292 HD
ENDBRANCH   9  20
BRANCH  16  22
ATOM     22  O   UNL     1       7.003   4.086 -22.987  0.00  0.00    -0.391 OA
ATOM     23  H   UNL     1       6.684   4.959 -23.266  0.00  0.00    +0.210 HD
ENDBRANCH  16  22
TORSDOF 2
ENDMDL
