MODEL 1
REMARK VINA RESULT:   -11.634      0.000      0.000
REMARK INTER + INTRA:         -11.972
REMARK INTER:                 -12.778
REMARK INTRA:                   0.806
REMARK UNBOUND:                 1.022
REMARK  Name = ZINC000000265529
REMARK  5 active torsions:
REMARK  status: ('A' for Active; 'I' for Inactive)
REMARK    1  A    between atoms: C_1  and  C_2
REMARK    2  A    between atoms: C_2  and  O_4
REMARK    3  A    between atoms: O_4  and  C_5
REMARK    4  A    between atoms: C_18  and  C_19
REMARK    5  A    between atoms: C_23  and  C_24
REMARK                            x       y       z     vdW  Elec       q    Type
REMARK                         _______ _______ _______ _____ _____    ______ ____
ROOT
ATOM      1  C   UNL     1       1.953   3.165 -23.703  0.00  0.00    +0.183 C 
ATOM      2  C   UNL     1       1.853   3.799 -24.834  0.00  0.00    +0.045 C 
ATOM      3  C   UNL     1       0.594   4.043 -25.047  0.00  0.00    +0.008 C 
ATOM      4  C   UNL     1      -0.084   3.562 -24.048  0.00  0.00    +0.002 C 
ATOM      5  C   UNL     1      -1.358   3.547 -23.787  0.00  0.00    -0.003 C 
ATOM      6  C   UNL     1      -2.198   4.089 -24.617  0.00  0.00    +0.008 C 
ATOM      7  C   UNL     1      -3.471   4.075 -24.357  0.00  0.00    +0.032 C 
ATOM      8  C   UNL     1      -3.904   3.518 -23.266  0.00  0.00    -0.060 C 
ATOM      9  C   UNL     1      -5.178   3.503 -23.004  0.00  0.00    +0.046 C 
ATOM     10  C   UNL     1      -5.612   2.946 -21.914  0.00  0.00    +0.156 C 
ATOM     11  C   UNL     1      -4.772   2.403 -21.083  0.00  0.00    +0.080 C 
ATOM     12  C   UNL     1      -3.498   2.418 -21.344  0.00  0.00    +0.019 C 
ATOM     13  O   UNL     1      -6.885   2.931 -21.653  0.00  0.00    -0.293 OA
ATOM     14  C   UNL     1      -3.064   2.975 -22.435  0.00  0.00    -0.007 C 
ATOM     15  C   UNL     1      -2.224   2.432 -21.604  0.00  0.00    +0.016 C 
ATOM     16  C   UNL     1      -1.791   2.990 -22.695  0.00  0.00    +0.002 C 
ATOM     17  C   UNL     1      -0.951   2.447 -21.864  0.00  0.00    +0.005 C 
ATOM     18  C   UNL     1       0.322   2.462 -22.125  0.00  0.00    +0.011 C 
ATOM     19  C   UNL     1       0.756   3.019 -23.217  0.00  0.00    +0.008 C 
ATOM     20  C   UNL     1       1.694   2.514 -22.472  0.00  0.00    +0.015 C 
ENDROOT
BRANCH   1  21
ATOM     21  O   UNL     1       3.056   2.751 -23.153  0.00  0.00    -0.461 OA
BRANCH  21  23
ATOM     22  C   UNL     1       5.229   3.029 -23.674  0.00  0.00    +0.136 C 
ATOM     23  C   UNL     1       4.119   3.499 -23.187  0.00  0.00    +0.304 C 
ATOM     24  O   UNL     1       4.072   4.717 -22.734  0.00  0.00    -0.251 OA
ENDBRANCH  21  23
ENDBRANCH   1  21
TORSDOF 2
ENDMDL
MODEL 2
REMARK VINA RESULT:   -10.945      1.597      6.643
REMARK INTER + INTRA:         -11.203
REMARK INTER:                 -12.646
REMARK INTRA:                   1.442
REMARK UNBOUND:                 1.022
REMARK  Name = ZINC000000265529
REMARK  5 active torsions:
REMARK  status: ('A' for Active; 'I' for Inactive)
REMARK    1  A    between atoms: C_1  and  C_2
REMARK    2  A    between atoms: C_2  and  O_4
REMARK    3  A    between atoms: O_4  and  C_5
REMARK    4  A    between atoms: C_18  and  C_19
REMARK    5  A    between atoms: C_23  and  C_24
REMARK                            x       y       z     vdW  Elec       q    Type
REMARK                         _______ _______ _______ _____ _____    ______ ____
ROOT
ATOM      1  C   UNL     1      -3.108   3.286 -22.703  0.00  0.00    +0.183 C 
ATOM      2  C   UNL     1      -3.093   3.761 -23.914  0.00  0.00    +0.045 C 
ATOM      3  C   UNL     1      -1.898   3.595 -24.396  0.00  0.00    +0.008 C 
ATOM      4  C   UNL     1      -1.173   3.019 -23.484  0.00  0.00    +0.002 C 
ATOM      5  C   UNL     1       0.072   2.643 -23.471  0.00  0.00    -0.003 C 
ATOM      6  C   UNL     1       0.820   2.834 -24.517  0.00  0.00    +0.008 C 
ATOM      7  C   UNL     1       2.064   2.458 -24.505  0.00  0.00    +0.032 C 
ATOM      8  C   UNL     1       2.560   1.891 -23.445  0.00  0.00    -0.060 C 
ATOM      9  C   UNL     1       3.805   1.515 -23.432  0.00  0.00    +0.046 C 
ATOM     10  C   UNL     1       4.302   0.948 -22.374  0.00  0.00    +0.156 C 
ATOM     11  C   UNL     1       3.555   0.757 -21.328  0.00  0.00    +0.080 C 
ATOM     12  C   UNL     1       2.310   1.133 -21.341  0.00  0.00    +0.019 C 
ATOM     13  O   UNL     1       5.546   0.573 -22.361  0.00  0.00    -0.293 OA
ATOM     14  C   UNL     1       1.813   1.700 -22.399  0.00  0.00    -0.007 C 
ATOM     15  C   UNL     1       1.065   1.509 -21.353  0.00  0.00    +0.016 C 
ATOM     16  C   UNL     1       0.569   2.076 -22.412  0.00  0.00    +0.002 C 
ATOM     17  C   UNL     1      -0.179   1.885 -21.366  0.00  0.00    +0.005 C 
ATOM     18  C   UNL     1      -1.423   2.260 -21.379  0.00  0.00    +0.011 C 
ATOM     19  C   UNL     1      -1.920   2.828 -22.438  0.00  0.00    +0.008 C 
ATOM     20  C   UNL     1      -2.769   2.694 -21.462  0.00  0.00    +0.015 C 
ENDROOT
BRANCH   1  21
ATOM     21  O   UNL     1      -4.129   3.272 -21.899  0.00  0.00    -0.461 OA
BRANCH  21  23
ATOM     22  C   UNL     1      -6.314   2.748 -21.753  0.00  0.00    +0.136 C 
ATOM     23  C   UNL     1      -5.335   3.330 -22.381  0.00  0.00    +0.304 C 
ATOM     24  O   UNL     1      -5.563   3.969 -23.490  0.00  0.00    -0.251 OA
ENDBRANCH  21  23
ENDBRANCH   1  21
TORSDOF 2
ENDMDL
MODEL 3
REMARK VINA RESULT:   -10.868      1.588      6.966
REMARK INTER + INTRA:         -11.116
REMARK INTER:                 -11.905
REMARK INTRA:                   0.789
REMARK UNBOUND:                 1.022
REMARK  Name = ZINC000000265529
REMARK  5 active torsions:
REMARK  status: ('A' for Active; 'I' for Inactive)
REMARK    1  A    between atoms: C_1  and  C_2
REMARK    2  A    between atoms: C_2  and  O_4
REMARK    3  A    between atoms: O_4  and  C_5
REMARK    4  A    between atoms: C_18  and  C_19
REMARK    5  A    between atoms: C_23  and  C_24
REMARK                            x       y       z     vdW  Elec       q    Type
REMARK                         _______ _______ _______ _____ _____    ______ ____
ROOT
ATOM      1  C   UNL     1      -2.588   3.572 -23.370  0.00  0.00    +0.183 C 
ATOM      2  C   UNL     1      -2.946   2.624 -22.556  0.00  0.00    +0.045 C 
ATOM      3  C   UNL     1      -1.869   2.089 -22.063  0.00  0.00    +0.008 C 
ATOM      4  C   UNL     1      -0.845   2.706 -22.572  0.00  0.00    +0.002 C 
ATOM      5  C   UNL     1       0.436   2.552 -22.404  0.00  0.00    -0.003 C 
ATOM      6  C   UNL     1       0.879   1.635 -21.596  0.00  0.00    +0.008 C 
ATOM      7  C   UNL     1       2.159   1.481 -21.428  0.00  0.00    +0.032 C 
ATOM      8  C   UNL     1       2.995   2.243 -22.069  0.00  0.00    -0.060 C 
ATOM      9  C   UNL     1       4.275   2.088 -21.901  0.00  0.00    +0.046 C 
ATOM     10  C   UNL     1       5.111   2.850 -22.541  0.00  0.00    +0.156 C 
ATOM     11  C   UNL     1       4.668   3.766 -23.349  0.00  0.00    +0.080 C 
ATOM     12  C   UNL     1       3.387   3.921 -23.517  0.00  0.00    +0.019 C 
ATOM     13  O   UNL     1       6.391   2.695 -22.373  0.00  0.00    -0.293 OA
ATOM     14  C   UNL     1       2.551   3.159 -22.877  0.00  0.00    -0.007 C 
ATOM     15  C   UNL     1       2.107   4.076 -23.685  0.00  0.00    +0.016 C 
ATOM     16  C   UNL     1       1.272   3.314 -23.045  0.00  0.00    +0.002 C 
ATOM     17  C   UNL     1       0.828   4.230 -23.853  0.00  0.00    +0.005 C 
ATOM     18  C   UNL     1      -0.452   4.385 -24.021  0.00  0.00    +0.011 C 
ATOM     19  C   UNL     1      -1.288   3.623 -23.380  0.00  0.00    +0.008 C 
ATOM     20  C   UNL     1      -1.857   4.498 -24.155  0.00  0.00    +0.015 C 
ENDROOT
BRANCH   1  21
ATOM     21  O   UNL     1      -3.386   4.336 -24.055  0.00  0.00    -0.461 OA
BRANCH  21  23
ATOM     22  C   UNL     1      -4.728   3.382 -25.592  0.00  0.00    +0.136 C 
ATOM     23  C   UNL     1      -4.558   3.897 -24.410  0.00  0.00    +0.304 C 
ATOM     24  O   UNL     1      -5.559   3.973 -23.584  0.00  0.00    -0.251 OA
ENDBRANCH  21  23
ENDBRANCH   1  21
TORSDOF 2
ENDMDL
MODEL 4
REMARK VINA RESULT:   -10.839      1.527      6.719
REMARK INTER + INTRA:         -11.084
REMARK INTER:                 -11.873
REMARK INTRA:                   0.788
REMARK UNBOUND:                 1.022
REMARK  Name = ZINC000000265529
REMARK  5 active torsions:
REMARK  status: ('A' for Active; 'I' for Inactive)
REMARK    1  A    between atoms: C_1  and  C_2
REMARK    2  A    between atoms: C_2  and  O_4
REMARK    3  A    between atoms: O_4  and  C_5
REMARK    4  A    between atoms: C_18  and  C_19
REMARK    5  A    between atoms: C_23  and  C_24
REMARK                            x       y       z     vdW  Elec       q    Type
REMARK                         _______ _______ _______ _____ _____    ______ ____
ROOT
ATOM      1  C   UNL     1      -2.616   3.122 -22.647  0.00  0.00    +0.183 C 
ATOM      2  C   UNL     1      -2.658   4.105 -23.498  0.00  0.00    +0.045 C 
ATOM      3  C   UNL     1      -1.437   4.388 -23.845  0.00  0.00    +0.008 C 
ATOM      4  C   UNL     1      -0.641   3.581 -23.209  0.00  0.00    +0.002 C 
ATOM      5  C   UNL     1       0.653   3.457 -23.208  0.00  0.00    -0.003 C 
ATOM      6  C   UNL     1       1.381   4.238 -23.948  0.00  0.00    +0.008 C 
ATOM      7  C   UNL     1       2.675   4.115 -23.948  0.00  0.00    +0.032 C 
ATOM      8  C   UNL     1       3.241   3.209 -23.206  0.00  0.00    -0.060 C 
ATOM      9  C   UNL     1       4.535   3.085 -23.205  0.00  0.00    +0.046 C 
ATOM     10  C   UNL     1       5.102   2.180 -22.465  0.00  0.00    +0.156 C 
ATOM     11  C   UNL     1       4.373   1.398 -21.724  0.00  0.00    +0.080 C 
ATOM     12  C   UNL     1       3.079   1.523 -21.725  0.00  0.00    +0.019 C 
ATOM     13  O   UNL     1       6.395   2.057 -22.464  0.00  0.00    -0.293 OA
ATOM     14  C   UNL     1       2.513   2.427 -22.466  0.00  0.00    -0.007 C 
ATOM     15  C   UNL     1       1.785   1.646 -21.725  0.00  0.00    +0.016 C 
ATOM     16  C   UNL     1       1.219   2.551 -22.466  0.00  0.00    +0.002 C 
ATOM     17  C   UNL     1       0.491   1.769 -21.726  0.00  0.00    +0.005 C 
ATOM     18  C   UNL     1      -0.803   1.893 -21.727  0.00  0.00    +0.011 C 
ATOM     19  C   UNL     1      -1.369   2.799 -22.468  0.00  0.00    +0.008 C 
ATOM     20  C   UNL     1      -2.206   2.083 -21.776  0.00  0.00    +0.015 C 
ENDROOT
BRANCH   1  21
ATOM     21  O   UNL     1      -3.640   2.562 -22.075  0.00  0.00    -0.461 OA
BRANCH  21  23
ATOM     22  C   UNL     1      -5.827   3.098 -22.122  0.00  0.00    +0.136 C 
ATOM     23  C   UNL     1      -4.630   3.293 -21.655  0.00  0.00    +0.304 C 
ATOM     24  O   UNL     1      -4.422   4.220 -20.767  0.00  0.00    -0.251 OA
ENDBRANCH  21  23
ENDBRANCH   1  21
TORSDOF 2
ENDMDL
MODEL 5
REMARK VINA RESULT:   -10.830      1.096      2.685
REMARK INTER + INTRA:         -11.074
REMARK INTER:                 -11.881
REMARK INTRA:                   0.807
REMARK UNBOUND:                 1.022
REMARK  Name = ZINC000000265529
REMARK  5 active torsions:
REMARK  status: ('A' for Active; 'I' for Inactive)
REMARK    1  A    between atoms: C_1  and  C_2
REMARK    2  A    between atoms: C_2  and  O_4
REMARK    3  A    between atoms: O_4  and  C_5
REMARK    4  A    between atoms: C_18  and  C_19
REMARK    5  A    between atoms: C_23  and  C_24
REMARK                            x       y       z     vdW  Elec       q    Type
REMARK                         _______ _______ _______ _____ _____    ______ ____
ROOT
ATOM      1  C   UNL     1       3.391   2.834 -22.908  0.00  0.00    +0.183 C 
ATOM      2  C   UNL     1       3.407   2.024 -21.890  0.00  0.00    +0.045 C 
ATOM      3  C   UNL     1       2.177   1.805 -21.532  0.00  0.00    +0.008 C 
ATOM      4  C   UNL     1       1.400   2.479 -22.327  0.00  0.00    +0.002 C 
ATOM      5  C   UNL     1       0.107   2.596 -22.388  0.00  0.00    -0.003 C 
ATOM      6  C   UNL     1      -0.644   1.960 -21.537  0.00  0.00    +0.008 C 
ATOM      7  C   UNL     1      -1.937   2.077 -21.597  0.00  0.00    +0.032 C 
ATOM      8  C   UNL     1      -2.479   2.830 -22.507  0.00  0.00    -0.060 C 
ATOM      9  C   UNL     1      -3.773   2.948 -22.568  0.00  0.00    +0.046 C 
ATOM     10  C   UNL     1      -4.316   3.700 -23.477  0.00  0.00    +0.156 C 
ATOM     11  C   UNL     1      -3.566   4.336 -24.327  0.00  0.00    +0.080 C 
ATOM     12  C   UNL     1      -2.272   4.219 -24.267  0.00  0.00    +0.019 C 
ATOM     13  O   UNL     1      -5.609   3.817 -23.537  0.00  0.00    -0.293 OA
ATOM     14  C   UNL     1      -1.729   3.466 -23.357  0.00  0.00    -0.007 C 
ATOM     15  C   UNL     1      -0.979   4.102 -24.208  0.00  0.00    +0.016 C 
ATOM     16  C   UNL     1      -0.436   3.349 -23.298  0.00  0.00    +0.002 C 
ATOM     17  C   UNL     1       0.314   3.985 -24.148  0.00  0.00    +0.005 C 
ATOM     18  C   UNL     1       1.607   3.868 -24.088  0.00  0.00    +0.011 C 
ATOM     19  C   UNL     1       2.151   3.115 -23.177  0.00  0.00    +0.008 C 
ATOM     20  C   UNL     1       3.008   3.695 -23.965  0.00  0.00    +0.015 C 
ENDROOT
BRANCH   1  21
ATOM     21  O   UNL     1       4.432   3.284 -23.543  0.00  0.00    -0.461 OA
BRANCH  21  23
ATOM     22  C   UNL     1       6.587   2.999 -22.956  0.00  0.00    +0.136 C 
ATOM     23  C   UNL     1       5.479   3.675 -22.880  0.00  0.00    +0.304 C 
ATOM     24  O   UNL     1       5.418   4.742 -22.140  0.00  0.00    -0.251 OA
ENDBRANCH  21  23
ENDBRANCH   1  21
TORSDOF 2
ENDMDL
MODEL 6
REMARK VINA RESULT:    -9.130      2.366      7.780
REMARK INTER + INTRA:          -9.175
REMARK INTER:                  -9.796
REMARK INTRA:                   0.621
REMARK UNBOUND:                 1.022
REMARK  Name = ZINC000000265529
REMARK  5 active torsions:
REMARK  status: ('A' for Active; 'I' for Inactive)
REMARK    1  A    between atoms: C_1  and  C_2
REMARK    2  A    between atoms: C_2  and  O_4
REMARK    3  A    between atoms: O_4  and  C_5
REMARK    4  A    between atoms: C_18  and  C_19
REMARK    5  A    between atoms: C_23  and  C_24
REMARK                            x       y       z     vdW  Elec       q    Type
REMARK                         _______ _______ _______ _____ _____    ______ ____
ROOT
ATOM      1  C   UNL     1      -0.151   3.641 -23.425  0.00  0.00    +0.183 C 
ATOM      2  C   UNL     1      -0.191   2.344 -23.341  0.00  0.00    +0.045 C 
ATOM      3  C   UNL     1       1.021   1.916 -23.147  0.00  0.00    +0.008 C 
ATOM      4  C   UNL     1       1.810   2.949 -23.111  0.00  0.00    +0.002 C 
ATOM      5  C   UNL     1       3.096   3.056 -22.944  0.00  0.00    -0.003 C 
ATOM      6  C   UNL     1       3.820   1.991 -22.773  0.00  0.00    +0.008 C 
ATOM      7  C   UNL     1       5.104   2.098 -22.606  0.00  0.00    +0.032 C 
ATOM      8  C   UNL     1       5.664   3.271 -22.611  0.00  0.00    -0.060 C 
ATOM      9  C   UNL     1       6.950   3.378 -22.444  0.00  0.00    +0.046 C 
ATOM     10  C   UNL     1       7.510   4.550 -22.448  0.00  0.00    +0.156 C 
ATOM     11  C   UNL     1       6.786   5.616 -22.619  0.00  0.00    +0.080 C 
ATOM     12  C   UNL     1       5.501   5.508 -22.786  0.00  0.00    +0.019 C 
ATOM     13  O   UNL     1       8.795   4.657 -22.281  0.00  0.00    -0.293 OA
ATOM     14  C   UNL     1       4.940   4.336 -22.782  0.00  0.00    -0.007 C 
ATOM     15  C   UNL     1       4.216   5.402 -22.953  0.00  0.00    +0.016 C 
ATOM     16  C   UNL     1       3.656   4.229 -22.949  0.00  0.00    +0.002 C 
ATOM     17  C   UNL     1       2.931   5.295 -23.120  0.00  0.00    +0.005 C 
ATOM     18  C   UNL     1       1.647   5.188 -23.287  0.00  0.00    +0.011 C 
ATOM     19  C   UNL     1       1.086   4.015 -23.282  0.00  0.00    +0.008 C 
ATOM     20  C   UNL     1       0.254   4.997 -23.463  0.00  0.00    +0.015 C 
ENDROOT
BRANCH   1  21
ATOM     21  O   UNL     1      -1.169   4.427 -23.616  0.00  0.00    -0.461 OA
BRANCH  21  23
ATOM     22  C   UNL     1      -3.109   3.756 -24.543  0.00  0.00    +0.136 C 
ATOM     23  C   UNL     1      -2.378   3.966 -23.489  0.00  0.00    +0.304 C 
ATOM     24  O   UNL     1      -2.856   3.715 -22.306  0.00  0.00    -0.251 OA
ENDBRANCH  21  23
ENDBRANCH   1  21
TORSDOF 2
ENDMDL
