MODEL 1
REMARK VINA RESULT:    -9.298      0.000      0.000
REMARK INTER + INTRA:         -17.351
REMARK INTER:                 -15.327
REMARK INTRA:                  -2.024
REMARK UNBOUND:                -0.443
REMARK  Name = ZINC000096316339
REMARK  16 active torsions:
REMARK  status: ('A' for Active; 'I' for Inactive)
REMARK    1  A    between atoms: C_1  and  C_2
REMARK    2  A    between atoms: C_2  and  C_3
REMARK    3  A    between atoms: C_3  and  C_4
REMARK    4  A    between atoms: C_4  and  C_5
REMARK    5  A    between atoms: C_5  and  C_6
REMARK    6  A    between atoms: C_6  and  C_7
REMARK    7  A    between atoms: C_7  and  C_8
REMARK    8  A    between atoms: C_8  and  C_9
REMARK    9  A    between atoms: C_9  and  C_10
REMARK   10  A    between atoms: C_10  and  C_11
REMARK   11  A    between atoms: C_11  and  C_12
REMARK   12  A    between atoms: C_13  and  O_14
REMARK   13  A    between atoms: C_15  and  O_16
REMARK   14  A    between atoms: C_23  and  N_24
REMARK   15  A    between atoms: N_24  and  S_25
REMARK   16  A    between atoms: S_25  and  N_28
REMARK                            x       y       z     vdW  Elec       q    Type
REMARK                         _______ _______ _______ _____ _____    ______ ____
ROOT
ATOM      1  C   UNL     1       2.060   3.866 -24.144  0.00  0.00    +0.025 A 
ATOM      2  C   UNL     1       1.884   2.700 -24.690  0.00  0.00    +0.164 A 
ATOM      3  C   UNL     1       2.859   1.841 -24.724  0.00  0.00    +0.161 A 
ATOM      4  C   UNL     1       4.013   2.150 -24.211  0.00  0.00    +0.079 A 
ATOM      5  C   UNL     1       4.192   3.314 -23.664  0.00  0.00    +0.094 A 
ATOM      6  N   UNL     1       5.346   3.621 -23.152  0.00  0.00    -0.243 NA
ATOM      7  C   UNL     1       5.526   4.787 -22.605  0.00  0.00    +0.090 A 
ATOM      8  C   UNL     1       6.680   5.093 -22.093  0.00  0.00    +0.032 A 
ATOM      9  C   UNL     1       6.861   6.258 -21.546  0.00  0.00    +0.027 A 
ATOM     10  C   UNL     1       5.885   7.117 -21.512  0.00  0.00    +0.051 A 
ATOM     11  C   UNL     1       4.730   6.812 -22.024  0.00  0.00    +0.054 A 
ATOM     12  C   UNL     1       4.551   5.644 -22.571  0.00  0.00    +0.092 A 
ATOM     13  N   UNL     1       3.395   5.340 -23.083  0.00  0.00    -0.243 NA
ATOM     14  C   UNL     1       3.217   4.174 -23.630  0.00  0.00    +0.097 A 
ENDROOT
BRANCH   2  15
ATOM     15  O   UNL     1       0.729   2.393 -25.203  0.00  0.00    -0.503 OA
ATOM     16  H   UNL     1       0.034   3.021 -25.202  0.00  0.00    +0.292 HD
ENDBRANCH   2  15
BRANCH   3  17
ATOM     17  O   UNL     1       2.681   0.676 -25.270  0.00  0.00    -0.503 OA
ATOM     18  H   UNL     1       2.549  -0.078 -24.731  0.00  0.00    +0.292 HD
ENDBRANCH   3  17
BRANCH  10  19
ATOM     19  N   UNL     1       6.065   8.283 -20.965  0.00  0.00    -0.206 N 
ATOM     20  H   UNL     1       6.792   8.416 -20.315  0.00  0.00    +0.175 HD
BRANCH  19  21
ATOM     21  S   UNL     1       5.284   9.274 -21.276  0.00  0.00    +0.112 S 
ATOM     22  O   UNL     1       6.086   9.602 -22.245  0.00  0.00    -0.138 OA
ATOM     23  O   UNL     1       4.482   8.947 -20.308  0.00  0.00    -0.138 OA
BRANCH  21  24
ATOM     24  N   UNL     1       4.502  10.267 -21.588  0.00  0.00    -0.164 NA
ATOM     25  C   UNL     1       4.074  10.393 -22.808  0.00  0.00    +0.111 C 
ATOM     26  C   UNL     1       3.292  11.386 -23.122  0.00  0.00    +0.017 C 
ATOM     27  C   UNL     1       2.943  12.247 -22.214  0.00  0.00    +0.003 C 
ATOM     28  C   UNL     1       3.371  12.120 -20.995  0.00  0.00    +0.017 C 
ATOM     29  C   UNL     1       4.153  11.127 -20.681  0.00  0.00    +0.111 C 
ENDBRANCH  21  24
ENDBRANCH  19  21
ENDBRANCH  10  19
BRANCH   1  30
ATOM     30  C   UNL     1       1.086   4.726 -24.109  0.00  0.00    +0.041 C 
BRANCH  30  31
ATOM     31  C   UNL     1       0.303   4.779 -23.073  0.00  0.00    +0.005 C 
BRANCH  31  32
ATOM     32  C   UNL     1      -0.973   4.977 -23.232  0.00  0.00    +0.000 C 
BRANCH  32  33
ATOM     33  C   UNL     1      -1.814   4.016 -22.990  0.00  0.00    +0.000 C 
BRANCH  33  34
ATOM     34  C   UNL     1      -1.936   3.549 -21.782  0.00  0.00    +0.000 C 
BRANCH  34  35
ATOM     35  C   UNL     1      -2.002   2.266 -21.585  0.00  0.00    +0.000 C 
BRANCH  35  36
ATOM     36  C   UNL     1      -0.968   1.517 -21.831  0.00  0.00    -0.000 C 
BRANCH  36  37
ATOM     37  C   UNL     1       0.074   1.574 -21.056  0.00  0.00    -0.000 C 
BRANCH  37  38
ATOM     38  C   UNL     1       1.264   1.416 -21.555  0.00  0.00    -0.000 C 
BRANCH  38  40
ATOM     39  C   UNL     1       3.350   0.806 -20.967  0.00  0.00    +0.004 C 
ATOM     40  C   UNL     1       2.311   1.569 -20.800  0.00  0.00    -0.003 C 
ENDBRANCH  38  40
ENDBRANCH  37  38
ENDBRANCH  36  37
ENDBRANCH  35  36
ENDBRANCH  34  35
ENDBRANCH  33  34
ENDBRANCH  32  33
ENDBRANCH  31  32
ENDBRANCH  30  31
ENDBRANCH   1  30
TORSDOF 15
ENDMDL
MODEL 2
REMARK VINA RESULT:    -9.276      1.374      2.417
REMARK INTER + INTRA:         -17.312
REMARK INTER:                 -16.078
REMARK INTRA:                  -1.234
REMARK UNBOUND:                -0.443
REMARK  Name = ZINC000096316339
REMARK  16 active torsions:
REMARK  status: ('A' for Active; 'I' for Inactive)
REMARK    1  A    between atoms: C_1  and  C_2
REMARK    2  A    between atoms: C_2  and  C_3
REMARK    3  A    between atoms: C_3  and  C_4
REMARK    4  A    between atoms: C_4  and  C_5
REMARK    5  A    between atoms: C_5  and  C_6
REMARK    6  A    between atoms: C_6  and  C_7
REMARK    7  A    between atoms: C_7  and  C_8
REMARK    8  A    between atoms: C_8  and  C_9
REMARK    9  A    between atoms: C_9  and  C_10
REMARK   10  A    between atoms: C_10  and  C_11
REMARK   11  A    between atoms: C_11  and  C_12
REMARK   12  A    between atoms: C_13  and  O_14
REMARK   13  A    between atoms: C_15  and  O_16
REMARK   14  A    between atoms: C_23  and  N_24
REMARK   15  A    between atoms: N_24  and  S_25
REMARK   16  A    between atoms: S_25  and  N_28
REMARK                            x       y       z     vdW  Elec       q    Type
REMARK                         _______ _______ _______ _____ _____    ______ ____
ROOT
ATOM      1  C   UNL     1       2.132   3.764 -24.061  0.00  0.00    +0.025 A 
ATOM      2  C   UNL     1       1.952   2.591 -24.589  0.00  0.00    +0.164 A 
ATOM      3  C   UNL     1       2.929   1.735 -24.628  0.00  0.00    +0.161 A 
ATOM      4  C   UNL     1       4.090   2.054 -24.136  0.00  0.00    +0.079 A 
ATOM      5  C   UNL     1       4.273   3.226 -23.607  0.00  0.00    +0.094 A 
ATOM      6  N   UNL     1       5.433   3.543 -23.116  0.00  0.00    -0.243 NA
ATOM      7  C   UNL     1       5.617   4.716 -22.586  0.00  0.00    +0.090 A 
ATOM      8  C   UNL     1       6.777   5.032 -22.095  0.00  0.00    +0.032 A 
ATOM      9  C   UNL     1       6.962   6.205 -21.566  0.00  0.00    +0.027 A 
ATOM     10  C   UNL     1       5.984   7.061 -21.527  0.00  0.00    +0.051 A 
ATOM     11  C   UNL     1       4.823   6.745 -22.018  0.00  0.00    +0.054 A 
ATOM     12  C   UNL     1       4.639   5.570 -22.548  0.00  0.00    +0.092 A 
ATOM     13  N   UNL     1       3.477   5.256 -23.039  0.00  0.00    -0.243 NA
ATOM     14  C   UNL     1       3.295   4.082 -23.568  0.00  0.00    +0.097 A 
ENDROOT
BRANCH   2  15
ATOM     15  O   UNL     1       0.790   2.273 -25.081  0.00  0.00    -0.503 OA
ATOM     16  H   UNL     1       0.009   2.477 -24.607  0.00  0.00    +0.292 HD
ENDBRANCH   2  15
BRANCH   3  17
ATOM     17  O   UNL     1       2.747   0.563 -25.156  0.00  0.00    -0.503 OA
ATOM     18  H   UNL     1       1.942   0.366 -25.594  0.00  0.00    +0.292 HD
ENDBRANCH   3  17
BRANCH  10  19
ATOM     19  N   UNL     1       6.168   8.234 -20.998  0.00  0.00    -0.206 N 
ATOM     20  H   UNL     1       6.909   8.379 -20.366  0.00  0.00    +0.175 HD
BRANCH  19  21
ATOM     21  S   UNL     1       5.372   9.216 -21.302  0.00  0.00    +0.112 S 
ATOM     22  O   UNL     1       4.578   8.873 -20.331  0.00  0.00    -0.138 OA
ATOM     23  O   UNL     1       6.166   9.559 -22.271  0.00  0.00    -0.138 OA
BRANCH  21  24
ATOM     24  N   UNL     1       4.576  10.199 -21.605  0.00  0.00    -0.164 NA
ATOM     25  C   UNL     1       4.108  10.302 -22.813  0.00  0.00    +0.111 C 
ATOM     26  C   UNL     1       3.310  11.286 -23.118  0.00  0.00    +0.017 C 
ATOM     27  C   UNL     1       2.985  12.159 -22.213  0.00  0.00    +0.003 C 
ATOM     28  C   UNL     1       3.453  12.056 -21.007  0.00  0.00    +0.017 C 
ATOM     29  C   UNL     1       4.251  11.072 -20.702  0.00  0.00    +0.111 C 
ENDBRANCH  21  24
ENDBRANCH  19  21
ENDBRANCH  10  19
BRANCH   1  30
ATOM     30  C   UNL     1       1.156   4.620 -24.022  0.00  0.00    +0.041 C 
BRANCH  30  31
ATOM     31  C   UNL     1       0.489   4.797 -22.920  0.00  0.00    +0.005 C 
BRANCH  31  32
ATOM     32  C   UNL     1      -0.788   4.557 -22.887  0.00  0.00    +0.000 C 
BRANCH  32  33
ATOM     33  C   UNL     1      -1.520   4.785 -23.937  0.00  0.00    +0.000 C 
BRANCH  33  34
ATOM     34  C   UNL     1      -2.351   3.879 -24.359  0.00  0.00    +0.000 C 
BRANCH  34  35
ATOM     35  C   UNL     1      -3.624   4.138 -24.412  0.00  0.00    +0.000 C 
BRANCH  35  36
ATOM     36  C   UNL     1      -4.468   3.379 -23.780  0.00  0.00    -0.000 C 
BRANCH  36  37
ATOM     37  C   UNL     1      -4.836   3.682 -22.571  0.00  0.00    -0.000 C 
BRANCH  37  38
ATOM     38  C   UNL     1      -4.766   2.791 -21.627  0.00  0.00    -0.000 C 
BRANCH  38  40
ATOM     39  C   UNL     1      -3.253   3.785 -20.289  0.00  0.00    +0.004 C 
ATOM     40  C   UNL     1      -3.708   2.718 -20.877  0.00  0.00    -0.003 C 
ENDBRANCH  38  40
ENDBRANCH  37  38
ENDBRANCH  36  37
ENDBRANCH  35  36
ENDBRANCH  34  35
ENDBRANCH  33  34
ENDBRANCH  32  33
ENDBRANCH  31  32
ENDBRANCH  30  31
ENDBRANCH   1  30
TORSDOF 15
ENDMDL
MODEL 3
REMARK VINA RESULT:    -9.053      1.697      3.086
REMARK INTER + INTRA:         -16.906
REMARK INTER:                 -15.856
REMARK INTRA:                  -1.050
REMARK UNBOUND:                -0.443
REMARK  Name = ZINC000096316339
REMARK  16 active torsions:
REMARK  status: ('A' for Active; 'I' for Inactive)
REMARK    1  A    between atoms: C_1  and  C_2
REMARK    2  A    between atoms: C_2  and  C_3
REMARK    3  A    between atoms: C_3  and  C_4
REMARK    4  A    between atoms: C_4  and  C_5
REMARK    5  A    between atoms: C_5  and  C_6
REMARK    6  A    between atoms: C_6  and  C_7
REMARK    7  A    between atoms: C_7  and  C_8
REMARK    8  A    between atoms: C_8  and  C_9
REMARK    9  A    between atoms: C_9  and  C_10
REMARK   10  A    between atoms: C_10  and  C_11
REMARK   11  A    between atoms: C_11  and  C_12
REMARK   12  A    between atoms: C_13  and  O_14
REMARK   13  A    between atoms: C_15  and  O_16
REMARK   14  A    between atoms: C_23  and  N_24
REMARK   15  A    between atoms: N_24  and  S_25
REMARK   16  A    between atoms: S_25  and  N_28
REMARK                            x       y       z     vdW  Elec       q    Type
REMARK                         _______ _______ _______ _____ _____    ______ ____
ROOT
ATOM      1  C   UNL     1       2.771   3.137 -23.601  0.00  0.00    +0.025 A 
ATOM      2  C   UNL     1       2.344   1.911 -23.664  0.00  0.00    +0.164 A 
ATOM      3  C   UNL     1       3.068   0.942 -23.189  0.00  0.00    +0.161 A 
ATOM      4  C   UNL     1       4.223   1.200 -22.650  0.00  0.00    +0.079 A 
ATOM      5  C   UNL     1       4.652   2.424 -22.585  0.00  0.00    +0.094 A 
ATOM      6  N   UNL     1       5.806   2.680 -22.046  0.00  0.00    -0.243 NA
ATOM      7  C   UNL     1       6.236   3.905 -21.981  0.00  0.00    +0.090 A 
ATOM      8  C   UNL     1       7.390   4.160 -21.441  0.00  0.00    +0.032 A 
ATOM      9  C   UNL     1       7.822   5.385 -21.376  0.00  0.00    +0.027 A 
ATOM     10  C   UNL     1       7.096   6.354 -21.851  0.00  0.00    +0.051 A 
ATOM     11  C   UNL     1       5.942   6.100 -22.391  0.00  0.00    +0.054 A 
ATOM     12  C   UNL     1       5.511   4.873 -22.456  0.00  0.00    +0.092 A 
ATOM     13  N   UNL     1       4.357   4.619 -22.996  0.00  0.00    -0.243 NA
ATOM     14  C   UNL     1       3.928   3.394 -23.060  0.00  0.00    +0.097 A 
ENDROOT
BRANCH   2  15
ATOM     15  O   UNL     1       1.189   1.654 -24.204  0.00  0.00    -0.503 OA
ATOM     16  H   UNL     1       1.140   1.134 -24.981  0.00  0.00    +0.292 HD
ENDBRANCH   2  15
BRANCH   3  17
ATOM     17  O   UNL     1       2.640  -0.282 -23.253  0.00  0.00    -0.503 OA
ATOM     18  H   UNL     1       2.912  -0.838 -23.957  0.00  0.00    +0.292 HD
ENDBRANCH   3  17
BRANCH  10  19
ATOM     19  N   UNL     1       7.527   7.580 -21.786  0.00  0.00    -0.206 N 
ATOM     20  H   UNL     1       8.473   7.780 -21.968  0.00  0.00    +0.175 HD
BRANCH  19  21
ATOM     21  S   UNL     1       6.707   8.541 -21.482  0.00  0.00    +0.112 S 
ATOM     22  O   UNL     1       6.616   8.080 -20.270  0.00  0.00    -0.138 OA
ATOM     23  O   UNL     1       6.797   9.002 -22.693  0.00  0.00    -0.138 OA
BRANCH  21  24
ATOM     24  N   UNL     1       5.886   9.503 -21.176  0.00  0.00    -0.164 NA
ATOM     25  C   UNL     1       4.729   9.224 -20.654  0.00  0.00    +0.111 C 
ATOM     26  C   UNL     1       3.906  10.187 -20.347  0.00  0.00    +0.017 C 
ATOM     27  C   UNL     1       4.245  11.422 -20.564  0.00  0.00    +0.003 C 
ATOM     28  C   UNL     1       5.401  11.700 -21.086  0.00  0.00    +0.017 C 
ATOM     29  C   UNL     1       6.224  10.737 -21.393  0.00  0.00    +0.111 C 
ENDBRANCH  21  24
ENDBRANCH  19  21
ENDBRANCH  10  19
BRANCH   1  30
ATOM     30  C   UNL     1       2.048   4.106 -24.075  0.00  0.00    +0.041 C 
BRANCH  30  31
ATOM     31  C   UNL     1       1.332   4.837 -23.273  0.00  0.00    +0.005 C 
BRANCH  31  32
ATOM     32  C   UNL     1       0.109   5.144 -23.590  0.00  0.00    +0.000 C 
BRANCH  32  33
ATOM     33  C   UNL     1      -0.885   4.543 -23.005  0.00  0.00    +0.000 C 
BRANCH  33  34
ATOM     34  C   UNL     1      -1.559   3.632 -23.642  0.00  0.00    +0.000 C 
BRANCH  34  35
ATOM     35  C   UNL     1      -2.242   3.950 -24.701  0.00  0.00    +0.000 C 
BRANCH  35  36
ATOM     36  C   UNL     1      -3.490   4.297 -24.590  0.00  0.00    -0.000 C 
BRANCH  36  37
ATOM     37  C   UNL     1      -4.367   3.439 -24.162  0.00  0.00    -0.000 C 
BRANCH  37  38
ATOM     38  C   UNL     1      -5.365   3.839 -23.431  0.00  0.00    -0.000 C 
BRANCH  38  40
ATOM     39  C   UNL     1      -4.522   2.729 -21.663  0.00  0.00    +0.004 C 
ATOM     40  C   UNL     1      -5.463   3.451 -22.194  0.00  0.00    -0.003 C 
ENDBRANCH  38  40
ENDBRANCH  37  38
ENDBRANCH  36  37
ENDBRANCH  35  36
ENDBRANCH  34  35
ENDBRANCH  33  34
ENDBRANCH  32  33
ENDBRANCH  31  32
ENDBRANCH  30  31
ENDBRANCH   1  30
TORSDOF 15
ENDMDL
MODEL 4
REMARK VINA RESULT:    -8.866      3.246      5.624
REMARK INTER + INTRA:         -16.566
REMARK INTER:                 -14.901
REMARK INTRA:                  -1.665
REMARK UNBOUND:                -0.443
REMARK  Name = ZINC000096316339
REMARK  16 active torsions:
REMARK  status: ('A' for Active; 'I' for Inactive)
REMARK    1  A    between atoms: C_1  and  C_2
REMARK    2  A    between atoms: C_2  and  C_3
REMARK    3  A    between atoms: C_3  and  C_4
REMARK    4  A    between atoms: C_4  and  C_5
REMARK    5  A    between atoms: C_5  and  C_6
REMARK    6  A    between atoms: C_6  and  C_7
REMARK    7  A    between atoms: C_7  and  C_8
REMARK    8  A    between atoms: C_8  and  C_9
REMARK    9  A    between atoms: C_9  and  C_10
REMARK   10  A    between atoms: C_10  and  C_11
REMARK   11  A    between atoms: C_11  and  C_12
REMARK   12  A    between atoms: C_13  and  O_14
REMARK   13  A    between atoms: C_15  and  O_16
REMARK   14  A    between atoms: C_23  and  N_24
REMARK   15  A    between atoms: N_24  and  S_25
REMARK   16  A    between atoms: S_25  and  N_28
REMARK                            x       y       z     vdW  Elec       q    Type
REMARK                         _______ _______ _______ _____ _____    ______ ____
ROOT
ATOM      1  C   UNL     1      -3.614   4.017 -23.830  0.00  0.00    +0.025 A 
ATOM      2  C   UNL     1      -4.520   3.588 -24.657  0.00  0.00    +0.164 A 
ATOM      3  C   UNL     1      -4.182   3.189 -25.847  0.00  0.00    +0.161 A 
ATOM      4  C   UNL     1      -2.934   3.220 -26.210  0.00  0.00    +0.079 A 
ATOM      5  C   UNL     1      -2.026   3.648 -25.387  0.00  0.00    +0.094 A 
ATOM      6  N   UNL     1      -0.779   3.679 -25.751  0.00  0.00    -0.243 NA
ATOM      7  C   UNL     1       0.130   4.107 -24.927  0.00  0.00    +0.090 A 
ATOM      8  C   UNL     1       1.376   4.137 -25.292  0.00  0.00    +0.032 A 
ATOM      9  C   UNL     1       2.286   4.566 -24.468  0.00  0.00    +0.027 A 
ATOM     10  C   UNL     1       1.947   4.964 -23.277  0.00  0.00    +0.051 A 
ATOM     11  C   UNL     1       0.700   4.934 -22.911  0.00  0.00    +0.054 A 
ATOM     12  C   UNL     1      -0.210   4.505 -23.737  0.00  0.00    +0.092 A 
ATOM     13  N   UNL     1      -1.457   4.476 -23.370  0.00  0.00    -0.243 NA
ATOM     14  C   UNL     1      -2.364   4.047 -24.196  0.00  0.00    +0.097 A 
ENDROOT
BRANCH   2  15
ATOM     15  O   UNL     1      -5.768   3.557 -24.292  0.00  0.00    -0.503 OA
ATOM     16  H   UNL     1      -6.362   2.957 -24.700  0.00  0.00    +0.292 HD
ENDBRANCH   2  15
BRANCH   3  17
ATOM     17  O   UNL     1      -5.089   2.761 -26.672  0.00  0.00    -0.503 OA
ATOM     18  H   UNL     1      -5.947   2.553 -26.358  0.00  0.00    +0.292 HD
ENDBRANCH   3  17
BRANCH  10  19
ATOM     19  N   UNL     1       2.856   5.393 -22.452  0.00  0.00    -0.206 N 
ATOM     20  H   UNL     1       2.604   5.980 -21.703  0.00  0.00    +0.175 HD
BRANCH  19  21
ATOM     21  S   UNL     1       4.098   5.046 -22.616  0.00  0.00    +0.112 S 
ATOM     22  O   UNL     1       4.426   6.294 -22.774  0.00  0.00    -0.138 OA
ATOM     23  O   UNL     1       3.770   3.799 -22.458  0.00  0.00    -0.138 OA
BRANCH  21  24
ATOM     24  N   UNL     1       5.341   4.699 -22.780  0.00  0.00    -0.164 NA
ATOM     25  C   UNL     1       6.291   5.511 -22.423  0.00  0.00    +0.111 C 
ATOM     26  C   UNL     1       7.536   5.165 -22.587  0.00  0.00    +0.017 C 
ATOM     27  C   UNL     1       7.823   4.010 -23.108  0.00  0.00    +0.003 C 
ATOM     28  C   UNL     1       6.874   3.199 -23.465  0.00  0.00    +0.017 C 
ATOM     29  C   UNL     1       5.629   3.545 -23.301  0.00  0.00    +0.111 C 
ENDBRANCH  21  24
ENDBRANCH  19  21
ENDBRANCH  10  19
BRANCH   1  30
ATOM     30  C   UNL     1      -3.951   4.415 -22.640  0.00  0.00    +0.041 C 
BRANCH  30  31
ATOM     31  C   UNL     1      -4.139   3.546 -21.692  0.00  0.00    +0.005 C 
BRANCH  31  32
ATOM     32  C   UNL     1      -3.389   3.569 -20.631  0.00  0.00    +0.000 C 
BRANCH  32  33
ATOM     33  C   UNL     1      -2.235   2.970 -20.638  0.00  0.00    +0.000 C 
BRANCH  33  34
ATOM     34  C   UNL     1      -2.079   1.868 -21.311  0.00  0.00    +0.000 C 
BRANCH  34  35
ATOM     35  C   UNL     1      -0.897   1.523 -21.728  0.00  0.00    +0.000 C 
BRANCH  35  36
ATOM     36  C   UNL     1       0.120   1.582 -20.922  0.00  0.00    -0.000 C 
BRANCH  36  37
ATOM     37  C   UNL     1       1.328   1.618 -21.400  0.00  0.00    -0.000 C 
BRANCH  37  38
ATOM     38  C   UNL     1       1.556   1.223 -22.618  0.00  0.00    -0.000 C 
BRANCH  38  40
ATOM     39  C   UNL     1       3.122   0.824 -24.186  0.00  0.00    +0.004 C 
ATOM     40  C   UNL     1       2.731   0.776 -22.947  0.00  0.00    -0.003 C 
ENDBRANCH  38  40
ENDBRANCH  37  38
ENDBRANCH  36  37
ENDBRANCH  35  36
ENDBRANCH  34  35
ENDBRANCH  33  34
ENDBRANCH  32  33
ENDBRANCH  31  32
ENDBRANCH  30  31
ENDBRANCH   1  30
TORSDOF 15
ENDMDL
MODEL 5
REMARK VINA RESULT:    -8.115      3.062      7.371
REMARK INTER + INTRA:         -15.200
REMARK INTER:                 -14.189
REMARK INTRA:                  -1.011
REMARK UNBOUND:                -0.443
REMARK  Name = ZINC000096316339
REMARK  16 active torsions:
REMARK  status: ('A' for Active; 'I' for Inactive)
REMARK    1  A    between atoms: C_1  and  C_2
REMARK    2  A    between atoms: C_2  and  C_3
REMARK    3  A    between atoms: C_3  and  C_4
REMARK    4  A    between atoms: C_4  and  C_5
REMARK    5  A    between atoms: C_5  and  C_6
REMARK    6  A    between atoms: C_6  and  C_7
REMARK    7  A    between atoms: C_7  and  C_8
REMARK    8  A    between atoms: C_8  and  C_9
REMARK    9  A    between atoms: C_9  and  C_10
REMARK   10  A    between atoms: C_10  and  C_11
REMARK   11  A    between atoms: C_11  and  C_12
REMARK   12  A    between atoms: C_13  and  O_14
REMARK   13  A    between atoms: C_15  and  O_16
REMARK   14  A    between atoms: C_23  and  N_24
REMARK   15  A    between atoms: N_24  and  S_25
REMARK   16  A    between atoms: S_25  and  N_28
REMARK                            x       y       z     vdW  Elec       q    Type
REMARK                         _______ _______ _______ _____ _____    ______ ____
ROOT
ATOM      1  C   UNL     1       5.990   4.585 -23.101  0.00  0.00    +0.025 A 
ATOM      2  C   UNL     1       6.786   5.435 -22.523  0.00  0.00    +0.164 A 
ATOM      3  C   UNL     1       6.306   6.510 -21.974  0.00  0.00    +0.161 A 
ATOM      4  C   UNL     1       5.026   6.736 -22.003  0.00  0.00    +0.079 A 
ATOM      5  C   UNL     1       4.228   5.890 -22.579  0.00  0.00    +0.094 A 
ATOM      6  N   UNL     1       2.949   6.118 -22.607  0.00  0.00    -0.243 NA
ATOM      7  C   UNL     1       2.150   5.271 -23.184  0.00  0.00    +0.090 A 
ATOM      8  C   UNL     1       0.871   5.499 -23.211  0.00  0.00    +0.032 A 
ATOM      9  C   UNL     1       0.071   4.652 -23.788  0.00  0.00    +0.027 A 
ATOM     10  C   UNL     1       0.552   3.576 -24.337  0.00  0.00    +0.051 A 
ATOM     11  C   UNL     1       1.831   3.347 -24.310  0.00  0.00    +0.054 A 
ATOM     12  C   UNL     1       2.631   4.196 -23.732  0.00  0.00    +0.092 A 
ATOM     13  N   UNL     1       3.910   3.965 -23.706  0.00  0.00    -0.243 NA
ATOM     14  C   UNL     1       4.708   4.814 -23.129  0.00  0.00    +0.097 A 
ENDROOT
BRANCH   2  15
ATOM     15  O   UNL     1       8.067   5.207 -22.495  0.00  0.00    -0.503 OA
ATOM     16  H   UNL     1       8.571   5.268 -23.282  0.00  0.00    +0.292 HD
ENDBRANCH   2  15
BRANCH   3  17
ATOM     17  O   UNL     1       7.104   7.358 -21.397  0.00  0.00    -0.503 OA
ATOM     18  H   UNL     1       7.185   8.228 -21.734  0.00  0.00    +0.292 HD
ENDBRANCH   3  17
BRANCH  10  19
ATOM     19  N   UNL     1      -0.248   2.728 -24.914  0.00  0.00    -0.206 N 
ATOM     20  H   UNL     1       0.113   1.905 -25.314  0.00  0.00    +0.175 HD
BRANCH  19  21
ATOM     21  S   UNL     1      -1.525   2.969 -24.963  0.00  0.00    +0.112 S 
ATOM     22  O   UNL     1      -1.717   2.148 -23.974  0.00  0.00    -0.138 OA
ATOM     23  O   UNL     1      -1.332   3.789 -25.952  0.00  0.00    -0.138 OA
BRANCH  21  24
ATOM     24  N   UNL     1      -2.802   3.209 -25.012  0.00  0.00    -0.164 NA
ATOM     25  C   UNL     1      -3.413   3.671 -23.962  0.00  0.00    +0.111 C 
ATOM     26  C   UNL     1      -4.693   3.912 -24.010  0.00  0.00    +0.017 C 
ATOM     27  C   UNL     1      -5.353   3.689 -25.106  0.00  0.00    +0.003 C 
ATOM     28  C   UNL     1      -4.742   3.228 -26.155  0.00  0.00    +0.017 C 
ATOM     29  C   UNL     1      -3.462   2.987 -26.107  0.00  0.00    +0.111 C 
ENDBRANCH  21  24
ENDBRANCH  19  21
ENDBRANCH  10  19
BRANCH   1  30
ATOM     30  C   UNL     1       6.469   3.510 -23.650  0.00  0.00    +0.041 C 
BRANCH  30  31
ATOM     31  C   UNL     1       6.802   2.494 -22.910  0.00  0.00    +0.005 C 
BRANCH  31  32
ATOM     32  C   UNL     1       5.991   2.069 -21.987  0.00  0.00    +0.000 C 
BRANCH  32  33
ATOM     33  C   UNL     1       5.357   0.945 -22.146  0.00  0.00    +0.000 C 
BRANCH  33  34
ATOM     34  C   UNL     1       4.148   0.810 -21.687  0.00  0.00    +0.000 C 
BRANCH  34  35
ATOM     35  C   UNL     1       3.195   0.408 -22.474  0.00  0.00    +0.000 C 
BRANCH  35  36
ATOM     36  C   UNL     1       1.963   0.738 -22.223  0.00  0.00    -0.000 C 
BRANCH  36  37
ATOM     37  C   UNL     1       1.700   1.607 -21.292  0.00  0.00    -0.000 C 
BRANCH  37  38
ATOM     38  C   UNL     1       0.577   1.540 -20.639  0.00  0.00    -0.000 C 
BRANCH  38  40
ATOM     39  C   UNL     1      -1.394   2.553 -21.032  0.00  0.00    +0.004 C 
ATOM     40  C   UNL     1      -0.552   1.594 -21.279  0.00  0.00    -0.003 C 
ENDBRANCH  38  40
ENDBRANCH  37  38
ENDBRANCH  36  37
ENDBRANCH  35  36
ENDBRANCH  34  35
ENDBRANCH  33  34
ENDBRANCH  32  33
ENDBRANCH  31  32
ENDBRANCH  30  31
ENDBRANCH   1  30
TORSDOF 15
ENDMDL
MODEL 6
REMARK VINA RESULT:    -8.051      2.665      7.999
REMARK INTER + INTRA:         -15.083
REMARK INTER:                 -13.747
REMARK INTRA:                  -1.336
REMARK UNBOUND:                -0.443
REMARK  Name = ZINC000096316339
REMARK  16 active torsions:
REMARK  status: ('A' for Active; 'I' for Inactive)
REMARK    1  A    between atoms: C_1  and  C_2
REMARK    2  A    between atoms: C_2  and  C_3
REMARK    3  A    between atoms: C_3  and  C_4
REMARK    4  A    between atoms: C_4  and  C_5
REMARK    5  A    between atoms: C_5  and  C_6
REMARK    6  A    between atoms: C_6  and  C_7
REMARK    7  A    between atoms: C_7  and  C_8
REMARK    8  A    between atoms: C_8  and  C_9
REMARK    9  A    between atoms: C_9  and  C_10
REMARK   10  A    between atoms: C_10  and  C_11
REMARK   11  A    between atoms: C_11  and  C_12
REMARK   12  A    between atoms: C_13  and  O_14
REMARK   13  A    between atoms: C_15  and  O_16
REMARK   14  A    between atoms: C_23  and  N_24
REMARK   15  A    between atoms: N_24  and  S_25
REMARK   16  A    between atoms: S_25  and  N_28
REMARK                            x       y       z     vdW  Elec       q    Type
REMARK                         _______ _______ _______ _____ _____    ______ ____
ROOT
ATOM      1  C   UNL     1       5.695   6.258 -22.120  0.00  0.00    +0.025 A 
ATOM      2  C   UNL     1       6.938   5.957 -21.888  0.00  0.00    +0.164 A 
ATOM      3  C   UNL     1       7.382   4.765 -22.153  0.00  0.00    +0.161 A 
ATOM      4  C   UNL     1       6.581   3.871 -22.652  0.00  0.00    +0.079 A 
ATOM      5  C   UNL     1       5.339   4.168 -22.885  0.00  0.00    +0.094 A 
ATOM      6  N   UNL     1       4.539   3.273 -23.384  0.00  0.00    -0.243 NA
ATOM      7  C   UNL     1       3.296   3.569 -23.618  0.00  0.00    +0.090 A 
ATOM      8  C   UNL     1       2.497   2.674 -24.116  0.00  0.00    +0.032 A 
ATOM      9  C   UNL     1       1.253   2.970 -24.351  0.00  0.00    +0.027 A 
ATOM     10  C   UNL     1       0.809   4.163 -24.086  0.00  0.00    +0.051 A 
ATOM     11  C   UNL     1       1.607   5.059 -23.587  0.00  0.00    +0.054 A 
ATOM     12  C   UNL     1       2.852   4.762 -23.353  0.00  0.00    +0.092 A 
ATOM     13  N   UNL     1       3.650   5.659 -22.854  0.00  0.00    -0.243 NA
ATOM     14  C   UNL     1       4.893   5.361 -22.620  0.00  0.00    +0.097 A 
ENDROOT
BRANCH   2  15
ATOM     15  O   UNL     1       7.738   6.853 -21.389  0.00  0.00    -0.503 OA
ATOM     16  H   UNL     1       8.263   6.648 -20.640  0.00  0.00    +0.292 HD
ENDBRANCH   2  15
BRANCH   3  17
ATOM     17  O   UNL     1       8.625   4.468 -21.920  0.00  0.00    -0.503 OA
ATOM     18  H   UNL     1       9.195   5.105 -21.536  0.00  0.00    +0.292 HD
ENDBRANCH   3  17
BRANCH  10  19
ATOM     19  N   UNL     1      -0.436   4.460 -24.320  0.00  0.00    -0.206 N 
ATOM     20  H   UNL     1      -0.680   4.953 -25.136  0.00  0.00    +0.175 HD
BRANCH  19  21
ATOM     21  S   UNL     1      -1.358   4.105 -23.475  0.00  0.00    +0.112 S 
ATOM     22  O   UNL     1      -1.071   5.130 -22.730  0.00  0.00    -0.138 OA
ATOM     23  O   UNL     1      -1.646   3.080 -24.220  0.00  0.00    -0.138 OA
BRANCH  21  24
ATOM     24  N   UNL     1      -2.281   3.750 -22.630  0.00  0.00    -0.164 NA
ATOM     25  C   UNL     1      -3.451   3.388 -23.064  0.00  0.00    +0.111 C 
ATOM     26  C   UNL     1      -4.376   3.033 -22.218  0.00  0.00    +0.017 C 
ATOM     27  C   UNL     1      -4.125   3.043 -20.943  0.00  0.00    +0.003 C 
ATOM     28  C   UNL     1      -2.956   3.405 -20.510  0.00  0.00    +0.017 C 
ATOM     29  C   UNL     1      -2.031   3.760 -21.356  0.00  0.00    +0.111 C 
ENDBRANCH  21  24
ENDBRANCH  19  21
ENDBRANCH  10  19
BRANCH   1  30
ATOM     30  C   UNL     1       5.249   7.449 -21.856  0.00  0.00    +0.041 C 
BRANCH  30  31
ATOM     31  C   UNL     1       5.069   7.817 -20.622  0.00  0.00    +0.005 C 
BRANCH  31  32
ATOM     32  C   UNL     1       4.255   8.793 -20.347  0.00  0.00    +0.000 C 
BRANCH  32  33
ATOM     33  C   UNL     1       4.584  10.016 -20.640  0.00  0.00    +0.000 C 
BRANCH  33  34
ATOM     34  C   UNL     1       3.662  10.888 -20.923  0.00  0.00    +0.000 C 
BRANCH  34  35
ATOM     35  C   UNL     1       3.603  11.410 -22.112  0.00  0.00    +0.000 C 
BRANCH  35  36
ATOM     36  C   UNL     1       4.078  10.759 -23.131  0.00  0.00    -0.000 C 
BRANCH  36  37
ATOM     37  C   UNL     1       4.771  11.384 -24.036  0.00  0.00    -0.000 C 
BRANCH  37  38
ATOM     38  C   UNL     1       6.070  11.321 -24.019  0.00  0.00    -0.000 C 
BRANCH  38  40
ATOM     39  C   UNL     1       7.606  10.238 -22.780  0.00  0.00    +0.004 C 
ATOM     40  C   UNL     1       6.663  10.217 -23.674  0.00  0.00    -0.003 C 
ENDBRANCH  38  40
ENDBRANCH  37  38
ENDBRANCH  36  37
ENDBRANCH  35  36
ENDBRANCH  34  35
ENDBRANCH  33  34
ENDBRANCH  32  33
ENDBRANCH  31  32
ENDBRANCH  30  31
ENDBRANCH   1  30
TORSDOF 15
ENDMDL
MODEL 7
REMARK VINA RESULT:    -7.857      3.221      4.482
REMARK INTER + INTRA:         -14.732
REMARK INTER:                 -12.822
REMARK INTRA:                  -1.909
REMARK UNBOUND:                -0.443
REMARK  Name = ZINC000096316339
REMARK  16 active torsions:
REMARK  status: ('A' for Active; 'I' for Inactive)
REMARK    1  A    between atoms: C_1  and  C_2
REMARK    2  A    between atoms: C_2  and  C_3
REMARK    3  A    between atoms: C_3  and  C_4
REMARK    4  A    between atoms: C_4  and  C_5
REMARK    5  A    between atoms: C_5  and  C_6
REMARK    6  A    between atoms: C_6  and  C_7
REMARK    7  A    between atoms: C_7  and  C_8
REMARK    8  A    between atoms: C_8  and  C_9
REMARK    9  A    between atoms: C_9  and  C_10
REMARK   10  A    between atoms: C_10  and  C_11
REMARK   11  A    between atoms: C_11  and  C_12
REMARK   12  A    between atoms: C_13  and  O_14
REMARK   13  A    between atoms: C_15  and  O_16
REMARK   14  A    between atoms: C_23  and  N_24
REMARK   15  A    between atoms: N_24  and  S_25
REMARK   16  A    between atoms: S_25  and  N_28
REMARK                            x       y       z     vdW  Elec       q    Type
REMARK                         _______ _______ _______ _____ _____    ______ ____
ROOT
ATOM      1  C   UNL     1      -1.284   4.634 -23.837  0.00  0.00    +0.025 A 
ATOM      2  C   UNL     1      -2.265   4.353 -24.641  0.00  0.00    +0.164 A 
ATOM      3  C   UNL     1      -2.069   3.576 -25.664  0.00  0.00    +0.161 A 
ATOM      4  C   UNL     1      -0.889   3.078 -25.883  0.00  0.00    +0.079 A 
ATOM      5  C   UNL     1       0.094   3.356 -25.082  0.00  0.00    +0.094 A 
ATOM      6  N   UNL     1       1.274   2.858 -25.302  0.00  0.00    -0.243 NA
ATOM      7  C   UNL     1       2.258   3.136 -24.500  0.00  0.00    +0.090 A 
ATOM      8  C   UNL     1       3.437   2.637 -24.720  0.00  0.00    +0.032 A 
ATOM      9  C   UNL     1       4.422   2.915 -23.919  0.00  0.00    +0.027 A 
ATOM     10  C   UNL     1       4.226   3.693 -22.895  0.00  0.00    +0.051 A 
ATOM     11  C   UNL     1       3.046   4.192 -22.673  0.00  0.00    +0.054 A 
ATOM     12  C   UNL     1       2.061   3.913 -23.477  0.00  0.00    +0.092 A 
ATOM     13  N   UNL     1       0.882   4.413 -23.254  0.00  0.00    -0.243 NA
ATOM     14  C   UNL     1      -0.101   4.134 -24.058  0.00  0.00    +0.097 A 
ENDROOT
BRANCH   2  15
ATOM     15  O   UNL     1      -3.446   4.852 -24.421  0.00  0.00    -0.503 OA
ATOM     16  H   UNL     1      -3.825   5.448 -25.036  0.00  0.00    +0.292 HD
ENDBRANCH   2  15
BRANCH   3  17
ATOM     17  O   UNL     1      -3.052   3.297 -26.467  0.00  0.00    -0.503 OA
ATOM     18  H   UNL     1      -3.650   2.608 -26.253  0.00  0.00    +0.292 HD
ENDBRANCH   3  17
BRANCH  10  19
ATOM     19  N   UNL     1       5.210   3.971 -22.092  0.00  0.00    -0.206 N 
ATOM     20  H   UNL     1       5.239   3.576 -21.192  0.00  0.00    +0.175 HD
BRANCH  19  21
ATOM     21  S   UNL     1       6.158   4.773 -22.480  0.00  0.00    +0.112 S 
ATOM     22  O   UNL     1       5.331   5.775 -22.427  0.00  0.00    -0.138 OA
ATOM     23  O   UNL     1       6.983   3.771 -22.533  0.00  0.00    -0.138 OA
BRANCH  21  24
ATOM     24  N   UNL     1       7.105   5.576 -22.867  0.00  0.00    -0.164 NA
ATOM     25  C   UNL     1       7.371   6.643 -22.176  0.00  0.00    +0.111 C 
ATOM     26  C   UNL     1       8.320   7.448 -22.563  0.00  0.00    +0.017 C 
ATOM     27  C   UNL     1       8.996   7.180 -23.639  0.00  0.00    +0.003 C 
ATOM     28  C   UNL     1       8.730   6.113 -24.330  0.00  0.00    +0.017 C 
ATOM     29  C   UNL     1       7.781   5.308 -23.943  0.00  0.00    +0.111 C 
ENDBRANCH  21  24
ENDBRANCH  19  21
ENDBRANCH  10  19
BRANCH   1  30
ATOM     30  C   UNL     1      -1.478   5.411 -22.814  0.00  0.00    +0.041 C 
BRANCH  30  31
ATOM     31  C   UNL     1      -1.578   4.903 -21.622  0.00  0.00    +0.005 C 
BRANCH  31  32
ATOM     32  C   UNL     1      -2.518   4.044 -21.357  0.00  0.00    +0.000 C 
BRANCH  32  33
ATOM     33  C   UNL     1      -2.211   2.861 -20.912  0.00  0.00    +0.000 C 
BRANCH  33  34
ATOM     34  C   UNL     1      -1.977   1.893 -21.748  0.00  0.00    +0.000 C 
BRANCH  34  35
ATOM     35  C   UNL     1      -0.768   1.442 -21.899  0.00  0.00    +0.000 C 
BRANCH  35  36
ATOM     36  C   UNL     1       0.075   1.499 -20.912  0.00  0.00    -0.000 C 
BRANCH  36  37
ATOM     37  C   UNL     1       1.353   1.497 -21.148  0.00  0.00    -0.000 C 
BRANCH  37  38
ATOM     38  C   UNL     1       1.850   0.685 -22.033  0.00  0.00    -0.000 C 
BRANCH  38  40
ATOM     39  C   UNL     1       3.770   0.539 -20.867  0.00  0.00    +0.004 C 
ATOM     40  C   UNL     1       3.095   0.320 -21.955  0.00  0.00    -0.003 C 
ENDBRANCH  38  40
ENDBRANCH  37  38
ENDBRANCH  36  37
ENDBRANCH  35  36
ENDBRANCH  34  35
ENDBRANCH  33  34
ENDBRANCH  32  33
ENDBRANCH  31  32
ENDBRANCH  30  31
ENDBRANCH   1  30
TORSDOF 15
ENDMDL
MODEL 8
REMARK VINA RESULT:    -7.601      2.041      3.536
REMARK INTER + INTRA:         -14.266
REMARK INTER:                 -13.478
REMARK INTRA:                  -0.787
REMARK UNBOUND:                -0.443
REMARK  Name = ZINC000096316339
REMARK  16 active torsions:
REMARK  status: ('A' for Active; 'I' for Inactive)
REMARK    1  A    between atoms: C_1  and  C_2
REMARK    2  A    between atoms: C_2  and  C_3
REMARK    3  A    between atoms: C_3  and  C_4
REMARK    4  A    between atoms: C_4  and  C_5
REMARK    5  A    between atoms: C_5  and  C_6
REMARK    6  A    between atoms: C_6  and  C_7
REMARK    7  A    between atoms: C_7  and  C_8
REMARK    8  A    between atoms: C_8  and  C_9
REMARK    9  A    between atoms: C_9  and  C_10
REMARK   10  A    between atoms: C_10  and  C_11
REMARK   11  A    between atoms: C_11  and  C_12
REMARK   12  A    between atoms: C_13  and  O_14
REMARK   13  A    between atoms: C_15  and  O_16
REMARK   14  A    between atoms: C_23  and  N_24
REMARK   15  A    between atoms: N_24  and  S_25
REMARK   16  A    between atoms: S_25  and  N_28
REMARK                            x       y       z     vdW  Elec       q    Type
REMARK                         _______ _______ _______ _____ _____    ______ ____
ROOT
ATOM      1  C   UNL     1       5.147   4.072 -22.582  0.00  0.00    +0.025 A 
ATOM      2  C   UNL     1       5.775   2.992 -22.940  0.00  0.00    +0.164 A 
ATOM      3  C   UNL     1       7.075   2.971 -22.969  0.00  0.00    +0.161 A 
ATOM      4  C   UNL     1       7.747   4.034 -22.639  0.00  0.00    +0.079 A 
ATOM      5  C   UNL     1       7.123   5.115 -22.282  0.00  0.00    +0.094 A 
ATOM      6  N   UNL     1       7.796   6.176 -21.953  0.00  0.00    -0.243 NA
ATOM      7  C   UNL     1       7.172   7.258 -21.595  0.00  0.00    +0.090 A 
ATOM      8  C   UNL     1       7.846   8.319 -21.266  0.00  0.00    +0.032 A 
ATOM      9  C   UNL     1       7.222   9.402 -20.908  0.00  0.00    +0.027 A 
ATOM     10  C   UNL     1       5.923   9.422 -20.879  0.00  0.00    +0.051 A 
ATOM     11  C   UNL     1       5.247   8.361 -21.208  0.00  0.00    +0.054 A 
ATOM     12  C   UNL     1       5.873   7.278 -21.566  0.00  0.00    +0.092 A 
ATOM     13  N   UNL     1       5.197   6.218 -21.895  0.00  0.00    -0.243 NA
ATOM     14  C   UNL     1       5.823   5.136 -22.252  0.00  0.00    +0.097 A 
ENDROOT
BRANCH   2  15
ATOM     15  O   UNL     1       5.101   1.930 -23.269  0.00  0.00    -0.503 OA
ATOM     16  H   UNL     1       5.133   1.167 -22.726  0.00  0.00    +0.292 HD
ENDBRANCH   2  15
BRANCH   3  17
ATOM     17  O   UNL     1       7.700   1.890 -23.326  0.00  0.00    -0.503 OA
ATOM     18  H   UNL     1       7.845   1.712 -24.235  0.00  0.00    +0.292 HD
ENDBRANCH   3  17
BRANCH  10  19
ATOM     19  N   UNL     1       5.298  10.505 -20.521  0.00  0.00    -0.206 N 
ATOM     20  H   UNL     1       5.452  10.890 -19.628  0.00  0.00    +0.175 HD
BRANCH  19  21
ATOM     21  S   UNL     1       4.469  11.079 -21.342  0.00  0.00    +0.112 S 
ATOM     22  O   UNL     1       3.475  10.739 -20.576  0.00  0.00    -0.138 OA
ATOM     23  O   UNL     1       5.462  11.418 -22.107  0.00  0.00    -0.138 OA
BRANCH  21  24
ATOM     24  N   UNL     1       3.639  11.653 -22.163  0.00  0.00    -0.164 NA
ATOM     25  C   UNL     1       3.509  11.198 -23.373  0.00  0.00    +0.111 C 
ATOM     26  C   UNL     1       2.678  11.773 -24.196  0.00  0.00    +0.017 C 
ATOM     27  C   UNL     1       1.982  12.797 -23.803  0.00  0.00    +0.003 C 
ATOM     28  C   UNL     1       2.112  13.250 -22.594  0.00  0.00    +0.017 C 
ATOM     29  C   UNL     1       2.943  12.676 -21.771  0.00  0.00    +0.111 C 
ENDBRANCH  21  24
ENDBRANCH  19  21
ENDBRANCH  10  19
BRANCH   1  30
ATOM     30  C   UNL     1       3.849   4.094 -22.553  0.00  0.00    +0.041 C 
BRANCH  30  31
ATOM     31  C   UNL     1       3.185   4.626 -23.535  0.00  0.00    +0.005 C 
BRANCH  31  32
ATOM     32  C   UNL     1       2.244   3.950 -24.127  0.00  0.00    +0.000 C 
BRANCH  32  33
ATOM     33  C   UNL     1       1.098   4.512 -24.374  0.00  0.00    +0.000 C 
BRANCH  33  34
ATOM     34  C   UNL     1       0.431   5.077 -23.411  0.00  0.00    +0.000 C 
BRANCH  34  35
ATOM     35  C   UNL     1      -0.862   4.950 -23.354  0.00  0.00    +0.000 C 
BRANCH  35  36
ATOM     36  C   UNL     1      -1.416   3.810 -23.640  0.00  0.00    -0.000 C 
BRANCH  36  37
ATOM     37  C   UNL     1      -2.579   3.510 -23.144  0.00  0.00    -0.000 C 
BRANCH  37  38
ATOM     38  C   UNL     1      -2.670   3.059 -21.927  0.00  0.00    -0.000 C 
BRANCH  38  40
ATOM     39  C   UNL     1      -3.133   3.711 -19.823  0.00  0.00    +0.004 C 
ATOM     40  C   UNL     1      -3.465   3.636 -21.077  0.00  0.00    -0.003 C 
ENDBRANCH  38  40
ENDBRANCH  37  38
ENDBRANCH  36  37
ENDBRANCH  35  36
ENDBRANCH  34  35
ENDBRANCH  33  34
ENDBRANCH  32  33
ENDBRANCH  31  32
ENDBRANCH  30  31
ENDBRANCH   1  30
TORSDOF 15
ENDMDL
MODEL 9
REMARK VINA RESULT:    -7.453      2.839      8.295
REMARK INTER + INTRA:         -13.996
REMARK INTER:                 -13.553
REMARK INTRA:                  -0.443
REMARK UNBOUND:                -0.443
REMARK  Name = ZINC000096316339
REMARK  16 active torsions:
REMARK  status: ('A' for Active; 'I' for Inactive)
REMARK    1  A    between atoms: C_1  and  C_2
REMARK    2  A    between atoms: C_2  and  C_3
REMARK    3  A    between atoms: C_3  and  C_4
REMARK    4  A    between atoms: C_4  and  C_5
REMARK    5  A    between atoms: C_5  and  C_6
REMARK    6  A    between atoms: C_6  and  C_7
REMARK    7  A    between atoms: C_7  and  C_8
REMARK    8  A    between atoms: C_8  and  C_9
REMARK    9  A    between atoms: C_9  and  C_10
REMARK   10  A    between atoms: C_10  and  C_11
REMARK   11  A    between atoms: C_11  and  C_12
REMARK   12  A    between atoms: C_13  and  O_14
REMARK   13  A    between atoms: C_15  and  O_16
REMARK   14  A    between atoms: C_23  and  N_24
REMARK   15  A    between atoms: N_24  and  S_25
REMARK   16  A    between atoms: S_25  and  N_28
REMARK                            x       y       z     vdW  Elec       q    Type
REMARK                         _______ _______ _______ _____ _____    ______ ____
ROOT
ATOM      1  C   UNL     1       4.990   8.385 -21.373  0.00  0.00    +0.025 A 
ATOM      2  C   UNL     1       6.062   8.817 -20.780  0.00  0.00    +0.164 A 
ATOM      3  C   UNL     1       7.096   8.040 -20.651  0.00  0.00    +0.161 A 
ATOM      4  C   UNL     1       7.056   6.827 -21.118  0.00  0.00    +0.079 A 
ATOM      5  C   UNL     1       5.986   6.392 -21.711  0.00  0.00    +0.094 A 
ATOM      6  N   UNL     1       5.948   5.180 -22.176  0.00  0.00    -0.243 NA
ATOM      7  C   UNL     1       4.877   4.744 -22.770  0.00  0.00    +0.090 A 
ATOM      8  C   UNL     1       4.840   3.531 -23.235  0.00  0.00    +0.032 A 
ATOM      9  C   UNL     1       3.769   3.095 -23.830  0.00  0.00    +0.027 A 
ATOM     10  C   UNL     1       2.736   3.873 -23.958  0.00  0.00    +0.051 A 
ATOM     11  C   UNL     1       2.772   5.086 -23.492  0.00  0.00    +0.054 A 
ATOM     12  C   UNL     1       3.845   5.522 -22.898  0.00  0.00    +0.092 A 
ATOM     13  N   UNL     1       3.880   6.735 -22.433  0.00  0.00    -0.243 NA
ATOM     14  C   UNL     1       4.952   7.169 -21.840  0.00  0.00    +0.097 A 
ENDROOT
BRANCH   2  15
ATOM     15  O   UNL     1       6.101  10.031 -20.314  0.00  0.00    -0.503 OA
ATOM     16  H   UNL     1       5.531  10.283 -19.614  0.00  0.00    +0.292 HD
ENDBRANCH   2  15
BRANCH   3  17
ATOM     17  O   UNL     1       8.167   8.474 -20.058  0.00  0.00    -0.503 OA
ATOM     18  H   UNL     1       8.977   8.014 -20.158  0.00  0.00    +0.292 HD
ENDBRANCH   3  17
BRANCH  10  19
ATOM     19  N   UNL     1       1.664   3.437 -24.552  0.00  0.00    -0.206 N 
ATOM     20  H   UNL     1       1.676   3.253 -25.519  0.00  0.00    +0.175 HD
BRANCH  19  21
ATOM     21  S   UNL     1       0.575   3.244 -23.868  0.00  0.00    +0.112 S 
ATOM     22  O   UNL     1       1.068   2.137 -23.396  0.00  0.00    -0.138 OA
ATOM     23  O   UNL     1       0.082   4.349 -24.341  0.00  0.00    -0.138 OA
BRANCH  21  24
ATOM     24  N   UNL     1      -0.514   3.049 -23.184  0.00  0.00    -0.164 NA
ATOM     25  C   UNL     1      -1.644   3.519 -23.621  0.00  0.00    +0.111 C 
ATOM     26  C   UNL     1      -2.736   3.324 -22.936  0.00  0.00    +0.017 C 
ATOM     27  C   UNL     1      -2.690   2.662 -21.819  0.00  0.00    +0.003 C 
ATOM     28  C   UNL     1      -1.560   2.193 -21.383  0.00  0.00    +0.017 C 
ATOM     29  C   UNL     1      -0.469   2.388 -22.068  0.00  0.00    +0.111 C 
ENDBRANCH  21  24
ENDBRANCH  19  21
ENDBRANCH  10  19
BRANCH   1  30
ATOM     30  C   UNL     1       3.956   9.162 -21.502  0.00  0.00    +0.041 C 
BRANCH  30  31
ATOM     31  C   UNL     1       3.901  10.013 -22.482  0.00  0.00    +0.005 C 
BRANCH  31  32
ATOM     32  C   UNL     1       3.495  11.230 -22.264  0.00  0.00    +0.000 C 
BRANCH  32  33
ATOM     33  C   UNL     1       3.136  11.983 -23.262  0.00  0.00    +0.000 C 
BRANCH  33  34
ATOM     34  C   UNL     1       2.852  11.446 -24.412  0.00  0.00    +0.000 C 
BRANCH  34  35
ATOM     35  C   UNL     1       2.233  12.142 -25.318  0.00  0.00    +0.000 C 
BRANCH  35  36
ATOM     36  C   UNL     1       0.939  12.067 -25.422  0.00  0.00    -0.000 C 
BRANCH  36  37
ATOM     37  C   UNL     1       0.400  11.196 -26.222  0.00  0.00    -0.000 C 
BRANCH  37  38
ATOM     38  C   UNL     1      -0.888  11.019 -26.218  0.00  0.00    -0.000 C 
BRANCH  38  40
ATOM     39  C   UNL     1      -0.916  10.733 -28.450  0.00  0.00    +0.004 C 
ATOM     40  C   UNL     1      -1.491  10.606 -27.292  0.00  0.00    -0.003 C 
ENDBRANCH  38  40
ENDBRANCH  37  38
ENDBRANCH  36  37
ENDBRANCH  35  36
ENDBRANCH  34  35
ENDBRANCH  33  34
ENDBRANCH  32  33
ENDBRANCH  31  32
ENDBRANCH  30  31
ENDBRANCH   1  30
TORSDOF 15
ENDMDL
