MODEL 1
REMARK VINA RESULT:    -8.764      0.000      0.000
REMARK INTER + INTRA:         -17.688
REMARK INTER:                 -15.265
REMARK INTRA:                  -2.423
REMARK UNBOUND:                -1.751
REMARK  Name = CCCCCCCCCCCC1=C(O)C(=O)C=C(NCCc2ccccc2)C1=O                          ZINC000100393410
REMARK  15 active torsions:
REMARK  status: ('A' for Active; 'I' for Inactive)
REMARK    1  A    between atoms: C_1  and  C_2
REMARK    2  A    between atoms: C_2  and  C_3
REMARK    3  A    between atoms: C_3  and  C_4
REMARK    4  A    between atoms: C_4  and  C_5
REMARK    5  A    between atoms: C_5  and  C_6
REMARK    6  A    between atoms: C_6  and  C_7
REMARK    7  A    between atoms: C_7  and  C_8
REMARK    8  A    between atoms: C_8  and  C_9
REMARK    9  A    between atoms: C_9  and  C_10
REMARK   10  A    between atoms: C_10  and  C_11
REMARK   11  A    between atoms: C_11  and  C_12
REMARK   12  A    between atoms: C_18  and  N_19
REMARK   13  A    between atoms: N_19  and  C_20
REMARK   14  A    between atoms: C_20  and  C_21
REMARK   15  A    between atoms: C_21  and  C_22
REMARK                            x       y       z     vdW  Elec       q    Type
REMARK                         _______ _______ _______ _____ _____    ______ ____
ROOT
ATOM      1  C   UNL     1       3.414   2.989 -23.895  0.00  0.00    -0.008 C 
ATOM      2  C   UNL     1       3.546   4.058 -23.168  0.00  0.00    +0.228 C 
ATOM      3  C   UNL     1       2.673   5.018 -23.258  0.00  0.00    +0.227 C 
ATOM      4  C   UNL     1       1.669   4.908 -24.075  0.00  0.00    +0.076 C 
ATOM      5  C   UNL     1       1.536   3.838 -24.802  0.00  0.00    +0.018 C 
ATOM      6  O   UNL     1       2.806   6.087 -22.531  0.00  0.00    -0.284 OA
ATOM      7  O   UNL     1       4.551   4.168 -22.350  0.00  0.00    -0.284 OA
ATOM      8  C   UNL     1       2.408   2.879 -24.712  0.00  0.00    -0.112 C 
ATOM      9  O   UNL     1       2.276   1.809 -25.439  0.00  0.00    -0.828 OA
ENDROOT
BRANCH   5  10
ATOM     10  N   UNL     1       0.531   3.728 -25.619  0.00  0.00    -0.344 N 
ATOM     11  H   UNL     1       0.690   3.566 -26.577  0.00  0.00    +0.146 HD
BRANCH  10  12
ATOM     12  C   UNL     1      -0.686   3.831 -25.172  0.00  0.00    +0.106 C 
BRANCH  12  13
ATOM     13  C   UNL     1      -1.683   3.433 -25.903  0.00  0.00    +0.054 C 
BRANCH  13  14
ATOM     14  C   UNL     1      -2.902   3.599 -25.485  0.00  0.00    -0.046 A 
ATOM     15  C   UNL     1      -3.895   3.088 -26.153  0.00  0.00    +0.004 A 
ATOM     16  C   UNL     1      -5.114   3.254 -25.733  0.00  0.00    +0.000 A 
ATOM     17  C   UNL     1      -5.342   3.929 -24.647  0.00  0.00    +0.000 A 
ATOM     18  C   UNL     1      -4.351   4.440 -23.979  0.00  0.00    +0.000 A 
ATOM     19  C   UNL     1      -3.131   4.275 -24.397  0.00  0.00    +0.004 A 
ENDBRANCH  13  14
ENDBRANCH  12  13
ENDBRANCH  10  12
ENDBRANCH   5  10
BRANCH   1  20
ATOM     20  C   UNL     1       4.286   2.029 -23.805  0.00  0.00    +0.038 C 
BRANCH  20  21
ATOM     21  C   UNL     1       3.952   0.896 -23.263  0.00  0.00    +0.005 C 
BRANCH  21  22
ATOM     22  C   UNL     1       3.469   0.870 -22.055  0.00  0.00    +0.000 C 
BRANCH  22  23
ATOM     23  C   UNL     1       2.215   0.587 -21.862  0.00  0.00    +0.000 C 
BRANCH  23  24
ATOM     24  C   UNL     1       1.410   1.491 -21.391  0.00  0.00    +0.000 C 
BRANCH  24  25
ATOM     25  C   UNL     1       0.128   1.380 -21.577  0.00  0.00    +0.000 C 
BRANCH  25  26
ATOM     26  C   UNL     1      -0.581   2.433 -21.860  0.00  0.00    -0.000 C 
BRANCH  26  27
ATOM     27  C   UNL     1      -1.855   2.447 -21.603  0.00  0.00    -0.000 C 
BRANCH  27  28
ATOM     28  C   UNL     1      -2.350   3.359 -20.821  0.00  0.00    -0.000 C 
BRANCH  28  30
ATOM     29  C   UNL     1      -4.374   2.378 -20.923  0.00  0.00    +0.004 C 
ATOM     30  C   UNL     1      -3.627   3.383 -20.575  0.00  0.00    -0.003 C 
ENDBRANCH  28  30
ENDBRANCH  27  28
ENDBRANCH  26  27
ENDBRANCH  25  26
ENDBRANCH  24  25
ENDBRANCH  23  24
ENDBRANCH  22  23
ENDBRANCH  21  22
ENDBRANCH  20  21
ENDBRANCH   1  20
TORSDOF 14
ENDMDL
MODEL 2
REMARK VINA RESULT:    -8.540      2.122      6.728
REMARK INTER + INTRA:         -17.280
REMARK INTER:                 -15.080
REMARK INTRA:                  -2.200
REMARK UNBOUND:                -1.751
REMARK  Name = CCCCCCCCCCCC1=C(O)C(=O)C=C(NCCc2ccccc2)C1=O                          ZINC000100393410
REMARK  15 active torsions:
REMARK  status: ('A' for Active; 'I' for Inactive)
REMARK    1  A    between atoms: C_1  and  C_2
REMARK    2  A    between atoms: C_2  and  C_3
REMARK    3  A    between atoms: C_3  and  C_4
REMARK    4  A    between atoms: C_4  and  C_5
REMARK    5  A    between atoms: C_5  and  C_6
REMARK    6  A    between atoms: C_6  and  C_7
REMARK    7  A    between atoms: C_7  and  C_8
REMARK    8  A    between atoms: C_8  and  C_9
REMARK    9  A    between atoms: C_9  and  C_10
REMARK   10  A    between atoms: C_10  and  C_11
REMARK   11  A    between atoms: C_11  and  C_12
REMARK   12  A    between atoms: C_18  and  N_19
REMARK   13  A    between atoms: N_19  and  C_20
REMARK   14  A    between atoms: C_20  and  C_21
REMARK   15  A    between atoms: C_21  and  C_22
REMARK                            x       y       z     vdW  Elec       q    Type
REMARK                         _______ _______ _______ _____ _____    ______ ____
ROOT
ATOM      1  C   UNL     1      -0.368   3.094 -22.650  0.00  0.00    -0.008 C 
ATOM      2  C   UNL     1       0.023   4.265 -23.057  0.00  0.00    +0.228 C 
ATOM      3  C   UNL     1       1.268   4.462 -23.374  0.00  0.00    +0.227 C 
ATOM      4  C   UNL     1       2.123   3.487 -23.285  0.00  0.00    +0.076 C 
ATOM      5  C   UNL     1       1.733   2.316 -22.878  0.00  0.00    +0.018 C 
ATOM      6  O   UNL     1       1.658   5.634 -23.780  0.00  0.00    -0.284 OA
ATOM      7  O   UNL     1      -0.833   5.240 -23.146  0.00  0.00    -0.284 OA
ATOM      8  C   UNL     1       0.489   2.119 -22.561  0.00  0.00    -0.112 C 
ATOM      9  O   UNL     1       0.099   0.947 -22.155  0.00  0.00    -0.828 OA
ENDROOT
BRANCH   5  10
ATOM     10  N   UNL     1       2.589   1.341 -22.789  0.00  0.00    -0.344 N 
ATOM     11  H   UNL     1       2.335   0.502 -22.341  0.00  0.00    +0.146 HD
BRANCH  10  12
ATOM     12  C   UNL     1       3.781   1.474 -23.291  0.00  0.00    +0.106 C 
BRANCH  12  13
ATOM     13  C   UNL     1       4.819   1.480 -22.509  0.00  0.00    +0.054 C 
BRANCH  13  14
ATOM     14  C   UNL     1       5.550   2.549 -22.409  0.00  0.00    -0.046 A 
ATOM     15  C   UNL     1       5.796   3.271 -23.463  0.00  0.00    +0.004 A 
ATOM     16  C   UNL     1       6.528   4.341 -23.361  0.00  0.00    +0.000 A 
ATOM     17  C   UNL     1       7.013   4.690 -22.207  0.00  0.00    +0.000 A 
ATOM     18  C   UNL     1       6.767   3.969 -21.154  0.00  0.00    +0.000 A 
ATOM     19  C   UNL     1       6.036   2.899 -21.254  0.00  0.00    +0.004 A 
ENDBRANCH  13  14
ENDBRANCH  12  13
ENDBRANCH  10  12
ENDBRANCH   5  10
BRANCH   1  20
ATOM     20  C   UNL     1      -1.612   2.897 -22.333  0.00  0.00    +0.038 C 
BRANCH  20  21
ATOM     21  C   UNL     1      -2.011   3.097 -21.113  0.00  0.00    +0.005 C 
BRANCH  21  22
ATOM     22  C   UNL     1      -3.264   3.352 -20.872  0.00  0.00    +0.000 C 
BRANCH  22  23
ATOM     23  C   UNL     1      -4.175   2.474 -21.171  0.00  0.00    +0.000 C 
BRANCH  23  24
ATOM     24  C   UNL     1      -5.293   2.856 -21.712  0.00  0.00    +0.000 C 
BRANCH  24  25
ATOM     25  C   UNL     1      -5.290   3.787 -22.619  0.00  0.00    +0.000 C 
BRANCH  25  26
ATOM     26  C   UNL     1      -5.280   3.467 -23.880  0.00  0.00    -0.000 C 
BRANCH  26  27
ATOM     27  C   UNL     1      -4.830   4.311 -24.760  0.00  0.00    -0.000 C 
BRANCH  27  28
ATOM     28  C   UNL     1      -3.550   4.486 -24.898  0.00  0.00    -0.000 C 
BRANCH  28  30
ATOM     29  C   UNL     1      -3.317   3.443 -26.881  0.00  0.00    +0.004 C 
ATOM     30  C   UNL     1      -2.869   3.710 -25.690  0.00  0.00    -0.003 C 
ENDBRANCH  28  30
ENDBRANCH  27  28
ENDBRANCH  26  27
ENDBRANCH  25  26
ENDBRANCH  24  25
ENDBRANCH  23  24
ENDBRANCH  22  23
ENDBRANCH  21  22
ENDBRANCH  20  21
ENDBRANCH   1  20
TORSDOF 14
ENDMDL
MODEL 3
REMARK VINA RESULT:    -8.465      2.668      7.046
REMARK INTER + INTRA:         -17.143
REMARK INTER:                 -15.008
REMARK INTRA:                  -2.135
REMARK UNBOUND:                -1.751
REMARK  Name = CCCCCCCCCCCC1=C(O)C(=O)C=C(NCCc2ccccc2)C1=O                          ZINC000100393410
REMARK  15 active torsions:
REMARK  status: ('A' for Active; 'I' for Inactive)
REMARK    1  A    between atoms: C_1  and  C_2
REMARK    2  A    between atoms: C_2  and  C_3
REMARK    3  A    between atoms: C_3  and  C_4
REMARK    4  A    between atoms: C_4  and  C_5
REMARK    5  A    between atoms: C_5  and  C_6
REMARK    6  A    between atoms: C_6  and  C_7
REMARK    7  A    between atoms: C_7  and  C_8
REMARK    8  A    between atoms: C_8  and  C_9
REMARK    9  A    between atoms: C_9  and  C_10
REMARK   10  A    between atoms: C_10  and  C_11
REMARK   11  A    between atoms: C_11  and  C_12
REMARK   12  A    between atoms: C_18  and  N_19
REMARK   13  A    between atoms: N_19  and  C_20
REMARK   14  A    between atoms: C_20  and  C_21
REMARK   15  A    between atoms: C_21  and  C_22
REMARK                            x       y       z     vdW  Elec       q    Type
REMARK                         _______ _______ _______ _____ _____    ______ ____
ROOT
ATOM      1  C   UNL     1       0.482   3.312 -23.249  0.00  0.00    -0.008 C 
ATOM      2  C   UNL     1       0.633   2.099 -22.806  0.00  0.00    +0.228 C 
ATOM      3  C   UNL     1       1.802   1.691 -22.412  0.00  0.00    +0.227 C 
ATOM      4  C   UNL     1       2.822   2.496 -22.461  0.00  0.00    +0.076 C 
ATOM      5  C   UNL     1       2.672   3.709 -22.905  0.00  0.00    +0.018 C 
ATOM      6  O   UNL     1       1.952   0.478 -21.969  0.00  0.00    -0.284 OA
ATOM      7  O   UNL     1      -0.388   1.294 -22.757  0.00  0.00    -0.284 OA
ATOM      8  C   UNL     1       1.503   4.117 -23.299  0.00  0.00    -0.112 C 
ATOM      9  O   UNL     1       1.353   5.330 -23.742  0.00  0.00    -0.828 OA
ENDROOT
BRANCH   5  10
ATOM     10  N   UNL     1       3.692   4.513 -22.954  0.00  0.00    -0.344 N 
ATOM     11  H   UNL     1       3.566   5.478 -22.806  0.00  0.00    +0.146 HD
BRANCH  10  12
ATOM     12  C   UNL     1       4.879   4.044 -23.200  0.00  0.00    +0.106 C 
BRANCH  12  13
ATOM     13  C   UNL     1       5.904   4.843 -23.211  0.00  0.00    +0.054 C 
BRANCH  13  14
ATOM     14  C   UNL     1       6.421   5.253 -22.091  0.00  0.00    -0.046 A 
ATOM     15  C   UNL     1       6.281   6.494 -21.727  0.00  0.00    +0.004 A 
ATOM     16  C   UNL     1       6.798   6.903 -20.606  0.00  0.00    +0.000 A 
ATOM     17  C   UNL     1       7.453   6.074 -19.850  0.00  0.00    +0.000 A 
ATOM     18  C   UNL     1       7.593   4.834 -20.215  0.00  0.00    +0.000 A 
ATOM     19  C   UNL     1       7.077   4.423 -21.335  0.00  0.00    +0.004 A 
ENDBRANCH  13  14
ENDBRANCH  12  13
ENDBRANCH  10  12
ENDBRANCH   5  10
BRANCH   1  20
ATOM     20  C   UNL     1      -0.687   3.720 -23.643  0.00  0.00    +0.038 C 
BRANCH  20  21
ATOM     21  C   UNL     1      -0.997   3.682 -24.905  0.00  0.00    +0.005 C 
BRANCH  21  22
ATOM     22  C   UNL     1      -2.210   3.382 -25.267  0.00  0.00    +0.000 C 
BRANCH  22  23
ATOM     23  C   UNL     1      -3.169   4.244 -25.106  0.00  0.00    +0.000 C 
BRANCH  23  24
ATOM     24  C   UNL     1      -4.391   3.834 -24.943  0.00  0.00    +0.000 C 
BRANCH  24  25
ATOM     25  C   UNL     1      -5.083   4.243 -23.922  0.00  0.00    +0.000 C 
BRANCH  25  26
ATOM     26  C   UNL     1      -5.524   3.385 -23.049  0.00  0.00    -0.000 C 
BRANCH  26  27
ATOM     27  C   UNL     1      -5.123   3.450 -21.815  0.00  0.00    -0.000 C 
BRANCH  27  28
ATOM     28  C   UNL     1      -4.317   2.545 -21.345  0.00  0.00    -0.000 C 
BRANCH  28  30
ATOM     29  C   UNL     1      -2.847   4.065 -20.569  0.00  0.00    +0.004 C 
ATOM     30  C   UNL     1      -3.103   2.868 -21.006  0.00  0.00    -0.003 C 
ENDBRANCH  28  30
ENDBRANCH  27  28
ENDBRANCH  26  27
ENDBRANCH  25  26
ENDBRANCH  24  25
ENDBRANCH  23  24
ENDBRANCH  22  23
ENDBRANCH  21  22
ENDBRANCH  20  21
ENDBRANCH   1  20
TORSDOF 14
ENDMDL
MODEL 4
REMARK VINA RESULT:    -8.219      1.761      3.552
REMARK INTER + INTRA:         -16.696
REMARK INTER:                 -14.018
REMARK INTRA:                  -2.678
REMARK UNBOUND:                -1.751
REMARK  Name = CCCCCCCCCCCC1=C(O)C(=O)C=C(NCCc2ccccc2)C1=O                          ZINC000100393410
REMARK  15 active torsions:
REMARK  status: ('A' for Active; 'I' for Inactive)
REMARK    1  A    between atoms: C_1  and  C_2
REMARK    2  A    between atoms: C_2  and  C_3
REMARK    3  A    between atoms: C_3  and  C_4
REMARK    4  A    between atoms: C_4  and  C_5
REMARK    5  A    between atoms: C_5  and  C_6
REMARK    6  A    between atoms: C_6  and  C_7
REMARK    7  A    between atoms: C_7  and  C_8
REMARK    8  A    between atoms: C_8  and  C_9
REMARK    9  A    between atoms: C_9  and  C_10
REMARK   10  A    between atoms: C_10  and  C_11
REMARK   11  A    between atoms: C_11  and  C_12
REMARK   12  A    between atoms: C_18  and  N_19
REMARK   13  A    between atoms: N_19  and  C_20
REMARK   14  A    between atoms: C_20  and  C_21
REMARK   15  A    between atoms: C_21  and  C_22
REMARK                            x       y       z     vdW  Elec       q    Type
REMARK                         _______ _______ _______ _____ _____    ______ ____
ROOT
ATOM      1  C   UNL     1       3.615   4.126 -23.541  0.00  0.00    -0.008 C 
ATOM      2  C   UNL     1       3.366   3.050 -24.228  0.00  0.00    +0.228 C 
ATOM      3  C   UNL     1       2.158   2.806 -24.639  0.00  0.00    +0.227 C 
ATOM      4  C   UNL     1       1.198   3.638 -24.365  0.00  0.00    +0.076 C 
ATOM      5  C   UNL     1       1.446   4.714 -23.678  0.00  0.00    +0.018 C 
ATOM      6  O   UNL     1       1.910   1.731 -25.326  0.00  0.00    -0.284 OA
ATOM      7  O   UNL     1       4.327   2.218 -24.502  0.00  0.00    -0.284 OA
ATOM      8  C   UNL     1       2.654   4.958 -23.266  0.00  0.00    -0.112 C 
ATOM      9  O   UNL     1       2.902   6.034 -22.580  0.00  0.00    -0.828 OA
ENDROOT
BRANCH   5  10
ATOM     10  N   UNL     1       0.486   5.546 -23.403  0.00  0.00    -0.344 N 
ATOM     11  H   UNL     1       0.677   6.506 -23.311  0.00  0.00    +0.146 HD
BRANCH  10  12
ATOM     12  C   UNL     1      -0.730   5.109 -23.251  0.00  0.00    +0.106 C 
BRANCH  12  13
ATOM     13  C   UNL     1      -1.252   5.042 -22.062  0.00  0.00    +0.054 C 
BRANCH  13  14
ATOM     14  C   UNL     1      -2.269   4.263 -21.843  0.00  0.00    -0.046 A 
ATOM     15  C   UNL     1      -2.942   3.773 -22.843  0.00  0.00    +0.004 A 
ATOM     16  C   UNL     1      -3.959   2.995 -22.622  0.00  0.00    +0.000 A 
ATOM     17  C   UNL     1      -4.304   2.705 -21.404  0.00  0.00    +0.000 A 
ATOM     18  C   UNL     1      -3.632   3.194 -20.404  0.00  0.00    +0.000 A 
ATOM     19  C   UNL     1      -2.615   3.973 -20.623  0.00  0.00    +0.004 A 
ENDBRANCH  13  14
ENDBRANCH  12  13
ENDBRANCH  10  12
ENDBRANCH   5  10
BRANCH   1  20
ATOM     20  C   UNL     1       4.824   4.370 -23.129  0.00  0.00    +0.038 C 
BRANCH  20  21
ATOM     21  C   UNL     1       5.596   3.390 -22.765  0.00  0.00    +0.005 C 
BRANCH  21  22
ATOM     22  C   UNL     1       5.947   3.269 -21.518  0.00  0.00    +0.000 C 
BRANCH  22  23
ATOM     23  C   UNL     1       5.492   2.280 -20.808  0.00  0.00    +0.000 C 
BRANCH  23  24
ATOM     24  C   UNL     1       5.131   1.175 -21.389  0.00  0.00    +0.000 C 
BRANCH  24  25
ATOM     25  C   UNL     1       4.433   0.295 -20.735  0.00  0.00    +0.000 C 
BRANCH  25  26
ATOM     26  C   UNL     1       3.173   0.511 -20.495  0.00  0.00    -0.000 C 
BRANCH  26  27
ATOM     27  C   UNL     1       2.409   1.000 -21.426  0.00  0.00    -0.000 C 
BRANCH  27  28
ATOM     28  C   UNL     1       1.532   1.914 -21.134  0.00  0.00    -0.000 C 
BRANCH  28  30
ATOM     29  C   UNL     1      -0.383   1.185 -22.067  0.00  0.00    +0.004 C 
ATOM     30  C   UNL     1       0.275   1.598 -21.026  0.00  0.00    -0.003 C 
ENDBRANCH  28  30
ENDBRANCH  27  28
ENDBRANCH  26  27
ENDBRANCH  25  26
ENDBRANCH  24  25
ENDBRANCH  23  24
ENDBRANCH  22  23
ENDBRANCH  21  22
ENDBRANCH  20  21
ENDBRANCH   1  20
TORSDOF 14
ENDMDL
MODEL 5
REMARK VINA RESULT:    -7.983      2.837      5.179
REMARK INTER + INTRA:         -16.267
REMARK INTER:                 -14.160
REMARK INTRA:                  -2.107
REMARK UNBOUND:                -1.751
REMARK  Name = CCCCCCCCCCCC1=C(O)C(=O)C=C(NCCc2ccccc2)C1=O                          ZINC000100393410
REMARK  15 active torsions:
REMARK  status: ('A' for Active; 'I' for Inactive)
REMARK    1  A    between atoms: C_1  and  C_2
REMARK    2  A    between atoms: C_2  and  C_3
REMARK    3  A    between atoms: C_3  and  C_4
REMARK    4  A    between atoms: C_4  and  C_5
REMARK    5  A    between atoms: C_5  and  C_6
REMARK    6  A    between atoms: C_6  and  C_7
REMARK    7  A    between atoms: C_7  and  C_8
REMARK    8  A    between atoms: C_8  and  C_9
REMARK    9  A    between atoms: C_9  and  C_10
REMARK   10  A    between atoms: C_10  and  C_11
REMARK   11  A    between atoms: C_11  and  C_12
REMARK   12  A    between atoms: C_18  and  N_19
REMARK   13  A    between atoms: N_19  and  C_20
REMARK   14  A    between atoms: C_20  and  C_21
REMARK   15  A    between atoms: C_21  and  C_22
REMARK                            x       y       z     vdW  Elec       q    Type
REMARK                         _______ _______ _______ _____ _____    ______ ____
ROOT
ATOM      1  C   UNL     1       2.798   2.795 -23.194  0.00  0.00    -0.008 C 
ATOM      2  C   UNL     1       2.561   2.249 -22.039  0.00  0.00    +0.228 C 
ATOM      3  C   UNL     1       1.360   1.853 -21.740  0.00  0.00    +0.227 C 
ATOM      4  C   UNL     1       0.395   2.002 -22.598  0.00  0.00    +0.076 C 
ATOM      5  C   UNL     1       0.631   2.547 -23.754  0.00  0.00    +0.018 C 
ATOM      6  O   UNL     1       1.124   1.308 -20.584  0.00  0.00    -0.284 OA
ATOM      7  O   UNL     1       3.528   2.101 -21.181  0.00  0.00    -0.284 OA
ATOM      8  C   UNL     1       1.832   2.944 -24.052  0.00  0.00    -0.112 C 
ATOM      9  O   UNL     1       2.068   3.489 -25.209  0.00  0.00    -0.828 OA
ENDROOT
BRANCH   5  10
ATOM     10  N   UNL     1      -0.334   2.696 -24.612  0.00  0.00    -0.344 N 
ATOM     11  H   UNL     1      -0.372   2.129 -25.414  0.00  0.00    +0.146 HD
BRANCH  10  12
ATOM     12  C   UNL     1      -1.251   3.597 -24.410  0.00  0.00    +0.106 C 
BRANCH  12  13
ATOM     13  C   UNL     1      -2.474   3.376 -24.790  0.00  0.00    +0.054 C 
BRANCH  13  14
ATOM     14  C   UNL     1      -3.435   3.371 -23.915  0.00  0.00    -0.046 A 
ATOM     15  C   UNL     1      -4.628   3.762 -24.257  0.00  0.00    +0.004 A 
ATOM     16  C   UNL     1      -5.588   3.757 -23.381  0.00  0.00    +0.000 A 
ATOM     17  C   UNL     1      -5.359   3.362 -22.165  0.00  0.00    +0.000 A 
ATOM     18  C   UNL     1      -4.167   2.972 -21.823  0.00  0.00    +0.000 A 
ATOM     19  C   UNL     1      -3.205   2.976 -22.698  0.00  0.00    +0.004 A 
ENDBRANCH  13  14
ENDBRANCH  12  13
ENDBRANCH  10  12
ENDBRANCH   5  10
BRANCH   1  20
ATOM     20  C   UNL     1       4.000   3.192 -23.493  0.00  0.00    +0.038 C 
BRANCH  20  21
ATOM     21  C   UNL     1       4.409   4.366 -23.115  0.00  0.00    +0.005 C 
BRANCH  21  22
ATOM     22  C   UNL     1       5.681   4.595 -22.970  0.00  0.00    +0.000 C 
BRANCH  22  23
ATOM     23  C   UNL     1       6.421   3.755 -22.310  0.00  0.00    +0.000 C 
BRANCH  23  24
ATOM     24  C   UNL     1       6.666   3.956 -21.050  0.00  0.00    +0.000 C 
BRANCH  24  25
ATOM     25  C   UNL     1       7.539   4.850 -20.691  0.00  0.00    +0.000 C 
BRANCH  25  26
ATOM     26  C   UNL     1       7.157   5.910 -20.042  0.00  0.00    -0.000 C 
BRANCH  26  27
ATOM     27  C   UNL     1       7.536   7.088 -20.440  0.00  0.00    -0.000 C 
BRANCH  27  28
ATOM     28  C   UNL     1       6.721   7.835 -21.123  0.00  0.00    -0.000 C 
BRANCH  28  30
ATOM     29  C   UNL     1       4.553   7.851 -21.733  0.00  0.00    +0.004 C 
ATOM     30  C   UNL     1       5.461   7.885 -20.804  0.00  0.00    -0.003 C 
ENDBRANCH  28  30
ENDBRANCH  27  28
ENDBRANCH  26  27
ENDBRANCH  25  26
ENDBRANCH  24  25
ENDBRANCH  23  24
ENDBRANCH  22  23
ENDBRANCH  21  22
ENDBRANCH  20  21
ENDBRANCH   1  20
TORSDOF 14
ENDMDL
MODEL 6
REMARK VINA RESULT:    -7.975      1.246      5.156
REMARK INTER + INTRA:         -16.252
REMARK INTER:                 -14.616
REMARK INTRA:                  -1.636
REMARK UNBOUND:                -1.751
REMARK  Name = CCCCCCCCCCCC1=C(O)C(=O)C=C(NCCc2ccccc2)C1=O                          ZINC000100393410
REMARK  15 active torsions:
REMARK  status: ('A' for Active; 'I' for Inactive)
REMARK    1  A    between atoms: C_1  and  C_2
REMARK    2  A    between atoms: C_2  and  C_3
REMARK    3  A    between atoms: C_3  and  C_4
REMARK    4  A    between atoms: C_4  and  C_5
REMARK    5  A    between atoms: C_5  and  C_6
REMARK    6  A    between atoms: C_6  and  C_7
REMARK    7  A    between atoms: C_7  and  C_8
REMARK    8  A    between atoms: C_8  and  C_9
REMARK    9  A    between atoms: C_9  and  C_10
REMARK   10  A    between atoms: C_10  and  C_11
REMARK   11  A    between atoms: C_11  and  C_12
REMARK   12  A    between atoms: C_18  and  N_19
REMARK   13  A    between atoms: N_19  and  C_20
REMARK   14  A    between atoms: C_20  and  C_21
REMARK   15  A    between atoms: C_21  and  C_22
REMARK                            x       y       z     vdW  Elec       q    Type
REMARK                         _______ _______ _______ _____ _____    ______ ____
ROOT
ATOM      1  C   UNL     1       1.476   3.891 -24.577  0.00  0.00    -0.008 C 
ATOM      2  C   UNL     1       1.736   4.933 -23.845  0.00  0.00    +0.228 C 
ATOM      3  C   UNL     1       2.847   4.997 -23.175  0.00  0.00    +0.227 C 
ATOM      4  C   UNL     1       3.700   4.018 -23.237  0.00  0.00    +0.076 C 
ATOM      5  C   UNL     1       3.442   2.976 -23.969  0.00  0.00    +0.018 C 
ATOM      6  O   UNL     1       3.106   6.040 -22.443  0.00  0.00    -0.284 OA
ATOM      7  O   UNL     1       0.882   5.913 -23.784  0.00  0.00    -0.284 OA
ATOM      8  C   UNL     1       2.330   2.912 -24.639  0.00  0.00    -0.112 C 
ATOM      9  O   UNL     1       2.071   1.869 -25.371  0.00  0.00    -0.828 OA
ENDROOT
BRANCH   5  10
ATOM     10  N   UNL     1       4.295   1.997 -24.030  0.00  0.00    -0.344 N 
ATOM     11  H   UNL     1       4.765   1.806 -24.873  0.00  0.00    +0.146 HD
BRANCH  10  12
ATOM     12  C   UNL     1       4.526   1.269 -22.978  0.00  0.00    +0.106 C 
BRANCH  12  13
ATOM     13  C   UNL     1       3.638   0.410 -22.573  0.00  0.00    +0.054 C 
BRANCH  13  14
ATOM     14  C   UNL     1       2.587   0.819 -21.927  0.00  0.00    -0.046 A 
ATOM     15  C   UNL     1       2.710   1.305 -20.726  0.00  0.00    +0.004 A 
ATOM     16  C   UNL     1       1.658   1.713 -20.081  0.00  0.00    +0.000 A 
ATOM     17  C   UNL     1       0.485   1.636 -20.633  0.00  0.00    +0.000 A 
ATOM     18  C   UNL     1       0.362   1.151 -21.833  0.00  0.00    +0.000 A 
ATOM     19  C   UNL     1       1.413   0.742 -22.480  0.00  0.00    +0.004 A 
ENDBRANCH  13  14
ENDBRANCH  12  13
ENDBRANCH  10  12
ENDBRANCH   5  10
BRANCH   1  20
ATOM     20  C   UNL     1       0.365   3.827 -25.248  0.00  0.00    +0.038 C 
BRANCH  20  21
ATOM     21  C   UNL     1      -0.692   3.301 -24.704  0.00  0.00    +0.005 C 
BRANCH  21  22
ATOM     22  C   UNL     1      -1.837   3.914 -24.782  0.00  0.00    +0.000 C 
BRANCH  22  23
ATOM     23  C   UNL     1      -2.824   3.368 -25.428  0.00  0.00    +0.000 C 
BRANCH  23  24
ATOM     24  C   UNL     1      -3.930   4.027 -25.602  0.00  0.00    +0.000 C 
BRANCH  24  25
ATOM     25  C   UNL     1      -4.959   3.779 -24.848  0.00  0.00    +0.000 C 
BRANCH  25  26
ATOM     26  C   UNL     1      -4.942   4.120 -23.593  0.00  0.00    -0.000 C 
BRANCH  26  27
ATOM     27  C   UNL     1      -5.546   3.381 -22.710  0.00  0.00    -0.000 C 
BRANCH  27  28
ATOM     28  C   UNL     1      -4.909   2.987 -21.648  0.00  0.00    -0.000 C 
BRANCH  28  30
ATOM     29  C   UNL     1      -3.018   3.577 -20.576  0.00  0.00    +0.004 C 
ATOM     30  C   UNL     1      -3.611   3.051 -21.606  0.00  0.00    -0.003 C 
ENDBRANCH  28  30
ENDBRANCH  27  28
ENDBRANCH  26  27
ENDBRANCH  25  26
ENDBRANCH  24  25
ENDBRANCH  23  24
ENDBRANCH  22  23
ENDBRANCH  21  22
ENDBRANCH  20  21
ENDBRANCH   1  20
TORSDOF 14
ENDMDL
MODEL 7
REMARK VINA RESULT:    -7.605      1.405      4.934
REMARK INTER + INTRA:         -15.580
REMARK INTER:                 -13.829
REMARK INTRA:                  -1.751
REMARK UNBOUND:                -1.751
REMARK  Name = CCCCCCCCCCCC1=C(O)C(=O)C=C(NCCc2ccccc2)C1=O                          ZINC000100393410
REMARK  15 active torsions:
REMARK  status: ('A' for Active; 'I' for Inactive)
REMARK    1  A    between atoms: C_1  and  C_2
REMARK    2  A    between atoms: C_2  and  C_3
REMARK    3  A    between atoms: C_3  and  C_4
REMARK    4  A    between atoms: C_4  and  C_5
REMARK    5  A    between atoms: C_5  and  C_6
REMARK    6  A    between atoms: C_6  and  C_7
REMARK    7  A    between atoms: C_7  and  C_8
REMARK    8  A    between atoms: C_8  and  C_9
REMARK    9  A    between atoms: C_9  and  C_10
REMARK   10  A    between atoms: C_10  and  C_11
REMARK   11  A    between atoms: C_11  and  C_12
REMARK   12  A    between atoms: C_18  and  N_19
REMARK   13  A    between atoms: N_19  and  C_20
REMARK   14  A    between atoms: C_20  and  C_21
REMARK   15  A    between atoms: C_21  and  C_22
REMARK                            x       y       z     vdW  Elec       q    Type
REMARK                         _______ _______ _______ _____ _____    ______ ____
ROOT
ATOM      1  C   UNL     1       2.316   4.732 -23.670  0.00  0.00    -0.008 C 
ATOM      2  C   UNL     1       3.279   5.307 -23.012  0.00  0.00    +0.228 C 
ATOM      3  C   UNL     1       4.425   4.707 -22.879  0.00  0.00    +0.227 C 
ATOM      4  C   UNL     1       4.608   3.533 -23.405  0.00  0.00    +0.076 C 
ATOM      5  C   UNL     1       3.646   2.957 -24.063  0.00  0.00    +0.018 C 
ATOM      6  O   UNL     1       5.387   5.282 -22.221  0.00  0.00    -0.284 OA
ATOM      7  O   UNL     1       3.095   6.482 -22.487  0.00  0.00    -0.284 OA
ATOM      8  C   UNL     1       2.500   3.557 -24.196  0.00  0.00    -0.112 C 
ATOM      9  O   UNL     1       1.538   2.982 -24.854  0.00  0.00    -0.828 OA
ENDROOT
BRANCH   5  10
ATOM     10  N   UNL     1       3.829   1.783 -24.588  0.00  0.00    -0.344 N 
ATOM     11  H   UNL     1       3.948   1.691 -25.561  0.00  0.00    +0.146 HD
BRANCH  10  12
ATOM     12  C   UNL     1       3.854   0.727 -23.829  0.00  0.00    +0.106 C 
BRANCH  12  13
ATOM     13  C   UNL     1       2.746   0.244 -23.351  0.00  0.00    +0.054 C 
BRANCH  13  14
ATOM     14  C   UNL     1       2.246   0.728 -22.253  0.00  0.00    -0.046 A 
ATOM     15  C   UNL     1       0.982   1.029 -22.191  0.00  0.00    +0.004 A 
ATOM     16  C   UNL     1       0.483   1.513 -21.093  0.00  0.00    +0.000 A 
ATOM     17  C   UNL     1       1.246   1.697 -20.057  0.00  0.00    +0.000 A 
ATOM     18  C   UNL     1       2.509   1.396 -20.119  0.00  0.00    +0.000 A 
ATOM     19  C   UNL     1       3.010   0.912 -21.216  0.00  0.00    +0.004 A 
ENDBRANCH  13  14
ENDBRANCH  12  13
ENDBRANCH  10  12
ENDBRANCH   5  10
BRANCH   1  20
ATOM     20  C   UNL     1       1.171   5.332 -23.803  0.00  0.00    +0.038 C 
BRANCH  20  21
ATOM     21  C   UNL     1       0.067   4.652 -23.710  0.00  0.00    +0.005 C 
BRANCH  21  22
ATOM     22  C   UNL     1      -0.794   4.936 -22.777  0.00  0.00    +0.000 C 
BRANCH  22  23
ATOM     23  C   UNL     1      -1.678   4.053 -22.419  0.00  0.00    +0.000 C 
BRANCH  23  24
ATOM     24  C   UNL     1      -2.214   4.113 -21.236  0.00  0.00    +0.000 C 
BRANCH  24  25
ATOM     25  C   UNL     1      -3.468   3.811 -21.075  0.00  0.00    +0.000 C 
BRANCH  25  26
ATOM     26  C   UNL     1      -4.045   2.976 -21.887  0.00  0.00    -0.000 C 
BRANCH  26  27
ATOM     27  C   UNL     1      -5.182   3.284 -22.437  0.00  0.00    -0.000 C 
BRANCH  27  28
ATOM     28  C   UNL     1      -5.208   4.016 -23.511  0.00  0.00    -0.000 C 
BRANCH  28  30
ATOM     29  C   UNL     1      -3.937   4.420 -25.326  0.00  0.00    +0.004 C 
ATOM     30  C   UNL     1      -4.630   3.596 -24.597  0.00  0.00    -0.003 C 
ENDBRANCH  28  30
ENDBRANCH  27  28
ENDBRANCH  26  27
ENDBRANCH  25  26
ENDBRANCH  24  25
ENDBRANCH  23  24
ENDBRANCH  22  23
ENDBRANCH  21  22
ENDBRANCH  20  21
ENDBRANCH   1  20
TORSDOF 14
ENDMDL
MODEL 8
REMARK VINA RESULT:    -7.380      2.892      5.423
REMARK INTER + INTRA:         -15.170
REMARK INTER:                 -13.519
REMARK INTRA:                  -1.652
REMARK UNBOUND:                -1.751
REMARK  Name = CCCCCCCCCCCC1=C(O)C(=O)C=C(NCCc2ccccc2)C1=O                          ZINC000100393410
REMARK  15 active torsions:
REMARK  status: ('A' for Active; 'I' for Inactive)
REMARK    1  A    between atoms: C_1  and  C_2
REMARK    2  A    between atoms: C_2  and  C_3
REMARK    3  A    between atoms: C_3  and  C_4
REMARK    4  A    between atoms: C_4  and  C_5
REMARK    5  A    between atoms: C_5  and  C_6
REMARK    6  A    between atoms: C_6  and  C_7
REMARK    7  A    between atoms: C_7  and  C_8
REMARK    8  A    between atoms: C_8  and  C_9
REMARK    9  A    between atoms: C_9  and  C_10
REMARK   10  A    between atoms: C_10  and  C_11
REMARK   11  A    between atoms: C_11  and  C_12
REMARK   12  A    between atoms: C_18  and  N_19
REMARK   13  A    between atoms: N_19  and  C_20
REMARK   14  A    between atoms: C_20  and  C_21
REMARK   15  A    between atoms: C_21  and  C_22
REMARK                            x       y       z     vdW  Elec       q    Type
REMARK                         _______ _______ _______ _____ _____    ______ ____
ROOT
ATOM      1  C   UNL     1       2.886   1.660 -22.496  0.00  0.00    -0.008 C 
ATOM      2  C   UNL     1       2.729   2.077 -23.718  0.00  0.00    +0.228 C 
ATOM      3  C   UNL     1       1.554   2.447 -24.134  0.00  0.00    +0.227 C 
ATOM      4  C   UNL     1       0.536   2.401 -23.328  0.00  0.00    +0.076 C 
ATOM      5  C   UNL     1       0.691   1.984 -22.106  0.00  0.00    +0.018 C 
ATOM      6  O   UNL     1       1.399   2.863 -25.355  0.00  0.00    -0.284 OA
ATOM      7  O   UNL     1       3.749   2.123 -24.524  0.00  0.00    -0.284 OA
ATOM      8  C   UNL     1       1.866   1.614 -21.690  0.00  0.00    -0.112 C 
ATOM      9  O   UNL     1       2.021   1.198 -20.469  0.00  0.00    -0.828 OA
ENDROOT
BRANCH   5  10
ATOM     10  N   UNL     1      -0.327   1.938 -21.300  0.00  0.00    -0.344 N 
ATOM     11  H   UNL     1      -0.187   1.961 -20.327  0.00  0.00    +0.146 HD
BRANCH  10  12
ATOM     12  C   UNL     1      -1.534   1.862 -21.780  0.00  0.00    +0.106 C 
BRANCH  12  13
ATOM     13  C   UNL     1      -2.461   2.657 -21.337  0.00  0.00    +0.054 C 
BRANCH  13  14
ATOM     14  C   UNL     1      -3.416   3.046 -22.129  0.00  0.00    -0.046 A 
ATOM     15  C   UNL     1      -4.642   3.088 -21.697  0.00  0.00    +0.004 A 
ATOM     16  C   UNL     1      -5.596   3.477 -22.490  0.00  0.00    +0.000 A 
ATOM     17  C   UNL     1      -5.326   3.824 -23.712  0.00  0.00    +0.000 A 
ATOM     18  C   UNL     1      -4.101   3.782 -24.144  0.00  0.00    +0.000 A 
ATOM     19  C   UNL     1      -3.145   3.393 -23.353  0.00  0.00    +0.004 A 
ENDBRANCH  13  14
ENDBRANCH  12  13
ENDBRANCH  10  12
ENDBRANCH   5  10
BRANCH   1  20
ATOM     20  C   UNL     1       4.060   1.290 -22.080  0.00  0.00    +0.038 C 
BRANCH  20  21
ATOM     21  C   UNL     1       4.749   2.070 -21.302  0.00  0.00    +0.005 C 
BRANCH  21  22
ATOM     22  C   UNL     1       5.914   2.505 -21.683  0.00  0.00    +0.000 C 
BRANCH  22  23
ATOM     23  C   UNL     1       6.024   3.684 -22.220  0.00  0.00    +0.000 C 
BRANCH  23  24
ATOM     24  C   UNL     1       7.166   4.303 -22.200  0.00  0.00    +0.000 C 
BRANCH  24  25
ATOM     25  C   UNL     1       7.663   4.712 -21.071  0.00  0.00    +0.000 C 
BRANCH  25  26
ATOM     26  C   UNL     1       7.097   5.690 -20.427  0.00  0.00    -0.000 C 
BRANCH  26  27
ATOM     27  C   UNL     1       7.424   6.919 -20.694  0.00  0.00    -0.000 C 
BRANCH  27  28
ATOM     28  C   UNL     1       6.529   7.859 -20.627  0.00  0.00    -0.000 C 
BRANCH  28  30
ATOM     29  C   UNL     1       4.342   8.348 -20.848  0.00  0.00    +0.004 C 
ATOM     30  C   UNL     1       5.406   7.735 -21.272  0.00  0.00    -0.003 C 
ENDBRANCH  28  30
ENDBRANCH  27  28
ENDBRANCH  26  27
ENDBRANCH  25  26
ENDBRANCH  24  25
ENDBRANCH  23  24
ENDBRANCH  22  23
ENDBRANCH  21  22
ENDBRANCH  20  21
ENDBRANCH   1  20
TORSDOF 14
ENDMDL
MODEL 9
REMARK VINA RESULT:    -7.363      2.120      4.941
REMARK INTER + INTRA:         -15.139
REMARK INTER:                 -13.372
REMARK INTRA:                  -1.767
REMARK UNBOUND:                -1.751
REMARK  Name = CCCCCCCCCCCC1=C(O)C(=O)C=C(NCCc2ccccc2)C1=O                          ZINC000100393410
REMARK  15 active torsions:
REMARK  status: ('A' for Active; 'I' for Inactive)
REMARK    1  A    between atoms: C_1  and  C_2
REMARK    2  A    between atoms: C_2  and  C_3
REMARK    3  A    between atoms: C_3  and  C_4
REMARK    4  A    between atoms: C_4  and  C_5
REMARK    5  A    between atoms: C_5  and  C_6
REMARK    6  A    between atoms: C_6  and  C_7
REMARK    7  A    between atoms: C_7  and  C_8
REMARK    8  A    between atoms: C_8  and  C_9
REMARK    9  A    between atoms: C_9  and  C_10
REMARK   10  A    between atoms: C_10  and  C_11
REMARK   11  A    between atoms: C_11  and  C_12
REMARK   12  A    between atoms: C_18  and  N_19
REMARK   13  A    between atoms: N_19  and  C_20
REMARK   14  A    between atoms: C_20  and  C_21
REMARK   15  A    between atoms: C_21  and  C_22
REMARK                            x       y       z     vdW  Elec       q    Type
REMARK                         _______ _______ _______ _____ _____    ______ ____
ROOT
ATOM      1  C   UNL     1       1.102   2.494 -22.720  0.00  0.00    -0.008 C 
ATOM      2  C   UNL     1       1.702   3.594 -23.065  0.00  0.00    +0.228 C 
ATOM      3  C   UNL     1       1.143   4.400 -23.918  0.00  0.00    +0.227 C 
ATOM      4  C   UNL     1      -0.017   4.106 -24.426  0.00  0.00    +0.076 C 
ATOM      5  C   UNL     1      -0.618   3.006 -24.081  0.00  0.00    +0.018 C 
ATOM      6  O   UNL     1       1.744   5.500 -24.263  0.00  0.00    -0.284 OA
ATOM      7  O   UNL     1       2.862   3.888 -22.557  0.00  0.00    -0.284 OA
ATOM      8  C   UNL     1      -0.059   2.200 -23.228  0.00  0.00    -0.112 C 
ATOM      9  O   UNL     1      -0.660   1.100 -22.883  0.00  0.00    -0.828 OA
ENDROOT
BRANCH   5  10
ATOM     10  N   UNL     1      -1.778   2.712 -24.589  0.00  0.00    -0.344 N 
ATOM     11  H   UNL     1      -1.932   1.823 -24.982  0.00  0.00    +0.146 HD
BRANCH  10  12
ATOM     12  C   UNL     1      -2.735   3.592 -24.577  0.00  0.00    +0.106 C 
BRANCH  12  13
ATOM     13  C   UNL     1      -3.771   3.416 -23.814  0.00  0.00    +0.054 C 
BRANCH  13  14
ATOM     14  C   UNL     1      -3.631   3.397 -22.522  0.00  0.00    -0.046 A 
ATOM     15  C   UNL     1      -2.855   4.264 -21.939  0.00  0.00    +0.004 A 
ATOM     16  C   UNL     1      -2.715   4.245 -20.647  0.00  0.00    +0.000 A 
ATOM     17  C   UNL     1      -3.349   3.361 -19.937  0.00  0.00    +0.000 A 
ATOM     18  C   UNL     1      -4.125   2.495 -20.518  0.00  0.00    +0.000 A 
ATOM     19  C   UNL     1      -4.266   2.512 -21.811  0.00  0.00    +0.004 A 
ENDBRANCH  13  14
ENDBRANCH  12  13
ENDBRANCH  10  12
ENDBRANCH   5  10
BRANCH   1  20
ATOM     20  C   UNL     1       1.660   1.688 -21.867  0.00  0.00    +0.038 C 
BRANCH  20  21
ATOM     21  C   UNL     1       2.460   0.752 -22.285  0.00  0.00    +0.005 C 
BRANCH  21  22
ATOM     22  C   UNL     1       3.446   0.356 -21.535  0.00  0.00    +0.000 C 
BRANCH  22  23
ATOM     23  C   UNL     1       4.652   0.782 -21.769  0.00  0.00    +0.000 C 
BRANCH  23  24
ATOM     24  C   UNL     1       5.288   1.462 -20.863  0.00  0.00    +0.000 C 
BRANCH  24  25
ATOM     25  C   UNL     1       5.749   2.645 -21.143  0.00  0.00    +0.000 C 
BRANCH  25  26
ATOM     26  C   UNL     1       6.226   2.893 -22.328  0.00  0.00    -0.000 C 
BRANCH  26  27
ATOM     27  C   UNL     1       6.336   4.121 -22.740  0.00  0.00    -0.000 C 
BRANCH  27  28
ATOM     28  C   UNL     1       6.575   5.073 -21.888  0.00  0.00    -0.000 C 
BRANCH  28  30
ATOM     29  C   UNL     1       6.315   7.217 -21.250  0.00  0.00    +0.004 C 
ATOM     30  C   UNL     1       6.221   6.294 -22.160  0.00  0.00    -0.003 C 
ENDBRANCH  28  30
ENDBRANCH  27  28
ENDBRANCH  26  27
ENDBRANCH  25  26
ENDBRANCH  24  25
ENDBRANCH  23  24
ENDBRANCH  22  23
ENDBRANCH  21  22
ENDBRANCH  20  21
ENDBRANCH   1  20
TORSDOF 14
ENDMDL
