MODEL 1
REMARK VINA RESULT:    -9.776      0.000      0.000
REMARK INTER + INTRA:         -11.369
REMARK INTER:                 -11.679
REMARK INTRA:                   0.310
REMARK UNBOUND:                 1.549
REMARK  Name = ZINC000006017650
REMARK  10 active torsions:
REMARK  status: ('A' for Active; 'I' for Inactive)
REMARK    1  A    between atoms: C_1  and  O_2
REMARK    2  A    between atoms: O_2  and  C_3
REMARK    3  A    between atoms: C_7  and  C_8
REMARK    4  A    between atoms: C_11  and  O_12
REMARK    5  A    between atoms: C_13  and  O_14
REMARK    6  A    between atoms: C_16  and  O_17
REMARK    7  A    between atoms: O_17  and  C_18
REMARK    8  A    between atoms: C_22  and  O_23
REMARK    9  A    between atoms: C_24  and  O_25
REMARK   10  A    between atoms: O_25  and  C_26
REMARK                            x       y       z     vdW  Elec       q    Type
REMARK                         _______ _______ _______ _____ _____    ______ ____
ROOT
ATOM      1  C   UNL     1      -2.422   3.582 -23.127  0.00  0.00    +0.169 A 
ATOM      2  C   UNL     1      -1.434   3.190 -22.379  0.00  0.00    +0.096 A 
ATOM      3  C   UNL     1      -0.281   2.917 -22.915  0.00  0.00    +0.147 A 
ATOM      4  O   UNL     1       0.707   2.525 -22.168  0.00  0.00    -0.451 OA
ATOM      5  C   UNL     1       1.860   2.252 -22.704  0.00  0.00    +0.181 A 
ATOM      6  C   UNL     1       2.024   2.372 -23.988  0.00  0.00    +0.211 A 
ATOM      7  C   UNL     1       1.035   2.764 -24.736  0.00  0.00    +0.238 A 
ATOM      8  O   UNL     1       1.199   2.883 -26.020  0.00  0.00    -0.283 OA
ATOM      9  C   UNL     1      -0.118   3.037 -24.200  0.00  0.00    +0.113 A 
ATOM     10  C   UNL     1      -1.106   3.429 -24.947  0.00  0.00    +0.177 A 
ATOM     11  C   UNL     1      -2.258   3.701 -24.411  0.00  0.00    +0.204 A 
ENDROOT
BRANCH   5  12
ATOM     12  C   UNL     1       2.848   1.860 -21.956  0.00  0.00    +0.025 A 
ATOM     13  C   UNL     1       2.836   0.669 -21.434  0.00  0.00    +0.015 A 
ATOM     14  C   UNL     1       3.824   0.277 -20.686  0.00  0.00    +0.050 A 
ATOM     15  C   UNL     1       4.825   1.077 -20.460  0.00  0.00    +0.158 A 
ATOM     16  C   UNL     1       4.837   2.267 -20.982  0.00  0.00    +0.159 A 
ATOM     17  C   UNL     1       3.848   2.658 -21.730  0.00  0.00    +0.060 A 
BRANCH  16  18
ATOM     18  O   UNL     1       5.837   3.066 -20.756  0.00  0.00    -0.503 OA
ATOM     19  H   UNL     1       6.715   2.739 -20.792  0.00  0.00    +0.292 HD
ENDBRANCH  16  18
BRANCH  15  20
ATOM     20  O   UNL     1       5.813   0.684 -19.712  0.00  0.00    -0.503 OA
ATOM     21  H   UNL     1       6.448   1.305 -19.412  0.00  0.00    +0.292 HD
ENDBRANCH  15  20
ENDBRANCH   5  12
BRANCH   6  22
ATOM     22  O   UNL     1       3.176   2.099 -24.525  0.00  0.00    -0.488 OA
ATOM     23  C   UNL     1       3.441   0.887 -24.911  0.00  0.00    +0.277 C 
ENDBRANCH   6  22
BRANCH   1  25
ATOM     24  C   UNL     1      -4.189   2.958 -21.878  0.00  0.00    +0.277 C 
ATOM     25  O   UNL     1      -3.575   3.855 -22.591  0.00  0.00    -0.491 OA
ENDBRANCH   1  25
BRANCH  10  26
ATOM     26  O   UNL     1      -0.942   3.548 -26.231  0.00  0.00    -0.503 OA
ATOM     27  H   UNL     1      -0.684   4.372 -26.596  0.00  0.00    +0.292 HD
ENDBRANCH  10  26
BRANCH  11  28
ATOM     28  O   UNL     1      -3.247   4.094 -25.159  0.00  0.00    -0.488 OA
ATOM     29  C   UNL     1      -4.006   3.217 -25.745  0.00  0.00    +0.277 C 
ENDBRANCH  11  28
TORSDOF 7
ENDMDL
MODEL 2
REMARK VINA RESULT:    -9.474      1.669      7.388
REMARK INTER + INTRA:         -10.971
REMARK INTER:                 -11.295
REMARK INTRA:                   0.324
REMARK UNBOUND:                 1.549
REMARK  Name = ZINC000006017650
REMARK  10 active torsions:
REMARK  status: ('A' for Active; 'I' for Inactive)
REMARK    1  A    between atoms: C_1  and  O_2
REMARK    2  A    between atoms: O_2  and  C_3
REMARK    3  A    between atoms: C_7  and  C_8
REMARK    4  A    between atoms: C_11  and  O_12
REMARK    5  A    between atoms: C_13  and  O_14
REMARK    6  A    between atoms: C_16  and  O_17
REMARK    7  A    between atoms: O_17  and  C_18
REMARK    8  A    between atoms: C_22  and  O_23
REMARK    9  A    between atoms: C_24  and  O_25
REMARK   10  A    between atoms: O_25  and  C_26
REMARK                            x       y       z     vdW  Elec       q    Type
REMARK                         _______ _______ _______ _____ _____    ______ ____
ROOT
ATOM      1  C   UNL     1       3.692   2.950 -23.122  0.00  0.00    +0.169 A 
ATOM      2  C   UNL     1       2.616   3.334 -23.742  0.00  0.00    +0.096 A 
ATOM      3  C   UNL     1       1.448   2.975 -23.299  0.00  0.00    +0.147 A 
ATOM      4  O   UNL     1       0.372   3.359 -23.919  0.00  0.00    -0.451 OA
ATOM      5  C   UNL     1      -0.797   2.999 -23.476  0.00  0.00    +0.181 A 
ATOM      6  C   UNL     1      -0.889   2.256 -22.414  0.00  0.00    +0.211 A 
ATOM      7  C   UNL     1       0.187   1.872 -21.794  0.00  0.00    +0.238 A 
ATOM      8  O   UNL     1       0.095   1.129 -20.731  0.00  0.00    -0.283 OA
ATOM      9  C   UNL     1       1.356   2.232 -22.237  0.00  0.00    +0.113 A 
ATOM     10  C   UNL     1       2.432   1.848 -21.617  0.00  0.00    +0.177 A 
ATOM     11  C   UNL     1       3.600   2.207 -22.060  0.00  0.00    +0.204 A 
ENDROOT
BRANCH   5  12
ATOM     12  C   UNL     1      -1.873   3.383 -24.096  0.00  0.00    +0.025 A 
ATOM     13  C   UNL     1      -2.349   4.576 -23.895  0.00  0.00    +0.015 A 
ATOM     14  C   UNL     1      -3.425   4.960 -24.515  0.00  0.00    +0.050 A 
ATOM     15  C   UNL     1      -4.026   4.150 -25.337  0.00  0.00    +0.158 A 
ATOM     16  C   UNL     1      -3.550   2.957 -25.538  0.00  0.00    +0.159 A 
ATOM     17  C   UNL     1      -2.474   2.574 -24.917  0.00  0.00    +0.060 A 
BRANCH  16  18
ATOM     18  O   UNL     1      -4.151   2.147 -26.358  0.00  0.00    -0.503 OA
ATOM     19  H   UNL     1      -4.252   1.243 -26.135  0.00  0.00    +0.292 HD
ENDBRANCH  16  18
BRANCH  15  20
ATOM     20  O   UNL     1      -5.102   4.534 -25.957  0.00  0.00    -0.503 OA
ATOM     21  H   UNL     1      -5.120   4.556 -26.893  0.00  0.00    +0.292 HD
ENDBRANCH  15  20
ENDBRANCH   5  12
BRANCH   6  22
ATOM     22  O   UNL     1      -2.057   1.896 -21.970  0.00  0.00    -0.488 OA
ATOM     23  C   UNL     1      -2.644   2.597 -21.047  0.00  0.00    +0.277 C 
ENDBRANCH   6  22
BRANCH   1  25
ATOM     24  C   UNL     1       5.343   4.476 -23.254  0.00  0.00    +0.277 C 
ATOM     25  O   UNL     1       4.860   3.310 -23.565  0.00  0.00    -0.491 OA
ENDBRANCH   1  25
BRANCH  10  26
ATOM     26  O   UNL     1       2.340   1.105 -20.554  0.00  0.00    -0.503 OA
ATOM     27  H   UNL     1       1.519   1.022 -20.110  0.00  0.00    +0.292 HD
ENDBRANCH  10  26
BRANCH  11  28
ATOM     28  O   UNL     1       4.677   1.823 -21.440  0.00  0.00    -0.488 OA
ATOM     29  C   UNL     1       5.265   0.716 -21.783  0.00  0.00    +0.277 C 
ENDBRANCH  11  28
TORSDOF 7
ENDMDL
MODEL 3
REMARK VINA RESULT:    -8.948      1.951      7.205
REMARK INTER + INTRA:         -10.275
REMARK INTER:                 -10.620
REMARK INTRA:                   0.345
REMARK UNBOUND:                 1.549
REMARK  Name = ZINC000006017650
REMARK  10 active torsions:
REMARK  status: ('A' for Active; 'I' for Inactive)
REMARK    1  A    between atoms: C_1  and  O_2
REMARK    2  A    between atoms: O_2  and  C_3
REMARK    3  A    between atoms: C_7  and  C_8
REMARK    4  A    between atoms: C_11  and  O_12
REMARK    5  A    between atoms: C_13  and  O_14
REMARK    6  A    between atoms: C_16  and  O_17
REMARK    7  A    between atoms: O_17  and  C_18
REMARK    8  A    between atoms: C_22  and  O_23
REMARK    9  A    between atoms: C_24  and  O_25
REMARK   10  A    between atoms: O_25  and  C_26
REMARK                            x       y       z     vdW  Elec       q    Type
REMARK                         _______ _______ _______ _____ _____    ______ ____
ROOT
ATOM      1  C   UNL     1       4.859   4.597 -22.873  0.00  0.00    +0.169 A 
ATOM      2  C   UNL     1       3.663   4.889 -23.289  0.00  0.00    +0.096 A 
ATOM      3  C   UNL     1       2.711   4.008 -23.202  0.00  0.00    +0.147 A 
ATOM      4  O   UNL     1       1.515   4.300 -23.617  0.00  0.00    -0.451 OA
ATOM      5  C   UNL     1       0.563   3.419 -23.530  0.00  0.00    +0.181 A 
ATOM      6  C   UNL     1       0.808   2.245 -23.027  0.00  0.00    +0.211 A 
ATOM      7  C   UNL     1       2.004   1.953 -22.611  0.00  0.00    +0.238 A 
ATOM      8  O   UNL     1       2.249   0.780 -22.108  0.00  0.00    -0.283 OA
ATOM      9  C   UNL     1       2.956   2.835 -22.698  0.00  0.00    +0.113 A 
ATOM     10  C   UNL     1       4.153   2.543 -22.283  0.00  0.00    +0.177 A 
ATOM     11  C   UNL     1       5.104   3.424 -22.370  0.00  0.00    +0.204 A 
ENDROOT
BRANCH   5  12
ATOM     12  C   UNL     1      -0.633   3.711 -23.946  0.00  0.00    +0.025 A 
ATOM     13  C   UNL     1      -1.480   4.283 -23.141  0.00  0.00    +0.015 A 
ATOM     14  C   UNL     1      -2.676   4.575 -23.557  0.00  0.00    +0.050 A 
ATOM     15  C   UNL     1      -3.026   4.295 -24.778  0.00  0.00    +0.158 A 
ATOM     16  C   UNL     1      -2.180   3.723 -25.583  0.00  0.00    +0.159 A 
ATOM     17  C   UNL     1      -0.984   3.432 -25.166  0.00  0.00    +0.060 A 
BRANCH  16  18
ATOM     18  O   UNL     1      -2.530   3.444 -26.803  0.00  0.00    -0.503 OA
ATOM     19  H   UNL     1      -3.128   4.003 -27.258  0.00  0.00    +0.292 HD
ENDBRANCH  16  18
BRANCH  15  20
ATOM     20  O   UNL     1      -4.223   4.587 -25.194  0.00  0.00    -0.503 OA
ATOM     21  H   UNL     1      -4.416   5.455 -25.491  0.00  0.00    +0.292 HD
ENDBRANCH  15  20
ENDBRANCH   5  12
BRANCH   6  22
ATOM     22  O   UNL     1      -0.143   1.363 -22.939  0.00  0.00    -0.488 OA
ATOM     23  C   UNL     1      -0.778   1.204 -21.816  0.00  0.00    +0.277 C 
ENDBRANCH   6  22
BRANCH   1  25
ATOM     24  C   UNL     1       5.858   6.470 -22.122  0.00  0.00    +0.277 C 
ATOM     25  O   UNL     1       5.811   5.479 -22.960  0.00  0.00    -0.491 OA
ENDBRANCH   1  25
BRANCH  10  26
ATOM     26  O   UNL     1       4.398   1.369 -21.780  0.00  0.00    -0.503 OA
ATOM     27  H   UNL     1       4.547   1.276 -20.859  0.00  0.00    +0.292 HD
ENDBRANCH  10  26
BRANCH  11  28
ATOM     28  O   UNL     1       6.301   3.132 -21.954  0.00  0.00    -0.488 OA
ATOM     29  C   UNL     1       7.232   2.832 -22.811  0.00  0.00    +0.277 C 
ENDBRANCH  11  28
TORSDOF 7
ENDMDL
MODEL 4
REMARK VINA RESULT:    -8.825      1.928      3.281
REMARK INTER + INTRA:         -10.113
REMARK INTER:                 -10.860
REMARK INTRA:                   0.747
REMARK UNBOUND:                 1.549
REMARK  Name = ZINC000006017650
REMARK  10 active torsions:
REMARK  status: ('A' for Active; 'I' for Inactive)
REMARK    1  A    between atoms: C_1  and  O_2
REMARK    2  A    between atoms: O_2  and  C_3
REMARK    3  A    between atoms: C_7  and  C_8
REMARK    4  A    between atoms: C_11  and  O_12
REMARK    5  A    between atoms: C_13  and  O_14
REMARK    6  A    between atoms: C_16  and  O_17
REMARK    7  A    between atoms: O_17  and  C_18
REMARK    8  A    between atoms: C_22  and  O_23
REMARK    9  A    between atoms: C_24  and  O_25
REMARK   10  A    between atoms: O_25  and  C_26
REMARK                            x       y       z     vdW  Elec       q    Type
REMARK                         _______ _______ _______ _____ _____    ______ ____
ROOT
ATOM      1  C   UNL     1      -2.196   3.906 -23.837  0.00  0.00    +0.169 A 
ATOM      2  C   UNL     1      -0.947   4.196 -24.049  0.00  0.00    +0.096 A 
ATOM      3  C   UNL     1      -0.016   3.588 -23.376  0.00  0.00    +0.147 A 
ATOM      4  O   UNL     1       1.233   3.878 -23.587  0.00  0.00    -0.451 OA
ATOM      5  C   UNL     1       2.165   3.269 -22.914  0.00  0.00    +0.181 A 
ATOM      6  C   UNL     1       1.847   2.372 -22.030  0.00  0.00    +0.211 A 
ATOM      7  C   UNL     1       0.598   2.082 -21.818  0.00  0.00    +0.238 A 
ATOM      8  O   UNL     1       0.279   1.184 -20.933  0.00  0.00    -0.283 OA
ATOM      9  C   UNL     1      -0.334   2.690 -22.491  0.00  0.00    +0.113 A 
ATOM     10  C   UNL     1      -1.583   2.400 -22.279  0.00  0.00    +0.177 A 
ATOM     11  C   UNL     1      -2.514   3.008 -22.952  0.00  0.00    +0.204 A 
ENDROOT
BRANCH   5  12
ATOM     12  C   UNL     1       3.415   3.559 -23.126  0.00  0.00    +0.025 A 
ATOM     13  C   UNL     1       4.195   2.692 -23.699  0.00  0.00    +0.015 A 
ATOM     14  C   UNL     1       5.444   2.982 -23.911  0.00  0.00    +0.050 A 
ATOM     15  C   UNL     1       5.913   4.140 -23.549  0.00  0.00    +0.158 A 
ATOM     16  C   UNL     1       5.133   5.007 -22.976  0.00  0.00    +0.159 A 
ATOM     17  C   UNL     1       3.883   4.716 -22.764  0.00  0.00    +0.060 A 
BRANCH  16  18
ATOM     18  O   UNL     1       5.601   6.165 -22.614  0.00  0.00    -0.503 OA
ATOM     19  H   UNL     1       5.347   6.938 -23.077  0.00  0.00    +0.292 HD
ENDBRANCH  16  18
BRANCH  15  20
ATOM     20  O   UNL     1       7.162   4.430 -23.760  0.00  0.00    -0.503 OA
ATOM     21  H   UNL     1       7.535   4.304 -24.611  0.00  0.00    +0.292 HD
ENDBRANCH  15  20
ENDBRANCH   5  12
BRANCH   6  22
ATOM     22  O   UNL     1       2.778   1.763 -21.356  0.00  0.00    -0.488 OA
ATOM     23  C   UNL     1       3.081   0.531 -21.637  0.00  0.00    +0.277 C 
ENDBRANCH   6  22
BRANCH   1  25
ATOM     24  C   UNL     1      -3.465   4.083 -25.689  0.00  0.00    +0.277 C 
ATOM     25  O   UNL     1      -3.128   4.514 -24.510  0.00  0.00    -0.491 OA
ENDBRANCH   1  25
BRANCH  10  26
ATOM     26  O   UNL     1      -1.902   1.502 -21.395  0.00  0.00    -0.503 OA
ATOM     27  H   UNL     1      -2.576   1.680 -20.769  0.00  0.00    +0.292 HD
ENDBRANCH  10  26
BRANCH  11  28
ATOM     28  O   UNL     1      -3.764   2.718 -22.741  0.00  0.00    -0.488 OA
ATOM     29  C   UNL     1      -4.432   3.351 -21.823  0.00  0.00    +0.277 C 
ENDBRANCH  11  28
TORSDOF 7
ENDMDL
MODEL 5
REMARK VINA RESULT:    -8.600      1.520      6.812
REMARK INTER + INTRA:          -9.816
REMARK INTER:                 -11.795
REMARK INTRA:                   1.979
REMARK UNBOUND:                 1.549
REMARK  Name = ZINC000006017650
REMARK  10 active torsions:
REMARK  status: ('A' for Active; 'I' for Inactive)
REMARK    1  A    between atoms: C_1  and  O_2
REMARK    2  A    between atoms: O_2  and  C_3
REMARK    3  A    between atoms: C_7  and  C_8
REMARK    4  A    between atoms: C_11  and  O_12
REMARK    5  A    between atoms: C_13  and  O_14
REMARK    6  A    between atoms: C_16  and  O_17
REMARK    7  A    between atoms: O_17  and  C_18
REMARK    8  A    between atoms: C_22  and  O_23
REMARK    9  A    between atoms: C_24  and  O_25
REMARK   10  A    between atoms: O_25  and  C_26
REMARK                            x       y       z     vdW  Elec       q    Type
REMARK                         _______ _______ _______ _____ _____    ______ ____
ROOT
ATOM      1  C   UNL     1       2.735   2.081 -21.975  0.00  0.00    +0.169 A 
ATOM      2  C   UNL     1       1.487   2.045 -21.613  0.00  0.00    +0.096 A 
ATOM      3  C   UNL     1       0.567   2.502 -22.408  0.00  0.00    +0.147 A 
ATOM      4  O   UNL     1      -0.681   2.465 -22.047  0.00  0.00    -0.451 OA
ATOM      5  C   UNL     1      -1.603   2.923 -22.842  0.00  0.00    +0.181 A 
ATOM      6  C   UNL     1      -1.276   3.416 -24.000  0.00  0.00    +0.211 A 
ATOM      7  C   UNL     1      -0.028   3.452 -24.362  0.00  0.00    +0.238 A 
ATOM      8  O   UNL     1       0.300   3.945 -25.519  0.00  0.00    -0.283 OA
ATOM      9  C   UNL     1       0.894   2.995 -23.566  0.00  0.00    +0.113 A 
ATOM     10  C   UNL     1       2.142   3.031 -23.928  0.00  0.00    +0.177 A 
ATOM     11  C   UNL     1       3.062   2.574 -23.132  0.00  0.00    +0.204 A 
ENDROOT
BRANCH   5  12
ATOM     12  C   UNL     1      -2.851   2.886 -22.480  0.00  0.00    +0.025 A 
ATOM     13  C   UNL     1      -3.194   2.265 -21.391  0.00  0.00    +0.015 A 
ATOM     14  C   UNL     1      -4.442   2.229 -21.029  0.00  0.00    +0.050 A 
ATOM     15  C   UNL     1      -5.347   2.815 -21.758  0.00  0.00    +0.158 A 
ATOM     16  C   UNL     1      -5.004   3.435 -22.847  0.00  0.00    +0.159 A 
ATOM     17  C   UNL     1      -3.755   3.471 -23.208  0.00  0.00    +0.060 A 
BRANCH  16  18
ATOM     18  O   UNL     1      -5.908   4.020 -23.574  0.00  0.00    -0.503 OA
ATOM     19  H   UNL     1      -5.669   4.728 -24.140  0.00  0.00    +0.292 HD
ENDBRANCH  16  18
BRANCH  15  20
ATOM     20  O   UNL     1      -6.595   2.778 -21.396  0.00  0.00    -0.503 OA
ATOM     21  H   UNL     1      -7.221   2.318 -21.919  0.00  0.00    +0.292 HD
ENDBRANCH  15  20
ENDBRANCH   5  12
BRANCH   6  22
ATOM     22  O   UNL     1      -2.196   3.873 -24.796  0.00  0.00    -0.488 OA
ATOM     23  C   UNL     1      -2.360   3.341 -25.971  0.00  0.00    +0.277 C 
ENDBRANCH   6  22
BRANCH   1  25
ATOM     24  C   UNL     1       3.766   0.345 -20.978  0.00  0.00    +0.277 C 
ATOM     25  O   UNL     1       3.656   1.624 -21.179  0.00  0.00    -0.491 OA
ENDBRANCH   1  25
BRANCH  10  26
ATOM     26  O   UNL     1       2.469   3.524 -25.085  0.00  0.00    -0.503 OA
ATOM     27  H   UNL     1       2.489   2.971 -25.842  0.00  0.00    +0.292 HD
ENDBRANCH  10  26
BRANCH  11  28
ATOM     28  O   UNL     1       4.311   2.610 -23.494  0.00  0.00    -0.488 OA
ATOM     29  C   UNL     1       5.038   3.651 -23.217  0.00  0.00    +0.277 C 
ENDBRANCH  11  28
TORSDOF 7
ENDMDL
MODEL 6
REMARK VINA RESULT:    -8.597      1.651      2.132
REMARK INTER + INTRA:          -9.812
REMARK INTER:                 -10.258
REMARK INTRA:                   0.446
REMARK UNBOUND:                 1.549
REMARK  Name = ZINC000006017650
REMARK  10 active torsions:
REMARK  status: ('A' for Active; 'I' for Inactive)
REMARK    1  A    between atoms: C_1  and  O_2
REMARK    2  A    between atoms: O_2  and  C_3
REMARK    3  A    between atoms: C_7  and  C_8
REMARK    4  A    between atoms: C_11  and  O_12
REMARK    5  A    between atoms: C_13  and  O_14
REMARK    6  A    between atoms: C_16  and  O_17
REMARK    7  A    between atoms: O_17  and  C_18
REMARK    8  A    between atoms: C_22  and  O_23
REMARK    9  A    between atoms: C_24  and  O_25
REMARK   10  A    between atoms: O_25  and  C_26
REMARK                            x       y       z     vdW  Elec       q    Type
REMARK                         _______ _______ _______ _____ _____    ______ ____
ROOT
ATOM      1  C   UNL     1      -2.890   2.429 -21.828  0.00  0.00    +0.169 A 
ATOM      2  C   UNL     1      -1.714   1.892 -21.686  0.00  0.00    +0.096 A 
ATOM      3  C   UNL     1      -0.674   2.454 -22.226  0.00  0.00    +0.147 A 
ATOM      4  O   UNL     1       0.501   1.918 -22.084  0.00  0.00    -0.451 OA
ATOM      5  C   UNL     1       1.542   2.479 -22.624  0.00  0.00    +0.181 A 
ATOM      6  C   UNL     1       1.407   3.578 -23.307  0.00  0.00    +0.211 A 
ATOM      7  C   UNL     1       0.231   4.114 -23.449  0.00  0.00    +0.238 A 
ATOM      8  O   UNL     1       0.096   5.212 -24.131  0.00  0.00    -0.283 OA
ATOM      9  C   UNL     1      -0.810   3.552 -22.908  0.00  0.00    +0.113 A 
ATOM     10  C   UNL     1      -1.985   4.089 -23.051  0.00  0.00    +0.177 A 
ATOM     11  C   UNL     1      -3.025   3.527 -22.510  0.00  0.00    +0.204 A 
ENDROOT
BRANCH   5  12
ATOM     12  C   UNL     1       2.717   1.943 -22.482  0.00  0.00    +0.025 A 
ATOM     13  C   UNL     1       3.231   1.238 -23.446  0.00  0.00    +0.015 A 
ATOM     14  C   UNL     1       4.407   0.702 -23.304  0.00  0.00    +0.050 A 
ATOM     15  C   UNL     1       5.069   0.871 -22.197  0.00  0.00    +0.158 A 
ATOM     16  C   UNL     1       4.555   1.575 -21.233  0.00  0.00    +0.159 A 
ATOM     17  C   UNL     1       3.379   2.112 -21.376  0.00  0.00    +0.060 A 
BRANCH  16  18
ATOM     18  O   UNL     1       5.216   1.744 -20.127  0.00  0.00    -0.503 OA
ATOM     19  H   UNL     1       6.012   1.272 -19.981  0.00  0.00    +0.292 HD
ENDBRANCH  16  18
BRANCH  15  20
ATOM     20  O   UNL     1       6.244   0.334 -22.055  0.00  0.00    -0.503 OA
ATOM     21  H   UNL     1       6.828   0.285 -22.786  0.00  0.00    +0.292 HD
ENDBRANCH  15  20
ENDBRANCH   5  12
BRANCH   6  22
ATOM     22  O   UNL     1       2.447   4.140 -23.848  0.00  0.00    -0.488 OA
ATOM     23  C   UNL     1       3.030   5.136 -23.250  0.00  0.00    +0.277 C 
ENDBRANCH   6  22
BRANCH   1  25
ATOM     24  C   UNL     1      -4.377   2.290 -20.143  0.00  0.00    +0.277 C 
ATOM     25  O   UNL     1      -3.931   1.867 -21.287  0.00  0.00    -0.491 OA
ENDBRANCH   1  25
BRANCH  10  26
ATOM     26  O   UNL     1      -2.120   5.187 -23.733  0.00  0.00    -0.503 OA
ATOM     27  H   UNL     1      -1.370   5.595 -24.118  0.00  0.00    +0.292 HD
ENDBRANCH  10  26
BRANCH  11  28
ATOM     28  O   UNL     1      -4.201   4.063 -22.652  0.00  0.00    -0.488 OA
ATOM     29  C   UNL     1      -4.928   3.771 -23.689  0.00  0.00    +0.277 C 
ENDBRANCH  11  28
TORSDOF 7
ENDMDL
MODEL 7
REMARK VINA RESULT:    -8.208      3.420      7.279
REMARK INTER + INTRA:          -9.298
REMARK INTER:                  -9.576
REMARK INTRA:                   0.278
REMARK UNBOUND:                 1.549
REMARK  Name = ZINC000006017650
REMARK  10 active torsions:
REMARK  status: ('A' for Active; 'I' for Inactive)
REMARK    1  A    between atoms: C_1  and  O_2
REMARK    2  A    between atoms: O_2  and  C_3
REMARK    3  A    between atoms: C_7  and  C_8
REMARK    4  A    between atoms: C_11  and  O_12
REMARK    5  A    between atoms: C_13  and  O_14
REMARK    6  A    between atoms: C_16  and  O_17
REMARK    7  A    between atoms: O_17  and  C_18
REMARK    8  A    between atoms: C_22  and  O_23
REMARK    9  A    between atoms: C_24  and  O_25
REMARK   10  A    between atoms: O_25  and  C_26
REMARK                            x       y       z     vdW  Elec       q    Type
REMARK                         _______ _______ _______ _____ _____    ______ ____
ROOT
ATOM      1  C   UNL     1       5.334   7.570 -21.669  0.00  0.00    +0.169 A 
ATOM      2  C   UNL     1       4.165   7.127 -22.024  0.00  0.00    +0.096 A 
ATOM      3  C   UNL     1       4.052   5.947 -22.556  0.00  0.00    +0.147 A 
ATOM      4  O   UNL     1       2.883   5.503 -22.911  0.00  0.00    -0.451 OA
ATOM      5  C   UNL     1       2.769   4.322 -23.443  0.00  0.00    +0.181 A 
ATOM      6  C   UNL     1       3.825   3.585 -23.620  0.00  0.00    +0.211 A 
ATOM      7  C   UNL     1       4.994   4.029 -23.265  0.00  0.00    +0.238 A 
ATOM      8  O   UNL     1       6.051   3.292 -23.442  0.00  0.00    -0.283 OA
ATOM      9  C   UNL     1       5.108   5.210 -22.733  0.00  0.00    +0.113 A 
ATOM     10  C   UNL     1       6.277   5.653 -22.378  0.00  0.00    +0.177 A 
ATOM     11  C   UNL     1       6.390   6.833 -21.846  0.00  0.00    +0.204 A 
ENDROOT
BRANCH   5  12
ATOM     12  C   UNL     1       1.600   3.879 -23.798  0.00  0.00    +0.025 A 
ATOM     13  C   UNL     1       1.131   4.156 -24.978  0.00  0.00    +0.015 A 
ATOM     14  C   UNL     1      -0.038   3.712 -25.333  0.00  0.00    +0.050 A 
ATOM     15  C   UNL     1      -0.739   2.992 -24.507  0.00  0.00    +0.158 A 
ATOM     16  C   UNL     1      -0.270   2.715 -23.326  0.00  0.00    +0.159 A 
ATOM     17  C   UNL     1       0.900   3.159 -22.972  0.00  0.00    +0.060 A 
BRANCH  16  18
ATOM     18  O   UNL     1      -0.969   1.996 -22.501  0.00  0.00    -0.503 OA
ATOM     19  H   UNL     1      -0.547   1.356 -21.963  0.00  0.00    +0.292 HD
ENDBRANCH  16  18
BRANCH  15  20
ATOM     20  O   UNL     1      -1.908   2.549 -24.862  0.00  0.00    -0.503 OA
ATOM     21  H   UNL     1      -2.545   2.332 -24.209  0.00  0.00    +0.292 HD
ENDBRANCH  15  20
ENDBRANCH   5  12
BRANCH   6  22
ATOM     22  O   UNL     1       3.713   2.404 -24.152  0.00  0.00    -0.488 OA
ATOM     23  C   UNL     1       3.859   1.344 -23.415  0.00  0.00    +0.277 C 
ENDBRANCH   6  22
BRANCH   1  25
ATOM     24  C   UNL     1       4.384   9.444 -20.858  0.00  0.00    +0.277 C 
ATOM     25  O   UNL     1       5.448   8.751 -21.136  0.00  0.00    -0.491 OA
ENDBRANCH   1  25
BRANCH  10  26
ATOM     26  O   UNL     1       7.333   4.916 -22.555  0.00  0.00    -0.503 OA
ATOM     27  H   UNL     1       7.591   4.667 -23.421  0.00  0.00    +0.292 HD
ENDBRANCH  10  26
BRANCH  11  28
ATOM     28  O   UNL     1       7.560   7.277 -21.490  0.00  0.00    -0.488 OA
ATOM     29  C   UNL     1       7.978   7.105 -20.272  0.00  0.00    +0.277 C 
ENDBRANCH  11  28
TORSDOF 7
ENDMDL
MODEL 8
REMARK VINA RESULT:    -7.685      4.834      6.904
REMARK INTER + INTRA:          -8.606
REMARK INTER:                  -8.807
REMARK INTRA:                   0.200
REMARK UNBOUND:                 1.549
REMARK  Name = ZINC000006017650
REMARK  10 active torsions:
REMARK  status: ('A' for Active; 'I' for Inactive)
REMARK    1  A    between atoms: C_1  and  O_2
REMARK    2  A    between atoms: O_2  and  C_3
REMARK    3  A    between atoms: C_7  and  C_8
REMARK    4  A    between atoms: C_11  and  O_12
REMARK    5  A    between atoms: C_13  and  O_14
REMARK    6  A    between atoms: C_16  and  O_17
REMARK    7  A    between atoms: O_17  and  C_18
REMARK    8  A    between atoms: C_22  and  O_23
REMARK    9  A    between atoms: C_24  and  O_25
REMARK   10  A    between atoms: O_25  and  C_26
REMARK                            x       y       z     vdW  Elec       q    Type
REMARK                         _______ _______ _______ _____ _____    ______ ____
ROOT
ATOM      1  C   UNL     1       2.300   3.524 -23.842  0.00  0.00    +0.169 A 
ATOM      2  C   UNL     1       2.287   4.733 -23.365  0.00  0.00    +0.096 A 
ATOM      3  C   UNL     1       3.395   5.290 -22.977  0.00  0.00    +0.147 A 
ATOM      4  O   UNL     1       3.382   6.499 -22.500  0.00  0.00    -0.451 OA
ATOM      5  C   UNL     1       4.491   7.057 -22.112  0.00  0.00    +0.181 A 
ATOM      6  C   UNL     1       5.612   6.405 -22.201  0.00  0.00    +0.211 A 
ATOM      7  C   UNL     1       5.625   5.196 -22.677  0.00  0.00    +0.238 A 
ATOM      8  O   UNL     1       6.746   4.544 -22.766  0.00  0.00    -0.283 OA
ATOM      9  C   UNL     1       4.516   4.638 -23.066  0.00  0.00    +0.113 A 
ATOM     10  C   UNL     1       4.529   3.429 -23.543  0.00  0.00    +0.177 A 
ATOM     11  C   UNL     1       3.421   2.872 -23.931  0.00  0.00    +0.204 A 
ENDROOT
BRANCH   5  12
ATOM     12  C   UNL     1       4.478   8.266 -21.635  0.00  0.00    +0.025 A 
ATOM     13  C   UNL     1       4.043   8.485 -20.430  0.00  0.00    +0.015 A 
ATOM     14  C   UNL     1       4.030   9.695 -19.953  0.00  0.00    +0.050 A 
ATOM     15  C   UNL     1       4.453  10.685 -20.683  0.00  0.00    +0.158 A 
ATOM     16  C   UNL     1       4.889  10.466 -21.888  0.00  0.00    +0.159 A 
ATOM     17  C   UNL     1       4.901   9.256 -22.363  0.00  0.00    +0.060 A 
BRANCH  16  18
ATOM     18  O   UNL     1       5.312  11.456 -22.616  0.00  0.00    -0.503 OA
ATOM     19  H   UNL     1       4.835  12.262 -22.633  0.00  0.00    +0.292 HD
ENDBRANCH  16  18
BRANCH  15  20
ATOM     20  O   UNL     1       4.440  11.894 -20.206  0.00  0.00    -0.503 OA
ATOM     21  H   UNL     1       4.306  12.623 -20.780  0.00  0.00    +0.292 HD
ENDBRANCH  15  20
ENDBRANCH   5  12
BRANCH   6  22
ATOM     22  O   UNL     1       6.721   6.962 -21.813  0.00  0.00    -0.488 OA
ATOM     23  C   UNL     1       7.201   6.700 -20.633  0.00  0.00    +0.277 C 
ENDBRANCH   6  22
BRANCH   1  25
ATOM     24  C   UNL     1       0.149   2.983 -23.454  0.00  0.00    +0.277 C 
ATOM     25  O   UNL     1       1.191   2.966 -24.231  0.00  0.00    -0.491 OA
ENDBRANCH   1  25
BRANCH  10  26
ATOM     26  O   UNL     1       5.650   2.777 -23.631  0.00  0.00    -0.503 OA
ATOM     27  H   UNL     1       6.461   3.212 -23.453  0.00  0.00    +0.292 HD
ENDBRANCH  10  26
BRANCH  11  28
ATOM     28  O   UNL     1       3.433   1.662 -24.408  0.00  0.00    -0.488 OA
ATOM     29  C   UNL     1       3.237   0.650 -23.617  0.00  0.00    +0.277 C 
ENDBRANCH  11  28
TORSDOF 7
ENDMDL
MODEL 9
REMARK VINA RESULT:    -7.499      1.382      6.651
REMARK INTER + INTRA:          -8.360
REMARK INTER:                  -9.910
REMARK INTRA:                   1.549
REMARK UNBOUND:                 1.549
REMARK  Name = ZINC000006017650
REMARK  10 active torsions:
REMARK  status: ('A' for Active; 'I' for Inactive)
REMARK    1  A    between atoms: C_1  and  O_2
REMARK    2  A    between atoms: O_2  and  C_3
REMARK    3  A    between atoms: C_7  and  C_8
REMARK    4  A    between atoms: C_11  and  O_12
REMARK    5  A    between atoms: C_13  and  O_14
REMARK    6  A    between atoms: C_16  and  O_17
REMARK    7  A    between atoms: O_17  and  C_18
REMARK    8  A    between atoms: C_22  and  O_23
REMARK    9  A    between atoms: C_24  and  O_25
REMARK   10  A    between atoms: O_25  and  C_26
REMARK                            x       y       z     vdW  Elec       q    Type
REMARK                         _______ _______ _______ _____ _____    ______ ____
ROOT
ATOM      1  C   UNL     1       3.962   1.481 -21.384  0.00  0.00    +0.169 A 
ATOM      2  C   UNL     1       2.716   1.720 -21.105  0.00  0.00    +0.096 A 
ATOM      3  C   UNL     1       1.890   2.049 -22.053  0.00  0.00    +0.147 A 
ATOM      4  O   UNL     1       0.643   2.288 -21.774  0.00  0.00    -0.451 OA
ATOM      5  C   UNL     1      -0.184   2.617 -22.722  0.00  0.00    +0.181 A 
ATOM      6  C   UNL     1       0.236   2.707 -23.949  0.00  0.00    +0.211 A 
ATOM      7  C   UNL     1       1.483   2.468 -24.228  0.00  0.00    +0.238 A 
ATOM      8  O   UNL     1       1.904   2.557 -25.454  0.00  0.00    -0.283 OA
ATOM      9  C   UNL     1       2.310   2.139 -23.280  0.00  0.00    +0.113 A 
ATOM     10  C   UNL     1       3.557   1.900 -23.558  0.00  0.00    +0.177 A 
ATOM     11  C   UNL     1       4.383   1.571 -22.611  0.00  0.00    +0.204 A 
ENDROOT
BRANCH   5  12
ATOM     12  C   UNL     1      -1.431   2.856 -22.443  0.00  0.00    +0.025 A 
ATOM     13  C   UNL     1      -2.360   2.545 -23.298  0.00  0.00    +0.015 A 
ATOM     14  C   UNL     1      -3.607   2.784 -23.019  0.00  0.00    +0.050 A 
ATOM     15  C   UNL     1      -3.925   3.335 -21.884  0.00  0.00    +0.158 A 
ATOM     16  C   UNL     1      -2.996   3.646 -21.029  0.00  0.00    +0.159 A 
ATOM     17  C   UNL     1      -1.749   3.406 -21.309  0.00  0.00    +0.060 A 
BRANCH  16  18
ATOM     18  O   UNL     1      -3.314   4.196 -19.895  0.00  0.00    -0.503 OA
ATOM     19  H   UNL     1      -3.874   4.947 -19.880  0.00  0.00    +0.292 HD
ENDBRANCH  16  18
BRANCH  15  20
ATOM     20  O   UNL     1      -5.171   3.574 -21.605  0.00  0.00    -0.503 OA
ATOM     21  H   UNL     1      -5.486   3.460 -20.730  0.00  0.00    +0.292 HD
ENDBRANCH  15  20
ENDBRANCH   5  12
BRANCH   6  22
ATOM     22  O   UNL     1      -0.590   3.036 -24.898  0.00  0.00    -0.488 OA
ATOM     23  C   UNL     1      -0.442   4.165 -25.524  0.00  0.00    +0.277 C 
ENDBRANCH   6  22
BRANCH   1  25
ATOM     24  C   UNL     1       5.131  -0.091 -20.273  0.00  0.00    +0.277 C 
ATOM     25  O   UNL     1       4.790   1.152 -20.436  0.00  0.00    -0.491 OA
ENDBRANCH   1  25
BRANCH  10  26
ATOM     26  O   UNL     1       3.978   1.989 -24.785  0.00  0.00    -0.503 OA
ATOM     27  H   UNL     1       4.392   2.776 -25.082  0.00  0.00    +0.292 HD
ENDBRANCH  10  26
BRANCH  11  28
ATOM     28  O   UNL     1       5.631   1.332 -22.889  0.00  0.00    -0.488 OA
ATOM     29  C   UNL     1       6.502   2.295 -22.849  0.00  0.00    +0.277 C 
ENDBRANCH  11  28
TORSDOF 7
ENDMDL
