MODEL 1
REMARK VINA RESULT:    -9.386      0.000      0.000
REMARK INTER + INTRA:         -11.806
REMARK INTER:                 -11.434
REMARK INTRA:                  -0.372
REMARK UNBOUND:                -0.773
REMARK  Name = COc1ccc2c(c1Oc1ccccc1)[C@@]13CCN(C)[C@@H](C2)[C@@H]1[C@H](C)CC(=O)C3 ZINC000253504567
REMARK  6 active torsions:
REMARK  status: ('A' for Active; 'I' for Inactive)
REMARK    1  A    between atoms: C_1  and  O_2
REMARK    2  A    between atoms: O_2  and  C_3
REMARK    3  A    between atoms: C_8  and  O_9
REMARK    4  A    between atoms: O_9  and  C_10
REMARK    5  A    between atoms: N_19  and  C_20
REMARK    6  A    between atoms: C_24  and  C_25
REMARK                            x       y       z     vdW  Elec       q    Type
REMARK                         _______ _______ _______ _____ _____    ______ ____
ROOT
ATOM      1  C   UNL     1      -1.781   2.719 -21.220  0.00  0.00    +0.162 A 
ATOM      2  C   UNL     1      -2.934   2.740 -20.709  0.00  0.00    +0.050 A 
ATOM      3  C   UNL     1      -3.923   2.970 -21.457  0.00  0.00    +0.008 A 
ATOM      4  C   UNL     1      -3.698   3.203 -22.884  0.00  0.00    -0.035 A 
ATOM      5  C   UNL     1      -2.705   3.170 -23.238  0.00  0.00    +0.009 A 
ATOM      6  C   UNL     1      -2.344   3.290 -24.109  0.00  0.00    +0.019 C 
ATOM      7  C   UNL     1      -2.790   3.048 -22.509  0.00  0.00    +0.063 C 
ATOM      8  C   UNL     1      -4.204   3.119 -22.138  0.00  0.00    +0.132 C 
ATOM      9  N   UNL     1      -4.999   3.344 -22.962  0.00  0.00    +0.236 N 
ATOM     10  H   UNL     1      -5.427   3.547 -23.865  0.00  0.00    +0.203 HD
ATOM     11  C   UNL     1      -4.604   3.575 -24.472  0.00  0.00    +0.073 C 
ATOM     12  C   UNL     1      -5.964   3.277 -22.056  0.00  0.00    +0.190 C 
ATOM     13  C   UNL     1      -1.164   3.251 -24.534  0.00  0.00    +0.086 C 
ATOM     14  C   UNL     1      -0.935   3.452 -25.790  0.00  0.00    +0.134 C 
ATOM     15  O   UNL     1       0.263   3.415 -26.234  0.00  0.00    -0.297 OA
ATOM     16  C   UNL     1      -1.910   3.697 -26.629  0.00  0.00    +0.078 C 
ATOM     17  C   UNL     1      -3.135   3.745 -26.225  0.00  0.00    +0.002 C 
ATOM     18  C   UNL     1      -4.089   3.984 -27.046  0.00  0.00    +0.008 C 
ATOM     19  C   UNL     1      -3.405   3.555 -25.015  0.00  0.00    +0.052 C 
ATOM     20  C   UNL     1      -4.694   3.433 -23.626  0.00  0.00    +0.090 C 
ATOM     21  C   UNL     1      -1.654   2.932 -22.483  0.00  0.00    +0.174 A 
ENDROOT
BRANCH   1  23
ATOM     22  C   UNL     1       0.109   1.448 -20.646  0.00  0.00    +0.277 C 
ATOM     23  O   UNL     1      -0.581   2.495 -20.622  0.00  0.00    -0.491 OA
ENDBRANCH   1  23
BRANCH  21  24
ATOM     24  O   UNL     1      -0.377   2.976 -23.427  0.00  0.00    -0.452 OA
BRANCH  24  25
ATOM     25  C   UNL     1       0.859   3.628 -23.365  0.00  0.00    +0.129 A 
ATOM     26  C   UNL     1       1.874   2.851 -23.370  0.00  0.00    +0.046 A 
ATOM     27  C   UNL     1       3.052   3.343 -23.316  0.00  0.00    +0.004 A 
ATOM     28  C   UNL     1       3.214   4.607 -23.257  0.00  0.00    +0.000 A 
ATOM     29  C   UNL     1       2.198   5.386 -23.252  0.00  0.00    +0.004 A 
ATOM     30  C   UNL     1       1.020   4.895 -23.306  0.00  0.00    +0.046 A 
ENDBRANCH  24  25
ENDBRANCH  21  24
TORSDOF 3
ENDMDL
MODEL 2
REMARK VINA RESULT:    -9.016      1.237      1.970
REMARK INTER + INTRA:         -11.371
REMARK INTER:                 -10.588
REMARK INTRA:                  -0.782
REMARK UNBOUND:                -0.773
REMARK  Name = COc1ccc2c(c1Oc1ccccc1)[C@@]13CCN(C)[C@@H](C2)[C@@H]1[C@H](C)CC(=O)C3 ZINC000253504567
REMARK  6 active torsions:
REMARK  status: ('A' for Active; 'I' for Inactive)
REMARK    1  A    between atoms: C_1  and  O_2
REMARK    2  A    between atoms: O_2  and  C_3
REMARK    3  A    between atoms: C_8  and  O_9
REMARK    4  A    between atoms: O_9  and  C_10
REMARK    5  A    between atoms: N_19  and  C_20
REMARK    6  A    between atoms: C_24  and  C_25
REMARK                            x       y       z     vdW  Elec       q    Type
REMARK                         _______ _______ _______ _____ _____    ______ ____
ROOT
ATOM      1  C   UNL     1       0.103   1.596 -21.262  0.00  0.00    +0.162 A 
ATOM      2  C   UNL     1      -0.925   1.486 -20.540  0.00  0.00    +0.050 A 
ATOM      3  C   UNL     1      -2.033   1.870 -21.004  0.00  0.00    +0.008 A 
ATOM      4  C   UNL     1      -2.086   2.425 -22.357  0.00  0.00    -0.035 A 
ATOM      5  C   UNL     1      -1.183   2.485 -22.900  0.00  0.00    +0.009 A 
ATOM      6  C   UNL     1      -0.996   2.805 -23.775  0.00  0.00    +0.019 C 
ATOM      7  C   UNL     1      -1.127   2.198 -22.215  0.00  0.00    +0.063 C 
ATOM      8  C   UNL     1      -2.438   2.167 -21.564  0.00  0.00    +0.132 C 
ATOM      9  N   UNL     1      -3.371   2.565 -22.140  0.00  0.00    +0.236 N 
ATOM     10  H   UNL     1      -3.960   2.964 -22.870  0.00  0.00    +0.203 HD
ATOM     11  C   UNL     1      -3.272   3.140 -23.607  0.00  0.00    +0.073 C 
ATOM     12  C   UNL     1      -4.140   2.281 -21.099  0.00  0.00    +0.190 C 
ATOM     13  C   UNL     1       0.075   2.877 -24.424  0.00  0.00    +0.086 C 
ATOM     14  C   UNL     1       0.060   3.364 -25.622  0.00  0.00    +0.134 C 
ATOM     15  O   UNL     1       1.145   3.442 -26.292  0.00  0.00    -0.297 OA
ATOM     16  C   UNL     1      -1.052   3.783 -26.173  0.00  0.00    +0.078 C 
ATOM     17  C   UNL     1      -2.171   3.722 -25.532  0.00  0.00    +0.002 C 
ATOM     18  C   UNL     1      -3.260   4.133 -26.071  0.00  0.00    +0.008 C 
ATOM     19  C   UNL     1      -2.205   3.258 -24.368  0.00  0.00    +0.052 C 
ATOM     20  C   UNL     1      -3.199   2.807 -22.814  0.00  0.00    +0.090 C 
ATOM     21  C   UNL     1      -0.013   2.093 -22.443  0.00  0.00    +0.174 A 
ENDROOT
BRANCH   1  23
ATOM     22  C   UNL     1       2.061   1.550 -19.964  0.00  0.00    +0.277 C 
ATOM     23  O   UNL     1       1.389   1.254 -20.981  0.00  0.00    -0.491 OA
ENDBRANCH   1  23
BRANCH  21  24
ATOM     24  O   UNL     1       1.054   2.366 -23.588  0.00  0.00    -0.452 OA
BRANCH  24  25
ATOM     25  C   UNL     1       2.410   2.710 -23.594  0.00  0.00    +0.129 A 
ATOM     26  C   UNL     1       2.662   3.899 -23.198  0.00  0.00    +0.046 A 
ATOM     27  C   UNL     1       3.869   4.316 -23.164  0.00  0.00    +0.004 A 
ATOM     28  C   UNL     1       4.820   3.547 -23.526  0.00  0.00    +0.000 A 
ATOM     29  C   UNL     1       4.570   2.357 -23.923  0.00  0.00    +0.004 A 
ATOM     30  C   UNL     1       3.362   1.939 -23.957  0.00  0.00    +0.046 A 
ENDBRANCH  24  25
ENDBRANCH  21  24
TORSDOF 3
ENDMDL
MODEL 3
REMARK VINA RESULT:    -8.669      1.360      3.912
REMARK INTER + INTRA:         -10.963
REMARK INTER:                 -10.593
REMARK INTRA:                  -0.370
REMARK UNBOUND:                -0.773
REMARK  Name = COc1ccc2c(c1Oc1ccccc1)[C@@]13CCN(C)[C@@H](C2)[C@@H]1[C@H](C)CC(=O)C3 ZINC000253504567
REMARK  6 active torsions:
REMARK  status: ('A' for Active; 'I' for Inactive)
REMARK    1  A    between atoms: C_1  and  O_2
REMARK    2  A    between atoms: O_2  and  C_3
REMARK    3  A    between atoms: C_8  and  O_9
REMARK    4  A    between atoms: O_9  and  C_10
REMARK    5  A    between atoms: N_19  and  C_20
REMARK    6  A    between atoms: C_24  and  C_25
REMARK                            x       y       z     vdW  Elec       q    Type
REMARK                         _______ _______ _______ _____ _____    ______ ____
ROOT
ATOM      1  C   UNL     1       0.143   3.204 -25.514  0.00  0.00    +0.162 A 
ATOM      2  C   UNL     1      -0.747   3.656 -26.284  0.00  0.00    +0.050 A 
ATOM      3  C   UNL     1      -1.926   3.765 -25.847  0.00  0.00    +0.008 A 
ATOM      4  C   UNL     1      -2.215   3.364 -24.470  0.00  0.00    -0.035 A 
ATOM      5  C   UNL     1      -1.417   2.995 -23.887  0.00  0.00    +0.009 A 
ATOM      6  C   UNL     1      -1.385   2.686 -22.989  0.00  0.00    +0.019 C 
ATOM      7  C   UNL     1      -1.241   3.191 -24.583  0.00  0.00    +0.063 C 
ATOM      8  C   UNL     1      -2.424   3.686 -25.290  0.00  0.00    +0.132 C 
ATOM      9  N   UNL     1      -3.449   3.721 -24.732  0.00  0.00    +0.236 N 
ATOM     10  H   UNL     1      -4.160   3.631 -24.007  0.00  0.00    +0.203 HD
ATOM     11  C   UNL     1      -3.608   3.251 -23.234  0.00  0.00    +0.073 C 
ATOM     12  C   UNL     1      -4.028   4.212 -25.819  0.00  0.00    +0.190 C 
ATOM     13  C   UNL     1      -0.440   2.246 -22.292  0.00  0.00    +0.086 C 
ATOM     14  C   UNL     1      -0.664   1.884 -21.071  0.00  0.00    +0.134 C 
ATOM     15  O   UNL     1       0.292   1.435 -20.353  0.00  0.00    -0.297 OA
ATOM     16  C   UNL     1      -1.862   1.967 -20.546  0.00  0.00    +0.078 C 
ATOM     17  C   UNL     1      -2.857   2.415 -21.236  0.00  0.00    +0.002 C 
ATOM     18  C   UNL     1      -4.028   2.497 -20.722  0.00  0.00    +0.008 C 
ATOM     19  C   UNL     1      -2.686   2.778 -22.424  0.00  0.00    +0.052 C 
ATOM     20  C   UNL     1      -3.397   3.476 -24.040  0.00  0.00    +0.090 C 
ATOM     21  C   UNL     1      -0.179   2.870 -24.314  0.00  0.00    +0.174 A 
ENDROOT
BRANCH   1  23
ATOM     22  C   UNL     1       2.018   1.957 -26.183  0.00  0.00    +0.277 C 
ATOM     23  O   UNL     1       1.465   2.999 -25.759  0.00  0.00    -0.491 OA
ENDBRANCH   1  23
BRANCH  21  24
ATOM     24  O   UNL     1       0.676   2.280 -23.112  0.00  0.00    -0.452 OA
BRANCH  24  25
ATOM     25  C   UNL     1       2.046   2.175 -22.851  0.00  0.00    +0.129 A 
ATOM     26  C   UNL     1       2.485   0.976 -22.769  0.00  0.00    +0.046 A 
ATOM     27  C   UNL     1       3.723   0.767 -22.533  0.00  0.00    +0.004 A 
ATOM     28  C   UNL     1       4.519   1.752 -22.379  0.00  0.00    +0.000 A 
ATOM     29  C   UNL     1       4.082   2.951 -22.461  0.00  0.00    +0.004 A 
ATOM     30  C   UNL     1       2.843   3.162 -22.697  0.00  0.00    +0.046 A 
ENDBRANCH  24  25
ENDBRANCH  21  24
TORSDOF 3
ENDMDL
MODEL 4
REMARK VINA RESULT:    -8.350      2.949      6.780
REMARK INTER + INTRA:         -10.588
REMARK INTER:                  -9.959
REMARK INTRA:                  -0.629
REMARK UNBOUND:                -0.773
REMARK  Name = COc1ccc2c(c1Oc1ccccc1)[C@@]13CCN(C)[C@@H](C2)[C@@H]1[C@H](C)CC(=O)C3 ZINC000253504567
REMARK  6 active torsions:
REMARK  status: ('A' for Active; 'I' for Inactive)
REMARK    1  A    between atoms: C_1  and  O_2
REMARK    2  A    between atoms: O_2  and  C_3
REMARK    3  A    between atoms: C_8  and  O_9
REMARK    4  A    between atoms: O_9  and  C_10
REMARK    5  A    between atoms: N_19  and  C_20
REMARK    6  A    between atoms: C_24  and  C_25
REMARK                            x       y       z     vdW  Elec       q    Type
REMARK                         _______ _______ _______ _____ _____    ______ ____
ROOT
ATOM      1  C   UNL     1       1.567   0.992 -22.235  0.00  0.00    +0.162 A 
ATOM      2  C   UNL     1       2.366   0.086 -21.871  0.00  0.00    +0.050 A 
ATOM      3  C   UNL     1       3.591   0.368 -21.765  0.00  0.00    +0.008 A 
ATOM      4  C   UNL     1       4.038   1.728 -22.067  0.00  0.00    -0.035 A 
ATOM      5  C   UNL     1       3.311   2.431 -22.365  0.00  0.00    +0.009 A 
ATOM      6  C   UNL     1       3.382   3.348 -22.602  0.00  0.00    +0.019 C 
ATOM      7  C   UNL     1       3.055   1.748 -22.218  0.00  0.00    +0.063 C 
ATOM      8  C   UNL     1       4.152   0.865 -21.816  0.00  0.00    +0.132 C 
ATOM      9  N   UNL     1       5.238   1.290 -21.770  0.00  0.00    +0.236 N 
ATOM     10  H   UNL     1       6.031   1.929 -21.825  0.00  0.00    +0.203 HD
ATOM     11  C   UNL     1       5.570   2.792 -22.126  0.00  0.00    +0.073 C 
ATOM     12  C   UNL     1       5.690   0.106 -21.383  0.00  0.00    +0.190 C 
ATOM     13  C   UNL     1       2.521   4.188 -22.957  0.00  0.00    +0.086 C 
ATOM     14  C   UNL     1       2.886   5.397 -23.230  0.00  0.00    +0.134 C 
ATOM     15  O   UNL     1       2.015   6.260 -23.592  0.00  0.00    -0.297 OA
ATOM     16  C   UNL     1       4.140   5.766 -23.143  0.00  0.00    +0.078 C 
ATOM     17  C   UNL     1       5.052   4.927 -22.781  0.00  0.00    +0.002 C 
ATOM     18  C   UNL     1       6.279   5.288 -22.696  0.00  0.00    +0.008 C 
ATOM     19  C   UNL     1       4.744   3.743 -22.506  0.00  0.00    +0.052 C 
ATOM     20  C   UNL     1       5.266   2.002 -21.958  0.00  0.00    +0.090 C 
ATOM     21  C   UNL     1       2.027   2.167 -22.484  0.00  0.00    +0.174 A 
ENDROOT
BRANCH   1  23
ATOM     22  C   UNL     1      -0.680   1.051 -21.554  0.00  0.00    +0.277 C 
ATOM     23  O   UNL     1       0.221   0.926 -22.417  0.00  0.00    -0.491 OA
ENDBRANCH   1  23
BRANCH  21  24
ATOM     24  O   UNL     1       1.313   3.508 -22.953  0.00  0.00    -0.452 OA
BRANCH  24  25
ATOM     25  C   UNL     1       0.070   3.801 -23.521  0.00  0.00    +0.129 A 
ATOM     26  C   UNL     1      -0.071   3.409 -24.730  0.00  0.00    +0.046 A 
ATOM     27  C   UNL     1      -1.170   3.627 -25.345  0.00  0.00    +0.004 A 
ATOM     28  C   UNL     1      -2.123   4.235 -24.754  0.00  0.00    +0.000 A 
ATOM     29  C   UNL     1      -1.983   4.628 -23.544  0.00  0.00    +0.004 A 
ATOM     30  C   UNL     1      -0.884   4.410 -22.928  0.00  0.00    +0.046 A 
ENDBRANCH  24  25
ENDBRANCH  21  24
TORSDOF 3
ENDMDL
MODEL 5
REMARK VINA RESULT:    -7.777      2.037      5.241
REMARK INTER + INTRA:          -9.914
REMARK INTER:                  -9.184
REMARK INTRA:                  -0.730
REMARK UNBOUND:                -0.773
REMARK  Name = COc1ccc2c(c1Oc1ccccc1)[C@@]13CCN(C)[C@@H](C2)[C@@H]1[C@H](C)CC(=O)C3 ZINC000253504567
REMARK  6 active torsions:
REMARK  status: ('A' for Active; 'I' for Inactive)
REMARK    1  A    between atoms: C_1  and  O_2
REMARK    2  A    between atoms: O_2  and  C_3
REMARK    3  A    between atoms: C_8  and  O_9
REMARK    4  A    between atoms: O_9  and  C_10
REMARK    5  A    between atoms: N_19  and  C_20
REMARK    6  A    between atoms: C_24  and  C_25
REMARK                            x       y       z     vdW  Elec       q    Type
REMARK                         _______ _______ _______ _____ _____    ______ ____
ROOT
ATOM      1  C   UNL     1      -1.622   2.016 -21.635  0.00  0.00    +0.162 A 
ATOM      2  C   UNL     1      -1.122   1.516 -20.591  0.00  0.00    +0.050 A 
ATOM      3  C   UNL     1       0.132   1.407 -20.513  0.00  0.00    +0.008 A 
ATOM      4  C   UNL     1       0.957   1.862 -21.633  0.00  0.00    -0.035 A 
ATOM      5  C   UNL     1       0.466   2.269 -22.472  0.00  0.00    +0.009 A 
ATOM      6  C   UNL     1       0.803   2.618 -23.290  0.00  0.00    +0.019 C 
ATOM      7  C   UNL     1       0.022   2.046 -21.919  0.00  0.00    +0.063 C 
ATOM      8  C   UNL     1       0.814   1.502 -20.814  0.00  0.00    +0.132 C 
ATOM      9  N   UNL     1       1.978   1.475 -20.906  0.00  0.00    +0.236 N 
ATOM     10  H   UNL     1       2.923   1.584 -21.273  0.00  0.00    +0.203 HD
ATOM     11  C   UNL     1       2.733   2.006 -22.186  0.00  0.00    +0.073 C 
ATOM     12  C   UNL     1       2.064   0.927 -19.703  0.00  0.00    +0.190 C 
ATOM     13  C   UNL     1       0.223   3.103 -24.291  0.00  0.00    +0.086 C 
ATOM     14  C   UNL     1       0.925   3.514 -25.295  0.00  0.00    +0.134 C 
ATOM     15  O   UNL     1       0.345   4.010 -26.320  0.00  0.00    -0.297 OA
ATOM     16  C   UNL     1       2.233   3.434 -25.289  0.00  0.00    +0.078 C 
ATOM     17  C   UNL     1       2.861   2.940 -24.276  0.00  0.00    +0.002 C 
ATOM     18  C   UNL     1       4.141   2.862 -24.270  0.00  0.00    +0.008 C 
ATOM     19  C   UNL     1       2.221   2.529 -23.279  0.00  0.00    +0.052 C 
ATOM     20  C   UNL     1       2.212   1.750 -21.548  0.00  0.00    +0.090 C 
ATOM     21  C   UNL     1      -0.839   2.396 -22.582  0.00  0.00    +0.174 A 
ENDROOT
BRANCH   1  23
ATOM     22  C   UNL     1      -3.795   2.825 -21.255  0.00  0.00    +0.277 C 
ATOM     23  O   UNL     1      -2.929   2.231 -21.942  0.00  0.00    -0.491 OA
ENDBRANCH   1  23
BRANCH  21  24
ATOM     24  O   UNL     1      -1.131   3.052 -24.000  0.00  0.00    -0.452 OA
BRANCH  24  25
ATOM     25  C   UNL     1      -2.296   3.386 -24.697  0.00  0.00    +0.129 A 
ATOM     26  C   UNL     1      -2.759   4.550 -24.438  0.00  0.00    +0.046 A 
ATOM     27  C   UNL     1      -3.821   4.956 -25.021  0.00  0.00    +0.004 A 
ATOM     28  C   UNL     1      -4.417   4.202 -25.859  0.00  0.00    +0.000 A 
ATOM     29  C   UNL     1      -3.955   3.037 -26.120  0.00  0.00    +0.004 A 
ATOM     30  C   UNL     1      -2.893   2.630 -25.537  0.00  0.00    +0.046 A 
ENDBRANCH  24  25
ENDBRANCH  21  24
TORSDOF 3
ENDMDL
MODEL 6
REMARK VINA RESULT:    -7.350      2.800      7.133
REMARK INTER + INTRA:          -9.412
REMARK INTER:                  -9.155
REMARK INTRA:                  -0.257
REMARK UNBOUND:                -0.773
REMARK  Name = COc1ccc2c(c1Oc1ccccc1)[C@@]13CCN(C)[C@@H](C2)[C@@H]1[C@H](C)CC(=O)C3 ZINC000253504567
REMARK  6 active torsions:
REMARK  status: ('A' for Active; 'I' for Inactive)
REMARK    1  A    between atoms: C_1  and  O_2
REMARK    2  A    between atoms: O_2  and  C_3
REMARK    3  A    between atoms: C_8  and  O_9
REMARK    4  A    between atoms: O_9  and  C_10
REMARK    5  A    between atoms: N_19  and  C_20
REMARK    6  A    between atoms: C_24  and  C_25
REMARK                            x       y       z     vdW  Elec       q    Type
REMARK                         _______ _______ _______ _____ _____    ______ ____
ROOT
ATOM      1  C   UNL     1       1.832   5.199 -23.365  0.00  0.00    +0.162 A 
ATOM      2  C   UNL     1       2.798   6.009 -23.367  0.00  0.00    +0.050 A 
ATOM      3  C   UNL     1       3.946   5.583 -23.065  0.00  0.00    +0.008 A 
ATOM      4  C   UNL     1       4.114   4.170 -22.725  0.00  0.00    -0.035 A 
ATOM      5  C   UNL     1       3.259   3.553 -22.746  0.00  0.00    +0.009 A 
ATOM      6  C   UNL     1       3.146   2.627 -22.564  0.00  0.00    +0.019 C 
ATOM      7  C   UNL     1       3.144   4.267 -22.923  0.00  0.00    +0.063 C 
ATOM      8  C   UNL     1       4.398   5.019 -22.859  0.00  0.00    +0.132 C 
ATOM      9  N   UNL     1       5.381   4.465 -22.560  0.00  0.00    +0.236 N 
ATOM     10  H   UNL     1       6.033   3.732 -22.281  0.00  0.00    +0.203 HD
ATOM     11  C   UNL     1       5.408   2.924 -22.218  0.00  0.00    +0.073 C 
ATOM     12  C   UNL     1       6.061   5.595 -22.683  0.00  0.00    +0.190 C 
ATOM     13  C   UNL     1       2.132   1.890 -22.587  0.00  0.00    +0.086 C 
ATOM     14  C   UNL     1       2.250   0.637 -22.292  0.00  0.00    +0.134 C 
ATOM     15  O   UNL     1       1.222  -0.123 -22.312  0.00  0.00    -0.297 OA
ATOM     16  C   UNL     1       3.409   0.120 -21.968  0.00  0.00    +0.078 C 
ATOM     17  C   UNL     1       4.473   0.850 -21.935  0.00  0.00    +0.002 C 
ATOM     18  C   UNL     1       5.607   0.344 -21.618  0.00  0.00    +0.008 C 
ATOM     19  C   UNL     1       4.406   2.071 -22.214  0.00  0.00    +0.052 C 
ATOM     20  C   UNL     1       5.267   3.750 -22.424  0.00  0.00    +0.090 C 
ATOM     21  C   UNL     1       2.050   3.969 -23.056  0.00  0.00    +0.174 A 
ENDROOT
BRANCH   1  23
ATOM     22  C   UNL     1      -0.391   5.770 -22.865  0.00  0.00    +0.277 C 
ATOM     23  O   UNL     1       0.522   5.424 -23.652  0.00  0.00    -0.491 OA
ENDBRANCH   1  23
BRANCH  21  24
ATOM     24  O   UNL     1       1.081   2.713 -22.958  0.00  0.00    -0.452 OA
BRANCH  24  25
ATOM     25  C   UNL     1      -0.300   2.558 -22.797  0.00  0.00    +0.129 A 
ATOM     26  C   UNL     1      -0.700   2.559 -21.583  0.00  0.00    +0.046 A 
ATOM     27  C   UNL     1      -1.944   2.424 -21.323  0.00  0.00    +0.004 A 
ATOM     28  C   UNL     1      -2.783   2.289 -22.274  0.00  0.00    +0.000 A 
ATOM     29  C   UNL     1      -2.384   2.287 -23.490  0.00  0.00    +0.004 A 
ATOM     30  C   UNL     1      -1.140   2.423 -23.750  0.00  0.00    +0.046 A 
ENDBRANCH  24  25
ENDBRANCH  21  24
TORSDOF 3
ENDMDL
MODEL 7
REMARK VINA RESULT:    -6.881      3.696      6.359
REMARK INTER + INTRA:          -8.861
REMARK INTER:                  -8.090
REMARK INTRA:                  -0.771
REMARK UNBOUND:                -0.773
REMARK  Name = COc1ccc2c(c1Oc1ccccc1)[C@@]13CCN(C)[C@@H](C2)[C@@H]1[C@H](C)CC(=O)C3 ZINC000253504567
REMARK  6 active torsions:
REMARK  status: ('A' for Active; 'I' for Inactive)
REMARK    1  A    between atoms: C_1  and  O_2
REMARK    2  A    between atoms: O_2  and  C_3
REMARK    3  A    between atoms: C_8  and  O_9
REMARK    4  A    between atoms: O_9  and  C_10
REMARK    5  A    between atoms: N_19  and  C_20
REMARK    6  A    between atoms: C_24  and  C_25
REMARK                            x       y       z     vdW  Elec       q    Type
REMARK                         _______ _______ _______ _____ _____    ______ ____
ROOT
ATOM      1  C   UNL     1       3.381   5.899 -22.829  0.00  0.00    +0.162 A 
ATOM      2  C   UNL     1       2.223   6.199 -23.226  0.00  0.00    +0.050 A 
ATOM      3  C   UNL     1       1.402   5.269 -23.456  0.00  0.00    +0.008 A 
ATOM      4  C   UNL     1       1.822   3.882 -23.254  0.00  0.00    -0.035 A 
ATOM      5  C   UNL     1       2.807   3.710 -22.919  0.00  0.00    +0.009 A 
ATOM      6  C   UNL     1       3.275   2.905 -22.728  0.00  0.00    +0.019 C 
ATOM      7  C   UNL     1       2.622   4.424 -23.013  0.00  0.00    +0.063 C 
ATOM      8  C   UNL     1       1.237   4.536 -23.477  0.00  0.00    +0.132 C 
ATOM      9  N   UNL     1       0.610   3.565 -23.641  0.00  0.00    +0.236 N 
ATOM     10  H   UNL     1       0.341   2.583 -23.686  0.00  0.00    +0.203 HD
ATOM     11  C   UNL     1       1.204   2.126 -23.379  0.00  0.00    +0.073 C 
ATOM     12  C   UNL     1      -0.429   4.295 -24.019  0.00  0.00    +0.190 C 
ATOM     13  C   UNL     1       4.446   2.695 -22.330  0.00  0.00    +0.086 C 
ATOM     14  C   UNL     1       4.846   1.481 -22.143  0.00  0.00    +0.134 C 
ATOM     15  O   UNL     1       6.037   1.256 -21.738  0.00  0.00    -0.297 OA
ATOM     16  C   UNL     1       4.052   0.462 -22.359  0.00  0.00    +0.078 C 
ATOM     17  C   UNL     1       2.841   0.642 -22.769  0.00  0.00    +0.002 C 
ATOM     18  C   UNL     1       2.064  -0.355 -22.981  0.00  0.00    +0.008 C 
ATOM     19  C   UNL     1       2.410   1.803 -22.965  0.00  0.00    +0.052 C 
ATOM     20  C   UNL     1       0.995   2.957 -23.486  0.00  0.00    +0.090 C 
ATOM     21  C   UNL     1       3.685   4.658 -22.672  0.00  0.00    +0.174 A 
ENDROOT
BRANCH   1  23
ATOM     22  C   UNL     1       4.424   7.703 -21.745  0.00  0.00    +0.277 C 
ATOM     23  O   UNL     1       4.422   6.718 -22.521  0.00  0.00    -0.491 OA
ENDBRANCH   1  23
BRANCH  21  24
ATOM     24  O   UNL     1       5.024   3.947 -22.195  0.00  0.00    -0.452 OA
BRANCH  24  25
ATOM     25  C   UNL     1       6.367   4.334 -22.144  0.00  0.00    +0.129 A 
ATOM     26  C   UNL     1       6.943   4.420 -23.283  0.00  0.00    +0.046 A 
ATOM     27  C   UNL     1       8.171   4.765 -23.350  0.00  0.00    +0.004 A 
ATOM     28  C   UNL     1       8.821   5.024 -22.284  0.00  0.00    +0.000 A 
ATOM     29  C   UNL     1       8.246   4.939 -21.143  0.00  0.00    +0.004 A 
ATOM     30  C   UNL     1       7.018   4.593 -21.075  0.00  0.00    +0.046 A 
ENDBRANCH  24  25
ENDBRANCH  21  24
TORSDOF 3
ENDMDL
MODEL 8
REMARK VINA RESULT:    -6.500      6.001      9.248
REMARK INTER + INTRA:          -8.414
REMARK INTER:                  -7.666
REMARK INTRA:                  -0.748
REMARK UNBOUND:                -0.773
REMARK  Name = COc1ccc2c(c1Oc1ccccc1)[C@@]13CCN(C)[C@@H](C2)[C@@H]1[C@H](C)CC(=O)C3 ZINC000253504567
REMARK  6 active torsions:
REMARK  status: ('A' for Active; 'I' for Inactive)
REMARK    1  A    between atoms: C_1  and  O_2
REMARK    2  A    between atoms: O_2  and  C_3
REMARK    3  A    between atoms: C_8  and  O_9
REMARK    4  A    between atoms: O_9  and  C_10
REMARK    5  A    between atoms: N_19  and  C_20
REMARK    6  A    between atoms: C_24  and  C_25
REMARK                            x       y       z     vdW  Elec       q    Type
REMARK                         _______ _______ _______ _____ _____    ______ ____
ROOT
ATOM      1  C   UNL     1       7.735   6.659 -22.146  0.00  0.00    +0.162 A 
ATOM      2  C   UNL     1       8.728   5.950 -22.465  0.00  0.00    +0.050 A 
ATOM      3  C   UNL     1       8.522   4.819 -22.984  0.00  0.00    +0.008 A 
ATOM      4  C   UNL     1       7.145   4.372 -23.197  0.00  0.00    -0.035 A 
ATOM      5  C   UNL     1       6.367   5.021 -22.904  0.00  0.00    +0.009 A 
ATOM      6  C   UNL     1       5.422   4.931 -22.952  0.00  0.00    +0.019 C 
ATOM      7  C   UNL     1       7.056   5.274 -22.784  0.00  0.00    +0.063 C 
ATOM      8  C   UNL     1       8.046   4.291 -23.228  0.00  0.00    +0.132 C 
ATOM      9  N   UNL     1       7.682   3.284 -23.692  0.00  0.00    +0.236 N 
ATOM     10  H   UNL     1       7.076   2.540 -24.036  0.00  0.00    +0.203 HD
ATOM     11  C   UNL     1       6.151   2.939 -23.859  0.00  0.00    +0.073 C 
ATOM     12  C   UNL     1       8.940   2.901 -23.859  0.00  0.00    +0.190 C 
ATOM     13  C   UNL     1       4.492   5.699 -22.606  0.00  0.00    +0.086 C 
ATOM     14  C   UNL     1       3.266   5.332 -22.781  0.00  0.00    +0.134 C 
ATOM     15  O   UNL     1       2.312   6.107 -22.432  0.00  0.00    -0.297 OA
ATOM     16  C   UNL     1       2.972   4.172 -23.314  0.00  0.00    +0.078 C 
ATOM     17  C   UNL     1       3.904   3.358 -23.681  0.00  0.00    +0.002 C 
ATOM     18  C   UNL     1       3.616   2.223 -24.203  0.00  0.00    +0.008 C 
ATOM     19  C   UNL     1       5.108   3.672 -23.530  0.00  0.00    +0.052 C 
ATOM     20  C   UNL     1       6.947   3.239 -23.717  0.00  0.00    +0.090 C 
ATOM     21  C   UNL     1       6.550   6.205 -22.361  0.00  0.00    +0.174 A 
ENDROOT
BRANCH   1  23
ATOM     22  C   UNL     1       8.159   8.240 -20.462  0.00  0.00    +0.277 C 
ATOM     23  O   UNL     1       7.709   7.895 -21.580  0.00  0.00    -0.491 OA
ENDBRANCH   1  23
BRANCH  21  24
ATOM     24  O   UNL     1       5.112   6.824 -22.087  0.00  0.00    -0.452 OA
BRANCH  24  25
ATOM     25  C   UNL     1       4.658   8.051 -21.592  0.00  0.00    +0.129 A 
ATOM     26  C   UNL     1       4.500   8.960 -22.477  0.00  0.00    +0.046 A 
ATOM     27  C   UNL     1       4.088  10.119 -22.132  0.00  0.00    +0.004 A 
ATOM     28  C   UNL     1       3.836  10.369 -20.907  0.00  0.00    +0.000 A 
ATOM     29  C   UNL     1       3.994   9.460 -20.020  0.00  0.00    +0.004 A 
ATOM     30  C   UNL     1       4.405   8.300 -20.364  0.00  0.00    +0.046 A 
ENDBRANCH  24  25
ENDBRANCH  21  24
TORSDOF 3
ENDMDL
