MODEL 1
REMARK VINA RESULT:   -11.631      0.000      0.000
REMARK INTER + INTRA:         -12.343
REMARK INTER:                 -12.194
REMARK INTRA:                  -0.149
REMARK UNBOUND:                 0.308
REMARK  Name = COc1ccc2c3c1O[C@]1(C)[C@@H](O)C=C[C@H]4[C@@H](C2)N(C)CC[C@]341       ZINC000100393601
REMARK  5 active torsions:
REMARK  status: ('A' for Active; 'I' for Inactive)
REMARK    1  A    between atoms: C_1  and  O_2
REMARK    2  A    between atoms: O_2  and  C_3
REMARK    3  A    between atoms: C_10  and  C_11
REMARK    4  A    between atoms: C_12  and  O_13
REMARK    5  A    between atoms: N_19  and  C_20
REMARK                            x       y       z     vdW  Elec       q    Type
REMARK                         _______ _______ _______ _____ _____    ______ ____
ROOT
ATOM      1  C   UNL     1       0.441   2.244 -23.339  0.00  0.00    +0.162 A 
ATOM      2  C   UNL     1       0.413   1.878 -22.128  0.00  0.00    +0.050 A 
ATOM      3  C   UNL     1      -0.655   1.922 -21.476  0.00  0.00    +0.008 A 
ATOM      4  C   UNL     1      -1.707   2.331 -22.026  0.00  0.00    -0.034 A 
ATOM      5  C   UNL     1      -1.698   2.699 -23.231  0.00  0.00    +0.012 A 
ATOM      6  C   UNL     1      -2.747   3.106 -23.776  0.00  0.00    +0.058 C 
ATOM      7  C   UNL     1      -3.876   3.586 -24.501  0.00  0.00    +0.067 C 
ATOM      8  C   UNL     1      -5.095   3.646 -23.791  0.00  0.00    +0.132 C 
ATOM      9  N   UNL     1      -5.087   3.231 -22.444  0.00  0.00    +0.236 N 
ATOM     10  H   UNL     1      -5.939   3.253 -21.882  0.00  0.00    +0.203 HD
ATOM     11  C   UNL     1      -6.124   3.253 -21.744  0.00  0.00    +0.190 C 
ATOM     12  C   UNL     1      -3.841   2.784 -21.915  0.00  0.00    +0.076 C 
ATOM     13  C   UNL     1      -3.816   3.150 -23.126  0.00  0.00    +0.075 C 
ATOM     14  C   UNL     1      -4.875   3.562 -23.679  0.00  0.00    -0.019 C 
ATOM     15  C   UNL     1      -4.858   3.926 -24.877  0.00  0.00    +0.004 C 
ATOM     16  C   UNL     1      -3.783   3.884 -25.540  0.00  0.00    +0.181 C 
ATOM     17  C   UNL     1      -2.733   3.477 -24.995  0.00  0.00    +0.148 C 
ATOM     18  C   UNL     1      -2.430   3.770 -26.174  0.00  0.00    +0.060 C 
ATOM     19  O   UNL     1      -1.259   3.186 -25.144  0.00  0.00    -0.478 OA
ATOM     20  C   UNL     1      -2.794   2.376 -21.366  0.00  0.00    +0.090 C 
ATOM     21  C   UNL     1      -0.623   2.656 -23.892  0.00  0.00    +0.167 A 
ENDROOT
BRANCH   1  23
ATOM     22  C   UNL     1       2.175   3.242 -24.176  0.00  0.00    +0.277 C 
ATOM     23  O   UNL     1       1.511   2.198 -23.987  0.00  0.00    -0.491 OA
ENDBRANCH   1  23
BRANCH  16  24
ATOM     24  O   UNL     1      -3.767   4.248 -26.738  0.00  0.00    -0.384 OA
ATOM     25  H   UNL     1      -4.300   3.635 -27.269  0.00  0.00    +0.210 HD
ENDBRANCH  16  24
TORSDOF 2
ENDMDL
MODEL 2
REMARK VINA RESULT:   -11.027      2.184      5.069
REMARK INTER + INTRA:         -11.686
REMARK INTER:                 -11.572
REMARK INTRA:                  -0.114
REMARK UNBOUND:                 0.308
REMARK  Name = COc1ccc2c3c1O[C@]1(C)[C@@H](O)C=C[C@H]4[C@@H](C2)N(C)CC[C@]341       ZINC000100393601
REMARK  5 active torsions:
REMARK  status: ('A' for Active; 'I' for Inactive)
REMARK    1  A    between atoms: C_1  and  O_2
REMARK    2  A    between atoms: O_2  and  C_3
REMARK    3  A    between atoms: C_10  and  C_11
REMARK    4  A    between atoms: C_12  and  O_13
REMARK    5  A    between atoms: N_19  and  C_20
REMARK                            x       y       z     vdW  Elec       q    Type
REMARK                         _______ _______ _______ _____ _____    ______ ____
ROOT
ATOM      1  C   UNL     1      -3.284   3.159 -22.670  0.00  0.00    +0.162 A 
ATOM      2  C   UNL     1      -3.384   2.588 -21.546  0.00  0.00    +0.050 A 
ATOM      3  C   UNL     1      -2.393   2.027 -21.027  0.00  0.00    +0.008 A 
ATOM      4  C   UNL     1      -1.289   2.030 -21.625  0.00  0.00    -0.034 A 
ATOM      5  C   UNL     1      -1.170   2.593 -22.746  0.00  0.00    +0.012 A 
ATOM      6  C   UNL     1      -0.070   2.595 -23.340  0.00  0.00    +0.058 C 
ATOM      7  C   UNL     1       1.129   2.661 -24.108  0.00  0.00    +0.067 C 
ATOM      8  C   UNL     1       2.265   2.037 -23.548  0.00  0.00    +0.132 C 
ATOM      9  N   UNL     1       2.114   1.410 -22.294  0.00  0.00    +0.236 N 
ATOM     10  H   UNL     1       2.901   0.944 -21.842  0.00  0.00    +0.203 HD
ATOM     11  C   UNL     1       3.070   0.835 -21.729  0.00  0.00    +0.190 C 
ATOM     12  C   UNL     1       0.820   1.464 -21.699  0.00  0.00    +0.076 C 
ATOM     13  C   UNL     1       0.924   2.035 -22.824  0.00  0.00    +0.075 C 
ATOM     14  C   UNL     1       2.035   2.037 -23.426  0.00  0.00    -0.019 C 
ATOM     15  C   UNL     1       2.145   2.600 -24.539  0.00  0.00    +0.004 C 
ATOM     16  C   UNL     1       1.146   3.168 -25.067  0.00  0.00    +0.181 C 
ATOM     17  C   UNL     1       0.045   3.166 -24.473  0.00  0.00    +0.148 C 
ATOM     18  C   UNL     1      -0.130   3.789 -25.545  0.00  0.00    +0.060 C 
ATOM     19  O   UNL     1      -1.403   3.591 -24.490  0.00  0.00    -0.478 OA
ATOM     20  C   UNL     1      -0.279   1.460 -21.101  0.00  0.00    +0.090 C 
ATOM     21  C   UNL     1      -2.168   3.161 -23.272  0.00  0.00    +0.167 A 
ENDROOT
BRANCH   1  23
ATOM     22  C   UNL     1      -5.423   3.513 -22.723  0.00  0.00    +0.277 C 
ATOM     23  O   UNL     1      -4.278   3.719 -23.184  0.00  0.00    -0.491 OA
ENDBRANCH   1  23
BRANCH  16  24
ATOM     24  O   UNL     1       1.259   3.730 -26.180  0.00  0.00    -0.384 OA
ATOM     25  H   UNL     1       2.198   3.866 -26.381  0.00  0.00    +0.210 HD
ENDBRANCH  16  24
TORSDOF 2
ENDMDL
MODEL 3
REMARK VINA RESULT:   -10.711      1.958      3.206
REMARK INTER + INTRA:         -11.342
REMARK INTER:                 -11.228
REMARK INTRA:                  -0.115
REMARK UNBOUND:                 0.308
REMARK  Name = COc1ccc2c3c1O[C@]1(C)[C@@H](O)C=C[C@H]4[C@@H](C2)N(C)CC[C@]341       ZINC000100393601
REMARK  5 active torsions:
REMARK  status: ('A' for Active; 'I' for Inactive)
REMARK    1  A    between atoms: C_1  and  O_2
REMARK    2  A    between atoms: O_2  and  C_3
REMARK    3  A    between atoms: C_10  and  C_11
REMARK    4  A    between atoms: C_12  and  O_13
REMARK    5  A    between atoms: N_19  and  C_20
REMARK                            x       y       z     vdW  Elec       q    Type
REMARK                         _______ _______ _______ _____ _____    ______ ____
ROOT
ATOM      1  C   UNL     1       0.313   1.868 -21.662  0.00  0.00    +0.162 A 
ATOM      2  C   UNL     1       1.138   1.961 -22.617  0.00  0.00    +0.050 A 
ATOM      3  C   UNL     1       0.768   2.380 -23.737  0.00  0.00    +0.008 A 
ATOM      4  C   UNL     1      -0.429   2.712 -23.916  0.00  0.00    -0.034 A 
ATOM      5  C   UNL     1      -1.265   2.626 -22.977  0.00  0.00    +0.012 A 
ATOM      6  C   UNL     1      -2.457   2.957 -23.158  0.00  0.00    +0.058 C 
ATOM      7  C   UNL     1      -3.836   3.304 -23.246  0.00  0.00    +0.067 C 
ATOM      8  C   UNL     1      -4.282   3.780 -24.497  0.00  0.00    +0.132 C 
ATOM      9  N   UNL     1      -3.335   3.870 -25.537  0.00  0.00    +0.236 N 
ATOM     10  H   UNL     1      -3.601   4.207 -26.463  0.00  0.00    +0.203 HD
ATOM     11  C   UNL     1      -3.648   4.282 -26.677  0.00  0.00    +0.190 C 
ATOM     12  C   UNL     1      -2.002   3.468 -25.230  0.00  0.00    +0.076 C 
ATOM     13  C   UNL     1      -2.829   3.377 -24.277  0.00  0.00    +0.075 C 
ATOM     14  C   UNL     1      -4.034   3.711 -24.458  0.00  0.00    -0.019 C 
ATOM     15  C   UNL     1      -4.858   3.623 -23.519  0.00  0.00    +0.004 C 
ATOM     16  C   UNL     1      -4.490   3.200 -22.386  0.00  0.00    +0.181 C 
ATOM     17  C   UNL     1      -3.297   2.869 -22.204  0.00  0.00    +0.148 C 
ATOM     18  C   UNL     1      -3.888   2.682 -21.116  0.00  0.00    +0.060 C 
ATOM     19  O   UNL     1      -2.262   2.341 -21.241  0.00  0.00    -0.478 OA
ATOM     20  C   UNL     1      -0.808   3.139 -25.054  0.00  0.00    +0.090 C 
ATOM     21  C   UNL     1      -0.896   2.204 -21.845  0.00  0.00    +0.167 A 
ENDROOT
BRANCH   1  23
ATOM     22  C   UNL     1       1.901   1.464 -20.241  0.00  0.00    +0.277 C 
ATOM     23  O   UNL     1       0.687   1.448 -20.544  0.00  0.00    -0.491 OA
ENDBRANCH   1  23
BRANCH  16  24
ATOM     24  O   UNL     1      -5.316   3.113 -21.449  0.00  0.00    -0.384 OA
ATOM     25  H   UNL     1      -5.671   3.993 -21.248  0.00  0.00    +0.210 HD
ENDBRANCH  16  24
TORSDOF 2
ENDMDL
MODEL 4
REMARK VINA RESULT:   -10.700      2.125      5.498
REMARK INTER + INTRA:         -11.330
REMARK INTER:                 -11.259
REMARK INTRA:                  -0.070
REMARK UNBOUND:                 0.308
REMARK  Name = COc1ccc2c3c1O[C@]1(C)[C@@H](O)C=C[C@H]4[C@@H](C2)N(C)CC[C@]341       ZINC000100393601
REMARK  5 active torsions:
REMARK  status: ('A' for Active; 'I' for Inactive)
REMARK    1  A    between atoms: C_1  and  O_2
REMARK    2  A    between atoms: O_2  and  C_3
REMARK    3  A    between atoms: C_10  and  C_11
REMARK    4  A    between atoms: C_12  and  O_13
REMARK    5  A    between atoms: N_19  and  C_20
REMARK                            x       y       z     vdW  Elec       q    Type
REMARK                         _______ _______ _______ _____ _____    ______ ____
ROOT
ATOM      1  C   UNL     1      -4.621   3.717 -23.069  0.00  0.00    +0.162 A 
ATOM      2  C   UNL     1      -4.793   4.161 -24.241  0.00  0.00    +0.050 A 
ATOM      3  C   UNL     1      -3.851   4.161 -25.065  0.00  0.00    +0.008 A 
ATOM      4  C   UNL     1      -2.726   3.719 -24.729  0.00  0.00    -0.034 A 
ATOM      5  C   UNL     1      -2.535   3.272 -23.566  0.00  0.00    +0.012 A 
ATOM      6  C   UNL     1      -1.413   2.831 -23.233  0.00  0.00    +0.058 C 
ATOM      7  C   UNL     1      -0.183   2.306 -22.743  0.00  0.00    +0.067 C 
ATOM      8  C   UNL     1       0.898   2.294 -23.651  0.00  0.00    +0.132 C 
ATOM      9  N   UNL     1       0.667   2.797 -24.947  0.00  0.00    +0.236 N 
ATOM     10  H   UNL     1       1.412   2.813 -25.645  0.00  0.00    +0.203 HD
ATOM     11  C   UNL     1       1.571   2.822 -25.812  0.00  0.00    +0.190 C 
ATOM     12  C   UNL     1      -0.646   3.276 -25.228  0.00  0.00    +0.076 C 
ATOM     13  C   UNL     1      -0.469   2.831 -24.056  0.00  0.00    +0.075 C 
ATOM     14  C   UNL     1       0.664   2.385 -23.718  0.00  0.00    -0.019 C 
ATOM     15  C   UNL     1       0.845   1.943 -22.561  0.00  0.00    +0.004 C 
ATOM     16  C   UNL     1      -0.103   1.941 -21.724  0.00  0.00    +0.181 C 
ATOM     17  C   UNL     1      -1.226   2.381 -22.057  0.00  0.00    +0.148 C 
ATOM     18  C   UNL     1      -1.327   2.011 -20.865  0.00  0.00    +0.060 C 
ATOM     19  O   UNL     1      -2.650   2.660 -21.642  0.00  0.00    -0.478 OA
ATOM     20  C   UNL     1      -1.766   3.718 -25.565  0.00  0.00    +0.090 C 
ATOM     21  C   UNL     1      -3.483   3.270 -22.732  0.00  0.00    +0.167 A 
ENDROOT
BRANCH   1  23
ATOM     22  C   UNL     1      -5.963   2.643 -21.748  0.00  0.00    +0.277 C 
ATOM     23  O   UNL     1      -5.565   3.718 -22.248  0.00  0.00    -0.491 OA
ENDBRANCH   1  23
BRANCH  16  24
ATOM     24  O   UNL     1       0.081   1.498 -20.567  0.00  0.00    -0.384 OA
ATOM     25  H   UNL     1       0.096   0.529 -20.590  0.00  0.00    +0.210 HD
ENDBRANCH  16  24
TORSDOF 2
ENDMDL
MODEL 5
REMARK VINA RESULT:   -10.587      1.298      1.914
REMARK INTER + INTRA:         -11.208
REMARK INTER:                 -11.084
REMARK INTRA:                  -0.124
REMARK UNBOUND:                 0.308
REMARK  Name = COc1ccc2c3c1O[C@]1(C)[C@@H](O)C=C[C@H]4[C@@H](C2)N(C)CC[C@]341       ZINC000100393601
REMARK  5 active torsions:
REMARK  status: ('A' for Active; 'I' for Inactive)
REMARK    1  A    between atoms: C_1  and  O_2
REMARK    2  A    between atoms: O_2  and  C_3
REMARK    3  A    between atoms: C_10  and  C_11
REMARK    4  A    between atoms: C_12  and  O_13
REMARK    5  A    between atoms: N_19  and  C_20
REMARK                            x       y       z     vdW  Elec       q    Type
REMARK                         _______ _______ _______ _____ _____    ______ ____
ROOT
ATOM      1  C   UNL     1       2.247   2.060 -23.413  0.00  0.00    +0.162 A 
ATOM      2  C   UNL     1       2.420   1.622 -22.239  0.00  0.00    +0.050 A 
ATOM      3  C   UNL     1       1.456   1.530 -21.446  0.00  0.00    +0.008 A 
ATOM      4  C   UNL     1       0.308   1.874 -21.815  0.00  0.00    -0.034 A 
ATOM      5  C   UNL     1       0.115   2.313 -22.981  0.00  0.00    +0.012 A 
ATOM      6  C   UNL     1      -1.031   2.656 -23.347  0.00  0.00    +0.058 C 
ATOM      7  C   UNL     1      -2.286   3.075 -23.874  0.00  0.00    +0.067 C 
ATOM      8  C   UNL     1      -3.392   2.983 -23.002  0.00  0.00    +0.132 C 
ATOM      9  N   UNL     1      -3.159   2.490 -21.702  0.00  0.00    +0.236 N 
ATOM     10  H   UNL     1      -3.922   2.401 -21.029  0.00  0.00    +0.203 HD
ATOM     11  C   UNL     1      -4.085   2.376 -20.867  0.00  0.00    +0.190 C 
ATOM     12  C   UNL     1      -1.819   2.126 -21.382  0.00  0.00    +0.076 C 
ATOM     13  C   UNL     1      -1.996   2.565 -22.556  0.00  0.00    +0.075 C 
ATOM     14  C   UNL     1      -3.153   2.912 -22.927  0.00  0.00    -0.019 C 
ATOM     15  C   UNL     1      -3.336   3.347 -24.087  0.00  0.00    +0.004 C 
ATOM     16  C   UNL     1      -2.366   3.442 -24.892  0.00  0.00    +0.181 C 
ATOM     17  C   UNL     1      -1.220   3.099 -24.526  0.00  0.00    +0.148 C 
ATOM     18  C   UNL     1      -1.113   3.489 -25.711  0.00  0.00    +0.060 C 
ATOM     19  O   UNL     1       0.236   2.952 -24.896  0.00  0.00    -0.478 OA
ATOM     20  C   UNL     1      -0.675   1.782 -21.011  0.00  0.00    +0.090 C 
ATOM     21  C   UNL     1       1.085   2.408 -23.784  0.00  0.00    +0.167 A 
ENDROOT
BRANCH   1  23
ATOM     22  C   UNL     1       4.270   2.712 -23.839  0.00  0.00    +0.277 C 
ATOM     23  O   UNL     1       3.213   2.151 -24.202  0.00  0.00    -0.491 OA
ENDBRANCH   1  23
BRANCH  16  24
ATOM     24  O   UNL     1      -2.551   3.878 -26.051  0.00  0.00    -0.384 OA
ATOM     25  H   UNL     1      -1.756   4.346 -26.351  0.00  0.00    +0.210 HD
ENDBRANCH  16  24
TORSDOF 2
ENDMDL
MODEL 6
REMARK VINA RESULT:   -10.156      2.977      6.816
REMARK INTER + INTRA:         -10.738
REMARK INTER:                 -10.620
REMARK INTRA:                  -0.118
REMARK UNBOUND:                 0.308
REMARK  Name = COc1ccc2c3c1O[C@]1(C)[C@@H](O)C=C[C@H]4[C@@H](C2)N(C)CC[C@]341       ZINC000100393601
REMARK  5 active torsions:
REMARK  status: ('A' for Active; 'I' for Inactive)
REMARK    1  A    between atoms: C_1  and  O_2
REMARK    2  A    between atoms: O_2  and  C_3
REMARK    3  A    between atoms: C_10  and  C_11
REMARK    4  A    between atoms: C_12  and  O_13
REMARK    5  A    between atoms: N_19  and  C_20
REMARK                            x       y       z     vdW  Elec       q    Type
REMARK                         _______ _______ _______ _____ _____    ______ ____
ROOT
ATOM      1  C   UNL     1      -1.178   3.256 -23.397  0.00  0.00    +0.162 A 
ATOM      2  C   UNL     1      -1.263   4.490 -23.660  0.00  0.00    +0.050 A 
ATOM      3  C   UNL     1      -0.240   5.212 -23.661  0.00  0.00    +0.008 A 
ATOM      4  C   UNL     1       0.879   4.709 -23.400  0.00  0.00    -0.034 A 
ATOM      5  C   UNL     1       0.984   3.482 -23.136  0.00  0.00    +0.012 A 
ATOM      6  C   UNL     1       2.101   2.983 -22.876  0.00  0.00    +0.058 C 
ATOM      7  C   UNL     1       3.316   2.306 -22.566  0.00  0.00    +0.067 C 
ATOM      8  C   UNL     1       4.487   3.094 -22.560  0.00  0.00    +0.132 C 
ATOM      9  N   UNL     1       4.352   4.466 -22.858  0.00  0.00    +0.236 N 
ATOM     10  H   UNL     1       5.164   5.084 -22.868  0.00  0.00    +0.203 HD
ATOM     11  C   UNL     1       5.340   5.234 -22.874  0.00  0.00    +0.190 C 
ATOM     12  C   UNL     1       3.037   4.937 -23.140  0.00  0.00    +0.076 C 
ATOM     13  C   UNL     1       3.126   3.702 -22.877  0.00  0.00    +0.075 C 
ATOM     14  C   UNL     1       4.254   3.197 -22.614  0.00  0.00    -0.019 C 
ATOM     15  C   UNL     1       4.349   1.976 -22.353  0.00  0.00    +0.004 C 
ATOM     16  C   UNL     1       3.319   1.243 -22.350  0.00  0.00    +0.181 C 
ATOM     17  C   UNL     1       2.202   1.741 -22.610  0.00  0.00    +0.148 C 
ATOM     18  C   UNL     1       2.006   0.524 -22.391  0.00  0.00    +0.060 C 
ATOM     19  O   UNL     1       0.719   1.510 -22.773  0.00  0.00    -0.478 OA
ATOM     20  C   UNL     1       1.922   5.440 -23.400  0.00  0.00    +0.090 C 
ATOM     21  C   UNL     1      -0.045   2.750 -23.134  0.00  0.00    +0.167 A 
ENDROOT
BRANCH   1  23
ATOM     22  C   UNL     1      -3.301   3.012 -23.029  0.00  0.00    +0.277 C 
ATOM     23  O   UNL     1      -2.203   2.538 -23.397  0.00  0.00    -0.491 OA
ENDBRANCH   1  23
BRANCH  16  24
ATOM     24  O   UNL     1       3.417   0.022 -22.088  0.00  0.00    -0.384 OA
ATOM     25  H   UNL     1       2.530  -0.362 -22.002  0.00  0.00    +0.210 HD
ENDBRANCH  16  24
TORSDOF 2
ENDMDL
MODEL 7
REMARK VINA RESULT:    -9.903      2.264      3.860
REMARK INTER + INTRA:         -10.463
REMARK INTER:                 -10.350
REMARK INTRA:                  -0.113
REMARK UNBOUND:                 0.308
REMARK  Name = COc1ccc2c3c1O[C@]1(C)[C@@H](O)C=C[C@H]4[C@@H](C2)N(C)CC[C@]341       ZINC000100393601
REMARK  5 active torsions:
REMARK  status: ('A' for Active; 'I' for Inactive)
REMARK    1  A    between atoms: C_1  and  O_2
REMARK    2  A    between atoms: O_2  and  C_3
REMARK    3  A    between atoms: C_10  and  C_11
REMARK    4  A    between atoms: C_12  and  O_13
REMARK    5  A    between atoms: N_19  and  C_20
REMARK                            x       y       z     vdW  Elec       q    Type
REMARK                         _______ _______ _______ _____ _____    ______ ____
ROOT
ATOM      1  C   UNL     1       2.610   2.489 -22.373  0.00  0.00    +0.162 A 
ATOM      2  C   UNL     1       3.218   2.766 -23.447  0.00  0.00    +0.050 A 
ATOM      3  C   UNL     1       2.578   3.041 -24.488  0.00  0.00    +0.008 A 
ATOM      4  C   UNL     1       1.323   3.042 -24.467  0.00  0.00    -0.034 A 
ATOM      5  C   UNL     1       0.700   2.768 -23.407  0.00  0.00    +0.012 A 
ATOM      6  C   UNL     1      -0.551   2.770 -23.389  0.00  0.00    +0.058 C 
ATOM      7  C   UNL     1      -1.969   2.741 -23.250  0.00  0.00    +0.067 C 
ATOM      8  C   UNL     1      -2.717   3.046 -24.407  0.00  0.00    +0.132 C 
ATOM      9  N   UNL     1      -2.004   3.350 -25.585  0.00  0.00    +0.236 N 
ATOM     10  H   UNL     1      -2.493   3.578 -26.451  0.00  0.00    +0.203 HD
ATOM     11  C   UNL     1      -2.591   3.631 -26.653  0.00  0.00    +0.190 C 
ATOM     12  C   UNL     1      -0.581   3.321 -25.501  0.00  0.00    +0.076 C 
ATOM     13  C   UNL     1      -1.193   3.044 -24.429  0.00  0.00    +0.075 C 
ATOM     14  C   UNL     1      -2.457   3.045 -24.409  0.00  0.00    -0.019 C 
ATOM     15  C   UNL     1      -3.069   2.772 -23.351  0.00  0.00    +0.004 C 
ATOM     16  C   UNL     1      -2.427   2.495 -22.298  0.00  0.00    +0.181 C 
ATOM     17  C   UNL     1      -1.176   2.493 -22.315  0.00  0.00    +0.148 C 
ATOM     18  C   UNL     1      -1.516   2.190 -21.149  0.00  0.00    +0.060 C 
ATOM     19  O   UNL     1       0.101   2.284 -21.537  0.00  0.00    -0.478 OA
ATOM     20  C   UNL     1       0.669   3.320 -25.523  0.00  0.00    +0.090 C 
ATOM     21  C   UNL     1       1.342   2.491 -22.356  0.00  0.00    +0.167 A 
ENDROOT
BRANCH   1  23
ATOM     22  C   UNL     1       4.503   2.164 -21.368  0.00  0.00    +0.277 C 
ATOM     23  O   UNL     1       3.253   2.216 -21.336  0.00  0.00    -0.491 OA
ENDBRANCH   1  23
BRANCH  16  24
ATOM     24  O   UNL     1      -3.041   2.222 -21.241  0.00  0.00    -0.384 OA
ATOM     25  H   UNL     1      -3.381   3.040 -20.845  0.00  0.00    +0.210 HD
ENDBRANCH  16  24
TORSDOF 2
ENDMDL
MODEL 8
REMARK VINA RESULT:    -9.846      2.534      6.284
REMARK INTER + INTRA:         -10.401
REMARK INTER:                 -10.323
REMARK INTRA:                  -0.078
REMARK UNBOUND:                 0.308
REMARK  Name = COc1ccc2c3c1O[C@]1(C)[C@@H](O)C=C[C@H]4[C@@H](C2)N(C)CC[C@]341       ZINC000100393601
REMARK  5 active torsions:
REMARK  status: ('A' for Active; 'I' for Inactive)
REMARK    1  A    between atoms: C_1  and  O_2
REMARK    2  A    between atoms: O_2  and  C_3
REMARK    3  A    between atoms: C_10  and  C_11
REMARK    4  A    between atoms: C_12  and  O_13
REMARK    5  A    between atoms: N_19  and  C_20
REMARK                            x       y       z     vdW  Elec       q    Type
REMARK                         _______ _______ _______ _____ _____    ______ ____
ROOT
ATOM      1  C   UNL     1      -2.211   2.998 -24.106  0.00  0.00    +0.162 A 
ATOM      2  C   UNL     1      -1.921   3.495 -25.233  0.00  0.00    +0.050 A 
ATOM      3  C   UNL     1      -0.726   3.659 -25.566  0.00  0.00    +0.008 A 
ATOM      4  C   UNL     1       0.194   3.329 -24.779  0.00  0.00    -0.034 A 
ATOM      5  C   UNL     1      -0.075   2.833 -23.652  0.00  0.00    +0.012 A 
ATOM      6  C   UNL     1       0.843   2.504 -22.869  0.00  0.00    +0.058 C 
ATOM      7  C   UNL     1       1.801   2.095 -21.897  0.00  0.00    +0.067 C 
ATOM      8  C   UNL     1       3.158   2.268 -22.246  0.00  0.00    +0.132 C 
ATOM      9  N   UNL     1       3.442   2.824 -23.510  0.00  0.00    +0.236 N 
ATOM     10  H   UNL     1       4.404   2.972 -23.814  0.00  0.00    +0.203 HD
ATOM     11  C   UNL     1       4.617   3.011 -23.896  0.00  0.00    +0.190 C 
ATOM     12  C   UNL     1       2.325   3.165 -24.328  0.00  0.00    +0.076 C 
ATOM     13  C   UNL     1       2.039   2.668 -23.200  0.00  0.00    +0.075 C 
ATOM     14  C   UNL     1       2.966   2.335 -22.408  0.00  0.00    -0.019 C 
ATOM     15  C   UNL     1       2.689   1.843 -21.290  0.00  0.00    +0.004 C 
ATOM     16  C   UNL     1       1.484   1.675 -20.948  0.00  0.00    +0.181 C 
ATOM     17  C   UNL     1       0.565   2.003 -21.731  0.00  0.00    +0.148 C 
ATOM     18  C   UNL     1       0.012   1.546 -20.706  0.00  0.00    +0.060 C 
ATOM     19  O   UNL     1      -0.922   2.086 -21.974  0.00  0.00    -0.478 OA
ATOM     20  C   UNL     1       1.411   3.494 -25.115  0.00  0.00    +0.090 C 
ATOM     21  C   UNL     1      -1.280   2.665 -23.312  0.00  0.00    +0.167 A 
ENDROOT
BRANCH   1  23
ATOM     22  C   UNL     1      -3.866   3.421 -22.771  0.00  0.00    +0.277 C 
ATOM     23  O   UNL     1      -3.407   2.836 -23.777  0.00  0.00    -0.491 OA
ENDBRANCH   1  23
BRANCH  16  24
ATOM     24  O   UNL     1       1.210   1.182 -19.830  0.00  0.00    -0.384 OA
ATOM     25  H   UNL     1       1.304   0.217 -19.870  0.00  0.00    +0.210 HD
ENDBRANCH  16  24
TORSDOF 2
ENDMDL
MODEL 9
REMARK VINA RESULT:    -9.705      2.116      4.260
REMARK INTER + INTRA:         -10.248
REMARK INTER:                 -10.556
REMARK INTRA:                   0.308
REMARK UNBOUND:                 0.308
REMARK  Name = COc1ccc2c3c1O[C@]1(C)[C@@H](O)C=C[C@H]4[C@@H](C2)N(C)CC[C@]341       ZINC000100393601
REMARK  5 active torsions:
REMARK  status: ('A' for Active; 'I' for Inactive)
REMARK    1  A    between atoms: C_1  and  O_2
REMARK    2  A    between atoms: O_2  and  C_3
REMARK    3  A    between atoms: C_10  and  C_11
REMARK    4  A    between atoms: C_12  and  O_13
REMARK    5  A    between atoms: N_19  and  C_20
REMARK                            x       y       z     vdW  Elec       q    Type
REMARK                         _______ _______ _______ _____ _____    ______ ____
ROOT
ATOM      1  C   UNL     1      -4.581   2.990 -21.417  0.00  0.00    +0.162 A 
ATOM      2  C   UNL     1      -3.771   2.990 -20.445  0.00  0.00    +0.050 A 
ATOM      3  C   UNL     1      -2.541   3.120 -20.643  0.00  0.00    +0.008 A 
ATOM      4  C   UNL     1      -2.107   3.251 -21.813  0.00  0.00    -0.034 A 
ATOM      5  C   UNL     1      -2.898   3.254 -22.793  0.00  0.00    +0.012 A 
ATOM      6  C   UNL     1      -2.463   3.385 -23.958  0.00  0.00    +0.058 C 
ATOM      7  C   UNL     1      -2.084   3.526 -25.325  0.00  0.00    +0.067 C 
ATOM      8  C   UNL     1      -0.704   3.674 -25.578  0.00  0.00    +0.132 C 
ATOM      9  N   UNL     1       0.168   3.669 -24.470  0.00  0.00    +0.236 N 
ATOM     10  H   UNL     1       1.176   3.773 -24.594  0.00  0.00    +0.203 HD
ATOM     11  C   UNL     1       1.405   3.795 -24.608  0.00  0.00    +0.190 C 
ATOM     12  C   UNL     1      -0.426   3.514 -23.184  0.00  0.00    +0.076 C 
ATOM     13  C   UNL     1      -1.234   3.515 -24.159  0.00  0.00    +0.075 C 
ATOM     14  C   UNL     1      -0.796   3.647 -25.336  0.00  0.00    -0.019 C 
ATOM     15  C   UNL     1      -1.590   3.648 -26.305  0.00  0.00    +0.004 C 
ATOM     16  C   UNL     1      -2.832   3.517 -26.111  0.00  0.00    +0.181 C 
ATOM     17  C   UNL     1      -3.268   3.386 -24.946  0.00  0.00    +0.148 C 
ATOM     18  C   UNL     1      -4.263   3.352 -25.704  0.00  0.00    +0.060 C 
ATOM     19  O   UNL     1      -4.475   3.205 -24.059  0.00  0.00    -0.478 OA
ATOM     20  C   UNL     1      -0.857   3.383 -22.017  0.00  0.00    +0.090 C 
ATOM     21  C   UNL     1      -4.139   3.123 -22.598  0.00  0.00    +0.167 A 
ENDROOT
BRANCH   1  23
ATOM     22  C   UNL     1      -6.619   3.009 -22.155  0.00  0.00    +0.277 C 
ATOM     23  O   UNL     1      -5.808   2.860 -21.214  0.00  0.00    -0.491 OA
ENDBRANCH   1  23
BRANCH  16  24
ATOM     24  O   UNL     1      -3.623   3.519 -27.081  0.00  0.00    -0.384 OA
ATOM     25  H   UNL     1      -4.504   3.244 -26.780  0.00  0.00    +0.210 HD
ENDBRANCH  16  24
TORSDOF 2
ENDMDL
