MODEL 1
REMARK VINA RESULT:   -10.365      0.000      0.000
REMARK INTER + INTRA:         -12.733
REMARK INTER:                 -12.365
REMARK INTRA:                  -0.368
REMARK UNBOUND:                -0.247
REMARK  Name = ZINC000000689683
REMARK  5 active torsions:
REMARK  status: ('A' for Active; 'I' for Inactive)
REMARK    1  A    between atoms: C_1  and  O_2
REMARK    2  A    between atoms: O_2  and  C_3
REMARK    3  A    between atoms: C_7  and  O_8
REMARK    4  A    between atoms: O_8  and  C_9
REMARK    5  A    between atoms: C_25  and  O_26
REMARK                            x       y       z     vdW  Elec       q    Type
REMARK                         _______ _______ _______ _____ _____    ______ ____
ROOT
ATOM      1  C   UNL     1       4.839   5.577 -22.553  0.00  0.00    +0.162 A 
ATOM      2  C   UNL     1       3.622   5.247 -22.869  0.00  0.00    +0.061 A 
ATOM      3  C   UNL     1       3.378   4.072 -23.369  0.00  0.00    +0.025 A 
ATOM      4  C   UNL     1       2.161   3.740 -23.685  0.00  0.00    +0.065 A 
ATOM      5  C   UNL     1       1.916   2.565 -24.184  0.00  0.00    +0.213 A 
ATOM      6  C   UNL     1       2.888   1.721 -24.368  0.00  0.00    +0.380 A 
ATOM      7  O   UNL     1       4.104   2.053 -24.052  0.00  0.00    -0.420 OA
ATOM      8  O   UNL     1       2.644   0.546 -24.867  0.00  0.00    -0.241 OA
ATOM      9  C   UNL     1       4.350   3.228 -23.552  0.00  0.00    +0.143 A 
ATOM     10  C   UNL     1       5.566   3.560 -23.236  0.00  0.00    +0.096 A 
ATOM     11  C   UNL     1       5.810   4.734 -22.737  0.00  0.00    +0.162 A 
ENDROOT
BRANCH   1  13
ATOM     12  C   UNL     1       4.148   7.656 -22.033  0.00  0.00    +0.277 C 
ATOM     13  O   UNL     1       5.083   6.754 -22.053  0.00  0.00    -0.491 OA
ENDBRANCH   1  13
BRANCH  11  14
ATOM     14  O   UNL     1       7.028   5.066 -22.421  0.00  0.00    -0.503 OA
ATOM     15  H   UNL     1       7.735   4.854 -22.998  0.00  0.00    +0.292 HD
ENDBRANCH  11  14
BRANCH   5  16
ATOM     16  O   UNL     1       0.700   2.234 -24.500  0.00  0.00    -0.449 OA
BRANCH  16  17
ATOM     17  C   UNL     1      -0.249   2.328 -23.617  0.00  0.00    +0.132 A 
ATOM     18  C   UNL     1      -0.014   2.027 -22.374  0.00  0.00    +0.047 A 
ATOM     19  C   UNL     1      -0.964   2.122 -21.491  0.00  0.00    +0.015 A 
ATOM     20  C   UNL     1      -2.149   2.518 -21.851  0.00  0.00    +0.018 A 
ATOM     21  C   UNL     1      -3.098   2.613 -20.968  0.00  0.00    +0.018 A 
ATOM     22  C   UNL     1      -4.284   3.009 -21.329  0.00  0.00    +0.092 A 
ATOM     23  C   UNL     1      -4.519   3.310 -22.571  0.00  0.00    +0.337 A 
ATOM     24  O   UNL     1      -3.569   3.215 -23.454  0.00  0.00    -0.422 OA
ATOM     25  O   UNL     1      -5.703   3.705 -22.931  0.00  0.00    -0.245 OA
ATOM     26  C   UNL     1      -2.384   2.819 -23.094  0.00  0.00    +0.143 A 
ATOM     27  C   UNL     1      -1.435   2.724 -23.977  0.00  0.00    +0.093 A 
ENDBRANCH  16  17
ENDBRANCH   5  16
TORSDOF 4
ENDMDL
MODEL 2
REMARK VINA RESULT:   -10.131      1.746      7.860
REMARK INTER + INTRA:         -12.451
REMARK INTER:                 -12.193
REMARK INTRA:                  -0.258
REMARK UNBOUND:                -0.247
REMARK  Name = ZINC000000689683
REMARK  5 active torsions:
REMARK  status: ('A' for Active; 'I' for Inactive)
REMARK    1  A    between atoms: C_1  and  O_2
REMARK    2  A    between atoms: O_2  and  C_3
REMARK    3  A    between atoms: C_7  and  O_8
REMARK    4  A    between atoms: O_8  and  C_9
REMARK    5  A    between atoms: C_25  and  O_26
REMARK                            x       y       z     vdW  Elec       q    Type
REMARK                         _______ _______ _______ _____ _____    ______ ____
ROOT
ATOM      1  C   UNL     1      -4.025   3.456 -23.725  0.00  0.00    +0.162 A 
ATOM      2  C   UNL     1      -2.827   3.073 -24.054  0.00  0.00    +0.061 A 
ATOM      3  C   UNL     1      -2.017   2.621 -23.143  0.00  0.00    +0.025 A 
ATOM      4  C   UNL     1      -0.818   2.238 -23.470  0.00  0.00    +0.065 A 
ATOM      5  C   UNL     1      -0.008   1.786 -22.559  0.00  0.00    +0.213 A 
ATOM      6  C   UNL     1      -0.396   1.718 -21.320  0.00  0.00    +0.380 A 
ATOM      7  O   UNL     1      -1.594   2.101 -20.992  0.00  0.00    -0.420 OA
ATOM      8  O   UNL     1       0.413   1.267 -20.409  0.00  0.00    -0.241 OA
ATOM      9  C   UNL     1      -2.405   2.553 -21.904  0.00  0.00    +0.143 A 
ATOM     10  C   UNL     1      -3.603   2.936 -21.576  0.00  0.00    +0.096 A 
ATOM     11  C   UNL     1      -4.413   3.387 -22.487  0.00  0.00    +0.162 A 
ENDROOT
BRANCH   1  13
ATOM     12  C   UNL     1      -4.807   3.406 -25.836  0.00  0.00    +0.277 C 
ATOM     13  O   UNL     1      -4.835   3.907 -24.637  0.00  0.00    -0.491 OA
ENDBRANCH   1  13
BRANCH  11  14
ATOM     14  O   UNL     1      -5.612   3.771 -22.158  0.00  0.00    -0.503 OA
ATOM     15  H   UNL     1      -6.035   3.394 -21.412  0.00  0.00    +0.292 HD
ENDBRANCH  11  14
BRANCH   5  16
ATOM     16  O   UNL     1       1.189   1.403 -22.887  0.00  0.00    -0.449 OA
BRANCH  16  17
ATOM     17  C   UNL     1       2.158   2.269 -22.936  0.00  0.00    +0.132 A 
ATOM     18  C   UNL     1       2.112   3.248 -23.791  0.00  0.00    +0.047 A 
ATOM     19  C   UNL     1       3.081   4.114 -23.840  0.00  0.00    +0.015 A 
ATOM     20  C   UNL     1       4.095   4.001 -23.035  0.00  0.00    +0.018 A 
ATOM     21  C   UNL     1       5.063   4.867 -23.084  0.00  0.00    +0.018 A 
ATOM     22  C   UNL     1       6.078   4.753 -22.278  0.00  0.00    +0.092 A 
ATOM     23  C   UNL     1       6.124   3.774 -21.424  0.00  0.00    +0.337 A 
ATOM     24  O   UNL     1       5.155   2.908 -21.375  0.00  0.00    -0.422 OA
ATOM     25  O   UNL     1       7.138   3.661 -20.619  0.00  0.00    -0.245 OA
ATOM     26  C   UNL     1       4.141   3.022 -22.180  0.00  0.00    +0.143 A 
ATOM     27  C   UNL     1       3.173   2.156 -22.131  0.00  0.00    +0.093 A 
ENDBRANCH  16  17
ENDBRANCH   5  16
TORSDOF 4
ENDMDL
MODEL 3
REMARK VINA RESULT:    -9.436      1.730      2.804
REMARK INTER + INTRA:         -11.613
REMARK INTER:                 -11.536
REMARK INTRA:                  -0.077
REMARK UNBOUND:                -0.247
REMARK  Name = ZINC000000689683
REMARK  5 active torsions:
REMARK  status: ('A' for Active; 'I' for Inactive)
REMARK    1  A    between atoms: C_1  and  O_2
REMARK    2  A    between atoms: O_2  and  C_3
REMARK    3  A    between atoms: C_7  and  O_8
REMARK    4  A    between atoms: O_8  and  C_9
REMARK    5  A    between atoms: C_25  and  O_26
REMARK                            x       y       z     vdW  Elec       q    Type
REMARK                         _______ _______ _______ _____ _____    ______ ____
ROOT
ATOM      1  C   UNL     1       5.083   1.404 -22.163  0.00  0.00    +0.162 A 
ATOM      2  C   UNL     1       3.866   1.221 -22.583  0.00  0.00    +0.061 A 
ATOM      3  C   UNL     1       3.190   2.219 -23.067  0.00  0.00    +0.025 A 
ATOM      4  C   UNL     1       1.973   2.037 -23.488  0.00  0.00    +0.065 A 
ATOM      5  C   UNL     1       1.296   3.036 -23.972  0.00  0.00    +0.213 A 
ATOM      6  C   UNL     1       1.836   4.217 -24.036  0.00  0.00    +0.380 A 
ATOM      7  O   UNL     1       3.052   4.399 -23.616  0.00  0.00    -0.420 OA
ATOM      8  O   UNL     1       1.159   5.215 -24.521  0.00  0.00    -0.241 OA
ATOM      9  C   UNL     1       3.729   3.400 -23.132  0.00  0.00    +0.143 A 
ATOM     10  C   UNL     1       4.946   3.582 -22.712  0.00  0.00    +0.096 A 
ATOM     11  C   UNL     1       5.622   2.584 -22.227  0.00  0.00    +0.162 A 
ENDROOT
BRANCH   1  13
ATOM     12  C   UNL     1       5.332  -0.216 -20.619  0.00  0.00    +0.277 C 
ATOM     13  O   UNL     1       5.760   0.404 -21.678  0.00  0.00    -0.491 OA
ENDBRANCH   1  13
BRANCH  11  14
ATOM     14  O   UNL     1       6.840   2.767 -21.807  0.00  0.00    -0.503 OA
ATOM     15  H   UNL     1       6.998   3.284 -21.041  0.00  0.00    +0.292 HD
ENDBRANCH  11  14
BRANCH   5  16
ATOM     16  O   UNL     1       0.080   2.853 -24.392  0.00  0.00    -0.449 OA
BRANCH  16  17
ATOM     17  C   UNL     1      -0.895   2.760 -23.538  0.00  0.00    +0.132 A 
ATOM     18  C   UNL     1      -0.672   2.296 -22.344  0.00  0.00    +0.047 A 
ATOM     19  C   UNL     1      -1.648   2.203 -21.490  0.00  0.00    +0.015 A 
ATOM     20  C   UNL     1      -2.847   2.573 -21.829  0.00  0.00    +0.018 A 
ATOM     21  C   UNL     1      -3.822   2.479 -20.975  0.00  0.00    +0.018 A 
ATOM     22  C   UNL     1      -5.022   2.850 -21.315  0.00  0.00    +0.092 A 
ATOM     23  C   UNL     1      -5.245   3.313 -22.509  0.00  0.00    +0.337 A 
ATOM     24  O   UNL     1      -4.269   3.406 -23.363  0.00  0.00    -0.422 OA
ATOM     25  O   UNL     1      -6.444   3.683 -22.848  0.00  0.00    -0.245 OA
ATOM     26  C   UNL     1      -3.070   3.036 -23.023  0.00  0.00    +0.143 A 
ATOM     27  C   UNL     1      -2.095   3.130 -23.877  0.00  0.00    +0.093 A 
ENDBRANCH  16  17
ENDBRANCH   5  16
TORSDOF 4
ENDMDL
MODEL 4
REMARK VINA RESULT:    -9.365      1.607      2.348
REMARK INTER + INTRA:         -11.528
REMARK INTER:                 -10.993
REMARK INTRA:                  -0.535
REMARK UNBOUND:                -0.247
REMARK  Name = ZINC000000689683
REMARK  5 active torsions:
REMARK  status: ('A' for Active; 'I' for Inactive)
REMARK    1  A    between atoms: C_1  and  O_2
REMARK    2  A    between atoms: O_2  and  C_3
REMARK    3  A    between atoms: C_7  and  O_8
REMARK    4  A    between atoms: O_8  and  C_9
REMARK    5  A    between atoms: C_25  and  O_26
REMARK                            x       y       z     vdW  Elec       q    Type
REMARK                         _______ _______ _______ _____ _____    ______ ____
ROOT
ATOM      1  C   UNL     1       6.325   4.921 -22.060  0.00  0.00    +0.162 A 
ATOM      2  C   UNL     1       5.394   4.596 -22.906  0.00  0.00    +0.061 A 
ATOM      3  C   UNL     1       4.794   3.447 -22.802  0.00  0.00    +0.025 A 
ATOM      4  C   UNL     1       3.862   3.120 -23.647  0.00  0.00    +0.065 A 
ATOM      5  C   UNL     1       3.262   1.972 -23.542  0.00  0.00    +0.213 A 
ATOM      6  C   UNL     1       3.595   1.150 -22.592  0.00  0.00    +0.380 A 
ATOM      7  O   UNL     1       4.526   1.476 -21.747  0.00  0.00    -0.420 OA
ATOM      8  O   UNL     1       2.995   0.001 -22.487  0.00  0.00    -0.241 OA
ATOM      9  C   UNL     1       5.126   2.625 -21.851  0.00  0.00    +0.143 A 
ATOM     10  C   UNL     1       6.058   2.951 -21.006  0.00  0.00    +0.096 A 
ATOM     11  C   UNL     1       6.657   4.099 -21.111  0.00  0.00    +0.162 A 
ENDROOT
BRANCH   1  13
ATOM     12  C   UNL     1       6.314   7.158 -21.796  0.00  0.00    +0.277 C 
ATOM     13  O   UNL     1       6.925   6.071 -22.166  0.00  0.00    -0.491 OA
ENDBRANCH   1  13
BRANCH  11  14
ATOM     14  O   UNL     1       7.590   4.426 -20.264  0.00  0.00    -0.503 OA
ATOM     15  H   UNL     1       8.141   5.164 -20.437  0.00  0.00    +0.292 HD
ENDBRANCH  11  14
BRANCH   5  16
ATOM     16  O   UNL     1       2.331   1.646 -24.388  0.00  0.00    -0.449 OA
BRANCH  16  17
ATOM     17  C   UNL     1       1.199   2.284 -24.385  0.00  0.00    +0.132 A 
ATOM     18  C   UNL     1       0.969   3.204 -25.275  0.00  0.00    +0.047 A 
ATOM     19  C   UNL     1      -0.164   3.843 -25.272  0.00  0.00    +0.015 A 
ATOM     20  C   UNL     1      -1.067   3.561 -24.380  0.00  0.00    +0.018 A 
ATOM     21  C   UNL     1      -2.199   4.200 -24.377  0.00  0.00    +0.018 A 
ATOM     22  C   UNL     1      -3.102   3.918 -23.484  0.00  0.00    +0.092 A 
ATOM     23  C   UNL     1      -2.872   2.998 -22.595  0.00  0.00    +0.337 A 
ATOM     24  O   UNL     1      -1.739   2.360 -22.598  0.00  0.00    -0.422 OA
ATOM     25  O   UNL     1      -3.774   2.717 -21.702  0.00  0.00    -0.245 OA
ATOM     26  C   UNL     1      -0.837   2.642 -23.490  0.00  0.00    +0.143 A 
ATOM     27  C   UNL     1       0.295   2.003 -23.493  0.00  0.00    +0.093 A 
ENDBRANCH  16  17
ENDBRANCH   5  16
TORSDOF 4
ENDMDL
MODEL 5
REMARK VINA RESULT:    -9.353      2.180      7.810
REMARK INTER + INTRA:         -11.514
REMARK INTER:                 -11.522
REMARK INTRA:                   0.008
REMARK UNBOUND:                -0.247
REMARK  Name = ZINC000000689683
REMARK  5 active torsions:
REMARK  status: ('A' for Active; 'I' for Inactive)
REMARK    1  A    between atoms: C_1  and  O_2
REMARK    2  A    between atoms: O_2  and  C_3
REMARK    3  A    between atoms: C_7  and  O_8
REMARK    4  A    between atoms: O_8  and  C_9
REMARK    5  A    between atoms: C_25  and  O_26
REMARK                            x       y       z     vdW  Elec       q    Type
REMARK                         _______ _______ _______ _____ _____    ______ ____
ROOT
ATOM      1  C   UNL     1      -4.423   3.724 -24.085  0.00  0.00    +0.162 A 
ATOM      2  C   UNL     1      -3.348   4.083 -23.449  0.00  0.00    +0.061 A 
ATOM      3  C   UNL     1      -2.201   4.079 -24.060  0.00  0.00    +0.025 A 
ATOM      4  C   UNL     1      -1.124   4.438 -23.425  0.00  0.00    +0.065 A 
ATOM      5  C   UNL     1       0.023   4.434 -24.037  0.00  0.00    +0.213 A 
ATOM      6  C   UNL     1       0.094   4.070 -25.283  0.00  0.00    +0.380 A 
ATOM      7  O   UNL     1      -0.981   3.711 -25.918  0.00  0.00    -0.420 OA
ATOM      8  O   UNL     1       1.241   4.066 -25.894  0.00  0.00    -0.241 OA
ATOM      9  C   UNL     1      -2.129   3.716 -25.306  0.00  0.00    +0.143 A 
ATOM     10  C   UNL     1      -3.205   3.357 -25.941  0.00  0.00    +0.096 A 
ATOM     11  C   UNL     1      -4.352   3.361 -25.330  0.00  0.00    +0.162 A 
ENDROOT
BRANCH   1  13
ATOM     12  C   UNL     1      -5.651   3.320 -22.240  0.00  0.00    +0.277 C 
ATOM     13  O   UNL     1      -5.571   3.728 -23.472  0.00  0.00    -0.491 OA
ENDBRANCH   1  13
BRANCH  11  14
ATOM     14  O   UNL     1      -5.429   3.001 -25.966  0.00  0.00    -0.503 OA
ATOM     15  H   UNL     1      -5.967   2.315 -25.623  0.00  0.00    +0.292 HD
ENDBRANCH  11  14
BRANCH   5  16
ATOM     16  O   UNL     1       1.099   4.793 -23.402  0.00  0.00    -0.449 OA
BRANCH  16  17
ATOM     17  C   UNL     1       1.987   3.902 -23.073  0.00  0.00    +0.132 A 
ATOM     18  C   UNL     1       1.611   2.768 -22.561  0.00  0.00    +0.047 A 
ATOM     19  C   UNL     1       2.500   1.877 -22.232  0.00  0.00    +0.015 A 
ATOM     20  C   UNL     1       3.763   2.121 -22.415  0.00  0.00    +0.018 A 
ATOM     21  C   UNL     1       4.651   1.230 -22.086  0.00  0.00    +0.018 A 
ATOM     22  C   UNL     1       5.916   1.475 -22.269  0.00  0.00    +0.092 A 
ATOM     23  C   UNL     1       6.291   2.609 -22.781  0.00  0.00    +0.337 A 
ATOM     24  O   UNL     1       5.402   3.500 -23.111  0.00  0.00    -0.422 OA
ATOM     25  O   UNL     1       7.555   2.853 -22.965  0.00  0.00    -0.245 OA
ATOM     26  C   UNL     1       4.139   3.255 -22.927  0.00  0.00    +0.143 A 
ATOM     27  C   UNL     1       3.251   4.146 -23.256  0.00  0.00    +0.093 A 
ENDBRANCH  16  17
ENDBRANCH   5  16
TORSDOF 4
ENDMDL
MODEL 6
REMARK VINA RESULT:    -9.349      2.014      7.548
REMARK INTER + INTRA:         -11.508
REMARK INTER:                 -11.261
REMARK INTRA:                  -0.247
REMARK UNBOUND:                -0.247
REMARK  Name = ZINC000000689683
REMARK  5 active torsions:
REMARK  status: ('A' for Active; 'I' for Inactive)
REMARK    1  A    between atoms: C_1  and  O_2
REMARK    2  A    between atoms: O_2  and  C_3
REMARK    3  A    between atoms: C_7  and  O_8
REMARK    4  A    between atoms: O_8  and  C_9
REMARK    5  A    between atoms: C_25  and  O_26
REMARK                            x       y       z     vdW  Elec       q    Type
REMARK                         _______ _______ _______ _____ _____    ______ ____
ROOT
ATOM      1  C   UNL     1      -4.102   3.188 -21.689  0.00  0.00    +0.162 A 
ATOM      2  C   UNL     1      -2.964   3.167 -22.318  0.00  0.00    +0.061 A 
ATOM      3  C   UNL     1      -2.932   3.327 -23.607  0.00  0.00    +0.025 A 
ATOM      4  C   UNL     1      -1.794   3.306 -24.237  0.00  0.00    +0.065 A 
ATOM      5  C   UNL     1      -1.762   3.466 -25.527  0.00  0.00    +0.213 A 
ATOM      6  C   UNL     1      -2.867   3.647 -26.187  0.00  0.00    +0.380 A 
ATOM      7  O   UNL     1      -4.004   3.668 -25.558  0.00  0.00    -0.420 OA
ATOM      8  O   UNL     1      -2.835   3.807 -27.476  0.00  0.00    -0.241 OA
ATOM      9  C   UNL     1      -4.037   3.508 -24.268  0.00  0.00    +0.143 A 
ATOM     10  C   UNL     1      -5.174   3.529 -23.638  0.00  0.00    +0.096 A 
ATOM     11  C   UNL     1      -5.206   3.369 -22.349  0.00  0.00    +0.162 A 
ENDROOT
BRANCH   1  13
ATOM     12  C   UNL     1      -3.303   3.683 -19.642  0.00  0.00    +0.277 C 
ATOM     13  O   UNL     1      -4.133   3.027 -20.398  0.00  0.00    -0.491 OA
ENDBRANCH   1  13
BRANCH  11  14
ATOM     14  O   UNL     1      -6.344   3.390 -21.719  0.00  0.00    -0.503 OA
ATOM     15  H   UNL     1      -7.139   3.214 -22.184  0.00  0.00    +0.292 HD
ENDBRANCH  11  14
BRANCH   5  16
ATOM     16  O   UNL     1      -0.625   3.445 -26.156  0.00  0.00    -0.449 OA
BRANCH  16  17
ATOM     17  C   UNL     1       0.488   3.494 -25.487  0.00  0.00    +0.132 A 
ATOM     18  C   UNL     1       1.281   2.464 -25.468  0.00  0.00    +0.047 A 
ATOM     19  C   UNL     1       2.395   2.514 -24.798  0.00  0.00    +0.015 A 
ATOM     20  C   UNL     1       2.716   3.593 -24.149  0.00  0.00    +0.018 A 
ATOM     21  C   UNL     1       3.829   3.642 -23.480  0.00  0.00    +0.018 A 
ATOM     22  C   UNL     1       4.150   4.723 -22.830  0.00  0.00    +0.092 A 
ATOM     23  C   UNL     1       3.357   5.753 -22.850  0.00  0.00    +0.337 A 
ATOM     24  O   UNL     1       2.243   5.703 -23.519  0.00  0.00    -0.422 OA
ATOM     25  O   UNL     1       3.677   6.832 -22.200  0.00  0.00    -0.245 OA
ATOM     26  C   UNL     1       1.923   4.623 -24.168  0.00  0.00    +0.143 A 
ATOM     27  C   UNL     1       0.809   4.574 -24.837  0.00  0.00    +0.093 A 
ENDBRANCH  16  17
ENDBRANCH   5  16
TORSDOF 4
ENDMDL
MODEL 7
REMARK VINA RESULT:    -9.266      1.425      7.292
REMARK INTER + INTRA:         -11.409
REMARK INTER:                 -11.271
REMARK INTRA:                  -0.138
REMARK UNBOUND:                -0.247
REMARK  Name = ZINC000000689683
REMARK  5 active torsions:
REMARK  status: ('A' for Active; 'I' for Inactive)
REMARK    1  A    between atoms: C_1  and  O_2
REMARK    2  A    between atoms: O_2  and  C_3
REMARK    3  A    between atoms: C_7  and  O_8
REMARK    4  A    between atoms: O_8  and  C_9
REMARK    5  A    between atoms: C_25  and  O_26
REMARK                            x       y       z     vdW  Elec       q    Type
REMARK                         _______ _______ _______ _____ _____    ______ ____
ROOT
ATOM      1  C   UNL     1      -3.079   3.514 -23.294  0.00  0.00    +0.162 A 
ATOM      2  C   UNL     1      -1.920   3.502 -23.884  0.00  0.00    +0.061 A 
ATOM      3  C   UNL     1      -0.930   2.848 -23.355  0.00  0.00    +0.025 A 
ATOM      4  C   UNL     1       0.230   2.835 -23.944  0.00  0.00    +0.065 A 
ATOM      5  C   UNL     1       1.220   2.181 -23.415  0.00  0.00    +0.213 A 
ATOM      6  C   UNL     1       1.052   1.538 -22.297  0.00  0.00    +0.380 A 
ATOM      7  O   UNL     1      -0.106   1.550 -21.708  0.00  0.00    -0.420 OA
ATOM      8  O   UNL     1       2.043   0.884 -21.768  0.00  0.00    -0.241 OA
ATOM      9  C   UNL     1      -1.098   2.205 -22.237  0.00  0.00    +0.143 A 
ATOM     10  C   UNL     1      -2.257   2.217 -21.649  0.00  0.00    +0.096 A 
ATOM     11  C   UNL     1      -3.247   2.872 -22.178  0.00  0.00    +0.162 A 
ENDROOT
BRANCH   1  13
ATOM     12  C   UNL     1      -4.599   3.757 -24.938  0.00  0.00    +0.277 C 
ATOM     13  O   UNL     1      -4.070   4.169 -23.824  0.00  0.00    -0.491 OA
ENDBRANCH   1  13
BRANCH  11  14
ATOM     14  O   UNL     1      -4.407   2.884 -21.588  0.00  0.00    -0.503 OA
ATOM     15  H   UNL     1      -4.721   3.672 -21.189  0.00  0.00    +0.292 HD
ENDBRANCH  11  14
BRANCH   5  16
ATOM     16  O   UNL     1       2.379   2.168 -24.003  0.00  0.00    -0.449 OA
BRANCH  16  17
ATOM     17  C   UNL     1       3.306   3.000 -23.630  0.00  0.00    +0.132 A 
ATOM     18  C   UNL     1       4.552   2.628 -23.632  0.00  0.00    +0.047 A 
ATOM     19  C   UNL     1       5.479   3.460 -23.259  0.00  0.00    +0.015 A 
ATOM     20  C   UNL     1       5.160   4.663 -22.883  0.00  0.00    +0.018 A 
ATOM     21  C   UNL     1       6.087   5.494 -22.510  0.00  0.00    +0.018 A 
ATOM     22  C   UNL     1       5.768   6.698 -22.134  0.00  0.00    +0.092 A 
ATOM     23  C   UNL     1       4.522   7.069 -22.132  0.00  0.00    +0.337 A 
ATOM     24  O   UNL     1       3.595   6.237 -22.506  0.00  0.00    -0.422 OA
ATOM     25  O   UNL     1       4.203   8.272 -21.757  0.00  0.00    -0.245 OA
ATOM     26  C   UNL     1       3.914   5.034 -22.881  0.00  0.00    +0.143 A 
ATOM     27  C   UNL     1       2.987   4.203 -23.254  0.00  0.00    +0.093 A 
ENDBRANCH  16  17
ENDBRANCH   5  16
TORSDOF 4
ENDMDL
MODEL 8
REMARK VINA RESULT:    -9.252      2.105      7.908
REMARK INTER + INTRA:         -11.392
REMARK INTER:                 -10.941
REMARK INTRA:                  -0.451
REMARK UNBOUND:                -0.247
REMARK  Name = ZINC000000689683
REMARK  5 active torsions:
REMARK  status: ('A' for Active; 'I' for Inactive)
REMARK    1  A    between atoms: C_1  and  O_2
REMARK    2  A    between atoms: O_2  and  C_3
REMARK    3  A    between atoms: C_7  and  O_8
REMARK    4  A    between atoms: O_8  and  C_9
REMARK    5  A    between atoms: C_25  and  O_26
REMARK                            x       y       z     vdW  Elec       q    Type
REMARK                         _______ _______ _______ _____ _____    ______ ____
ROOT
ATOM      1  C   UNL     1      -1.181   2.995 -23.294  0.00  0.00    +0.162 A 
ATOM      2  C   UNL     1       0.073   2.894 -23.623  0.00  0.00    +0.061 A 
ATOM      3  C   UNL     1       0.900   2.263 -22.843  0.00  0.00    +0.025 A 
ATOM      4  C   UNL     1       2.154   2.162 -23.170  0.00  0.00    +0.065 A 
ATOM      5  C   UNL     1       2.981   1.531 -22.390  0.00  0.00    +0.213 A 
ATOM      6  C   UNL     1       2.553   1.001 -21.283  0.00  0.00    +0.380 A 
ATOM      7  O   UNL     1       1.300   1.102 -20.955  0.00  0.00    -0.420 OA
ATOM      8  O   UNL     1       3.380   0.370 -20.503  0.00  0.00    -0.241 OA
ATOM      9  C   UNL     1       0.472   1.733 -21.735  0.00  0.00    +0.143 A 
ATOM     10  C   UNL     1      -0.781   1.834 -21.408  0.00  0.00    +0.096 A 
ATOM     11  C   UNL     1      -1.608   2.465 -22.188  0.00  0.00    +0.162 A 
ENDROOT
BRANCH   1  13
ATOM     12  C   UNL     1      -1.840   3.589 -25.364  0.00  0.00    +0.277 C 
ATOM     13  O   UNL     1      -2.008   3.627 -24.075  0.00  0.00    -0.491 OA
ENDBRANCH   1  13
BRANCH  11  14
ATOM     14  O   UNL     1      -2.863   2.566 -21.859  0.00  0.00    -0.503 OA
ATOM     15  H   UNL     1      -3.142   2.320 -20.999  0.00  0.00    +0.292 HD
ENDBRANCH  11  14
BRANCH   5  16
ATOM     16  O   UNL     1       4.234   1.430 -22.718  0.00  0.00    -0.449 OA
BRANCH  16  17
ATOM     17  C   UNL     1       5.014   2.466 -22.631  0.00  0.00    +0.132 A 
ATOM     18  C   UNL     1       5.114   3.290 -23.632  0.00  0.00    +0.047 A 
ATOM     19  C   UNL     1       5.894   4.327 -23.545  0.00  0.00    +0.015 A 
ATOM     20  C   UNL     1       6.573   4.540 -22.458  0.00  0.00    +0.018 A 
ATOM     21  C   UNL     1       7.353   5.576 -22.371  0.00  0.00    +0.018 A 
ATOM     22  C   UNL     1       8.033   5.789 -21.283  0.00  0.00    +0.092 A 
ATOM     23  C   UNL     1       7.933   4.965 -20.282  0.00  0.00    +0.337 A 
ATOM     24  O   UNL     1       7.153   3.928 -20.369  0.00  0.00    -0.422 OA
ATOM     25  O   UNL     1       8.613   5.178 -19.195  0.00  0.00    -0.245 OA
ATOM     26  C   UNL     1       6.473   3.716 -21.457  0.00  0.00    +0.143 A 
ATOM     27  C   UNL     1       5.694   2.680 -21.544  0.00  0.00    +0.093 A 
ENDBRANCH  16  17
ENDBRANCH   5  16
TORSDOF 4
ENDMDL
MODEL 9
REMARK VINA RESULT:    -9.172      1.312      7.212
REMARK INTER + INTRA:         -11.295
REMARK INTER:                 -11.233
REMARK INTRA:                  -0.062
REMARK UNBOUND:                -0.247
REMARK  Name = ZINC000000689683
REMARK  5 active torsions:
REMARK  status: ('A' for Active; 'I' for Inactive)
REMARK    1  A    between atoms: C_1  and  O_2
REMARK    2  A    between atoms: O_2  and  C_3
REMARK    3  A    between atoms: C_7  and  O_8
REMARK    4  A    between atoms: O_8  and  C_9
REMARK    5  A    between atoms: C_25  and  O_26
REMARK                            x       y       z     vdW  Elec       q    Type
REMARK                         _______ _______ _______ _____ _____    ______ ____
ROOT
ATOM      1  C   UNL     1      -2.703   2.911 -21.994  0.00  0.00    +0.162 A 
ATOM      2  C   UNL     1      -1.446   2.578 -21.974  0.00  0.00    +0.061 A 
ATOM      3  C   UNL     1      -0.718   2.729 -23.040  0.00  0.00    +0.025 A 
ATOM      4  C   UNL     1       0.539   2.396 -23.021  0.00  0.00    +0.065 A 
ATOM      5  C   UNL     1       1.267   2.547 -24.087  0.00  0.00    +0.213 A 
ATOM      6  C   UNL     1       0.739   3.030 -25.172  0.00  0.00    +0.380 A 
ATOM      7  O   UNL     1      -0.517   3.362 -25.192  0.00  0.00    -0.420 OA
ATOM      8  O   UNL     1       1.467   3.181 -26.239  0.00  0.00    -0.241 OA
ATOM      9  C   UNL     1      -1.246   3.212 -24.125  0.00  0.00    +0.143 A 
ATOM     10  C   UNL     1      -2.503   3.544 -24.144  0.00  0.00    +0.096 A 
ATOM     11  C   UNL     1      -3.231   3.393 -23.078  0.00  0.00    +0.162 A 
ENDROOT
BRANCH   1  13
ATOM     12  C   UNL     1      -3.245   3.534 -19.899  0.00  0.00    +0.277 C 
ATOM     13  O   UNL     1      -3.432   2.760 -20.926  0.00  0.00    -0.491 OA
ENDBRANCH   1  13
BRANCH  11  14
ATOM     14  O   UNL     1      -4.488   3.726 -23.098  0.00  0.00    -0.503 OA
ATOM     15  H   UNL     1      -4.737   4.601 -23.324  0.00  0.00    +0.292 HD
ENDBRANCH  11  14
BRANCH   5  16
ATOM     16  O   UNL     1       2.523   2.215 -24.068  0.00  0.00    -0.449 OA
BRANCH  16  17
ATOM     17  C   UNL     1       3.417   3.075 -23.679  0.00  0.00    +0.132 A 
ATOM     18  C   UNL     1       4.678   2.758 -23.702  0.00  0.00    +0.047 A 
ATOM     19  C   UNL     1       5.571   3.619 -23.312  0.00  0.00    +0.015 A 
ATOM     20  C   UNL     1       5.204   4.796 -22.900  0.00  0.00    +0.018 A 
ATOM     21  C   UNL     1       6.098   5.656 -22.511  0.00  0.00    +0.018 A 
ATOM     22  C   UNL     1       5.730   6.833 -22.099  0.00  0.00    +0.092 A 
ATOM     23  C   UNL     1       4.469   7.150 -22.076  0.00  0.00    +0.337 A 
ATOM     24  O   UNL     1       3.576   6.289 -22.466  0.00  0.00    -0.422 OA
ATOM     25  O   UNL     1       4.102   8.327 -21.664  0.00  0.00    -0.245 OA
ATOM     26  C   UNL     1       3.944   5.112 -22.878  0.00  0.00    +0.143 A 
ATOM     27  C   UNL     1       3.050   4.252 -23.267  0.00  0.00    +0.093 A 
ENDBRANCH  16  17
ENDBRANCH   5  16
TORSDOF 4
ENDMDL
