MODEL 1
REMARK VINA RESULT:    -9.853      0.000      0.000
REMARK INTER + INTRA:         -15.375
REMARK INTER:                 -14.307
REMARK INTRA:                  -1.068
REMARK UNBOUND:                 1.391
REMARK  Name = ZINC000028218749
REMARK  16 active torsions:
REMARK  status: ('A' for Active; 'I' for Inactive)
REMARK    1  A    between atoms: C_1  and  C_2
REMARK    2  A    between atoms: C_2  and  O_3
REMARK    3  A    between atoms: O_3  and  C_4
REMARK    4  A    between atoms: C_6  and  O_7
REMARK    5  A    between atoms: O_7  and  C_8
REMARK    6  A    between atoms: C_8  and  C_9
REMARK    7  A    between atoms: C_13  and  O_14
REMARK    8  A    between atoms: O_14  and  C_15
REMARK    9  A    between atoms: C_15  and  C_16
REMARK   10  A    between atoms: C_19  and  C_20
REMARK   11  A    between atoms: C_23  and  O_24
REMARK   12  A    between atoms: O_24  and  C_25
REMARK   13  A    between atoms: C_25  and  C_26
REMARK   14  A    between atoms: C_27  and  O_28
REMARK   15  A    between atoms: O_28  and  C_29
REMARK   16  A    between atoms: C_29  and  C_30
REMARK                            x       y       z     vdW  Elec       q    Type
REMARK                         _______ _______ _______ _____ _____    ______ ____
ROOT
ATOM      1  C   UNL     1       4.828   7.114 -22.141  0.00  0.00    +0.127 A 
ATOM      2  C   UNL     1       5.787   6.248 -22.288  0.00  0.00    +0.092 A 
ATOM      3  C   UNL     1       5.521   5.051 -22.719  0.00  0.00    +0.138 A 
ATOM      4  C   UNL     1       4.297   4.718 -23.003  0.00  0.00    +0.109 A 
ATOM      5  C   UNL     1       4.031   3.522 -23.434  0.00  0.00    +0.238 A 
ATOM      6  C   UNL     1       2.807   3.190 -23.718  0.00  0.00    +0.211 A 
ATOM      7  C   UNL     1       1.848   4.055 -23.571  0.00  0.00    +0.181 A 
ATOM      8  O   UNL     1       2.114   5.253 -23.140  0.00  0.00    -0.451 OA
ATOM      9  O   UNL     1       4.990   2.656 -23.581  0.00  0.00    -0.283 OA
ATOM     10  C   UNL     1       3.338   5.584 -22.856  0.00  0.00    +0.147 A 
ATOM     11  C   UNL     1       3.604   6.782 -22.425  0.00  0.00    +0.092 A 
ENDROOT
BRANCH   7  12
ATOM     12  C   UNL     1       0.624   3.724 -23.854  0.00  0.00    +0.025 A 
ATOM     13  C   UNL     1       0.191   3.819 -25.076  0.00  0.00    +0.015 A 
ATOM     14  C   UNL     1      -1.034   3.487 -25.360  0.00  0.00    +0.050 A 
ATOM     15  C   UNL     1      -1.826   3.061 -24.421  0.00  0.00    +0.162 A 
ATOM     16  C   UNL     1      -1.393   2.966 -23.199  0.00  0.00    +0.163 A 
ATOM     17  C   UNL     1      -0.168   3.297 -22.916  0.00  0.00    +0.061 A 
BRANCH  16  18
ATOM     18  O   UNL     1      -2.184   2.539 -22.261  0.00  0.00    -0.489 OA
BRANCH  18  19
ATOM     19  C   UNL     1      -2.446   3.297 -21.237  0.00  0.00    +0.226 C 
ATOM     20  C   UNL     1      -3.677   3.480 -20.862  0.00  0.00    +0.048 C 
ENDBRANCH  18  19
ENDBRANCH  16  18
BRANCH  15  21
ATOM     21  O   UNL     1      -3.050   2.729 -24.705  0.00  0.00    -0.489 OA
BRANCH  21  22
ATOM     22  C   UNL     1      -3.865   3.613 -25.200  0.00  0.00    +0.226 C 
ATOM     23  C   UNL     1      -4.749   4.182 -24.435  0.00  0.00    +0.048 C 
ENDBRANCH  21  22
ENDBRANCH  15  21
ENDBRANCH   7  12
BRANCH   1  24
ATOM     24  O   UNL     1       5.094   8.311 -21.711  0.00  0.00    -0.492 OA
BRANCH  24  26
ATOM     25  C   UNL     1       4.192   9.998 -20.522  0.00  0.00    +0.048 C 
ATOM     26  C   UNL     1       4.537   8.748 -20.620  0.00  0.00    +0.225 C 
ENDBRANCH  24  26
ENDBRANCH   1  24
BRANCH   6  27
ATOM     27  O   UNL     1       2.541   1.993 -24.148  0.00  0.00    -0.479 OA
BRANCH  27  28
ATOM     28  C   UNL     1       3.044   0.957 -23.544  0.00  0.00    +0.281 C 
BRANCH  28  29
ATOM     29  C   UNL     1       2.498   0.514 -22.451  0.00  0.00    +0.079 C 
ATOM     30  O   UNL     1       3.246   0.079 -21.481  0.00  0.00    -0.546 OA
ATOM     31  O   UNL     1       1.204   0.504 -22.328  0.00  0.00    -0.546 OA
ENDBRANCH  28  29
ENDBRANCH  27  28
ENDBRANCH   6  27
BRANCH   3  32
ATOM     32  O   UNL     1       6.481   4.185 -22.866  0.00  0.00    -0.491 OA
BRANCH  32  33
ATOM     33  C   UNL     1       7.647   4.574 -23.289  0.00  0.00    +0.226 C 
ATOM     34  C   UNL     1       8.013   4.318 -24.511  0.00  0.00    +0.048 C 
ENDBRANCH  32  33
ENDBRANCH   3  32
TORSDOF 12
ENDMDL
MODEL 2
REMARK VINA RESULT:    -9.302      1.534      7.578
REMARK INTER + INTRA:         -14.437
REMARK INTER:                 -13.362
REMARK INTRA:                  -1.075
REMARK UNBOUND:                 1.391
REMARK  Name = ZINC000028218749
REMARK  16 active torsions:
REMARK  status: ('A' for Active; 'I' for Inactive)
REMARK    1  A    between atoms: C_1  and  C_2
REMARK    2  A    between atoms: C_2  and  O_3
REMARK    3  A    between atoms: O_3  and  C_4
REMARK    4  A    between atoms: C_6  and  O_7
REMARK    5  A    between atoms: O_7  and  C_8
REMARK    6  A    between atoms: C_8  and  C_9
REMARK    7  A    between atoms: C_13  and  O_14
REMARK    8  A    between atoms: O_14  and  C_15
REMARK    9  A    between atoms: C_15  and  C_16
REMARK   10  A    between atoms: C_19  and  C_20
REMARK   11  A    between atoms: C_23  and  O_24
REMARK   12  A    between atoms: O_24  and  C_25
REMARK   13  A    between atoms: C_25  and  C_26
REMARK   14  A    between atoms: C_27  and  O_28
REMARK   15  A    between atoms: O_28  and  C_29
REMARK   16  A    between atoms: C_29  and  C_30
REMARK                            x       y       z     vdW  Elec       q    Type
REMARK                         _______ _______ _______ _____ _____    ______ ____
ROOT
ATOM      1  C   UNL     1      -1.206   3.341 -25.014  0.00  0.00    +0.127 A 
ATOM      2  C   UNL     1      -1.654   2.660 -24.001  0.00  0.00    +0.092 A 
ATOM      3  C   UNL     1      -0.854   2.338 -23.029  0.00  0.00    +0.138 A 
ATOM      4  C   UNL     1       0.396   2.696 -23.069  0.00  0.00    +0.109 A 
ATOM      5  C   UNL     1       1.196   2.375 -22.098  0.00  0.00    +0.238 A 
ATOM      6  C   UNL     1       2.445   2.732 -22.139  0.00  0.00    +0.211 A 
ATOM      7  C   UNL     1       2.893   3.412 -23.152  0.00  0.00    +0.181 A 
ATOM      8  O   UNL     1       2.093   3.734 -24.124  0.00  0.00    -0.451 OA
ATOM      9  O   UNL     1       0.748   1.694 -21.084  0.00  0.00    -0.283 OA
ATOM     10  C   UNL     1       0.844   3.376 -24.083  0.00  0.00    +0.147 A 
ATOM     11  C   UNL     1       0.043   3.699 -25.056  0.00  0.00    +0.092 A 
ENDROOT
BRANCH   7  12
ATOM     12  C   UNL     1       4.142   3.771 -23.193  0.00  0.00    +0.025 A 
ATOM     13  C   UNL     1       5.023   2.994 -23.750  0.00  0.00    +0.015 A 
ATOM     14  C   UNL     1       6.273   3.353 -23.791  0.00  0.00    +0.050 A 
ATOM     15  C   UNL     1       6.640   4.487 -23.275  0.00  0.00    +0.162 A 
ATOM     16  C   UNL     1       5.759   5.264 -22.718  0.00  0.00    +0.163 A 
ATOM     17  C   UNL     1       4.510   4.906 -22.677  0.00  0.00    +0.061 A 
BRANCH  16  18
ATOM     18  O   UNL     1       6.127   6.399 -22.201  0.00  0.00    -0.489 OA
BRANCH  18  19
ATOM     19  C   UNL     1       5.235   7.298 -21.907  0.00  0.00    +0.226 C 
ATOM     20  C   UNL     1       5.305   7.937 -20.777  0.00  0.00    +0.048 C 
ENDBRANCH  18  19
ENDBRANCH  16  18
BRANCH  15  21
ATOM     21  O   UNL     1       7.889   4.846 -23.316  0.00  0.00    -0.489 OA
BRANCH  21  22
ATOM     22  C   UNL     1       8.476   5.029 -24.463  0.00  0.00    +0.226 C 
ATOM     23  C   UNL     1       8.699   6.235 -24.893  0.00  0.00    +0.048 C 
ENDBRANCH  21  22
ENDBRANCH  15  21
ENDBRANCH   7  12
BRANCH   1  24
ATOM     24  O   UNL     1      -2.006   3.663 -25.986  0.00  0.00    -0.492 OA
BRANCH  24  26
ATOM     25  C   UNL     1      -4.038   4.505 -25.503  0.00  0.00    +0.048 C 
ATOM     26  C   UNL     1      -3.290   3.501 -25.852  0.00  0.00    +0.225 C 
ENDBRANCH  24  26
ENDBRANCH   1  24
BRANCH   6  27
ATOM     27  O   UNL     1       3.245   2.410 -21.167  0.00  0.00    -0.479 OA
BRANCH  27  28
ATOM     28  C   UNL     1       3.717   1.201 -21.085  0.00  0.00    +0.281 C 
BRANCH  28  29
ATOM     29  C   UNL     1       4.909   0.999 -20.608  0.00  0.00    +0.079 C 
ATOM     30  O   UNL     1       5.309  -0.211 -20.352  0.00  0.00    -0.546 OA
ATOM     31  O   UNL     1       5.700   2.006 -20.388  0.00  0.00    -0.546 OA
ENDBRANCH  28  29
ENDBRANCH  27  28
ENDBRANCH   6  27
BRANCH   3  32
ATOM     32  O   UNL     1      -1.302   1.658 -22.015  0.00  0.00    -0.491 OA
BRANCH  32  33
ATOM     33  C   UNL     1      -2.434   1.984 -21.465  0.00  0.00    +0.226 C 
ATOM     34  C   UNL     1      -2.535   3.097 -20.799  0.00  0.00    +0.048 C 
ENDBRANCH  32  33
ENDBRANCH   3  32
TORSDOF 12
ENDMDL
MODEL 3
REMARK VINA RESULT:    -8.051      2.568      7.840
REMARK INTER + INTRA:         -12.308
REMARK INTER:                 -11.201
REMARK INTRA:                  -1.107
REMARK UNBOUND:                 1.391
REMARK  Name = ZINC000028218749
REMARK  16 active torsions:
REMARK  status: ('A' for Active; 'I' for Inactive)
REMARK    1  A    between atoms: C_1  and  C_2
REMARK    2  A    between atoms: C_2  and  O_3
REMARK    3  A    between atoms: O_3  and  C_4
REMARK    4  A    between atoms: C_6  and  O_7
REMARK    5  A    between atoms: O_7  and  C_8
REMARK    6  A    between atoms: C_8  and  C_9
REMARK    7  A    between atoms: C_13  and  O_14
REMARK    8  A    between atoms: O_14  and  C_15
REMARK    9  A    between atoms: C_15  and  C_16
REMARK   10  A    between atoms: C_19  and  C_20
REMARK   11  A    between atoms: C_23  and  O_24
REMARK   12  A    between atoms: O_24  and  C_25
REMARK   13  A    between atoms: C_25  and  C_26
REMARK   14  A    between atoms: C_27  and  O_28
REMARK   15  A    between atoms: O_28  and  C_29
REMARK   16  A    between atoms: C_29  and  C_30
REMARK                            x       y       z     vdW  Elec       q    Type
REMARK                         _______ _______ _______ _____ _____    ______ ____
ROOT
ATOM      1  C   UNL     1      -3.571   3.283 -22.228  0.00  0.00    +0.127 A 
ATOM      2  C   UNL     1      -3.595   3.693 -23.461  0.00  0.00    +0.092 A 
ATOM      3  C   UNL     1      -2.505   3.687 -24.169  0.00  0.00    +0.138 A 
ATOM      4  C   UNL     1      -1.390   3.271 -23.645  0.00  0.00    +0.109 A 
ATOM      5  C   UNL     1      -0.301   3.265 -24.352  0.00  0.00    +0.238 A 
ATOM      6  C   UNL     1       0.813   2.849 -23.828  0.00  0.00    +0.211 A 
ATOM      7  C   UNL     1       0.837   2.439 -22.595  0.00  0.00    +0.181 A 
ATOM      8  O   UNL     1      -0.253   2.445 -21.887  0.00  0.00    -0.451 OA
ATOM      9  O   UNL     1      -0.325   3.676 -25.587  0.00  0.00    -0.283 OA
ATOM     10  C   UNL     1      -1.366   2.861 -22.412  0.00  0.00    +0.147 A 
ATOM     11  C   UNL     1      -2.457   2.867 -21.702  0.00  0.00    +0.092 A 
ENDROOT
BRANCH   7  12
ATOM     12  C   UNL     1       1.951   2.022 -22.070  0.00  0.00    +0.025 A 
ATOM     13  C   UNL     1       2.043   0.806 -21.621  0.00  0.00    +0.015 A 
ATOM     14  C   UNL     1       3.158   0.390 -21.096  0.00  0.00    +0.050 A 
ATOM     15  C   UNL     1       4.179   1.190 -21.020  0.00  0.00    +0.162 A 
ATOM     16  C   UNL     1       4.087   2.406 -21.469  0.00  0.00    +0.163 A 
ATOM     17  C   UNL     1       2.973   2.823 -21.994  0.00  0.00    +0.061 A 
BRANCH  16  18
ATOM     18  O   UNL     1       5.108   3.207 -21.392  0.00  0.00    -0.489 OA
BRANCH  18  19
ATOM     19  C   UNL     1       5.695   3.617 -22.478  0.00  0.00    +0.226 C 
ATOM     20  C   UNL     1       6.831   3.099 -22.839  0.00  0.00    +0.048 C 
ENDBRANCH  18  19
ENDBRANCH  16  18
BRANCH  15  21
ATOM     21  O   UNL     1       5.293   0.774 -20.495  0.00  0.00    -0.489 OA
BRANCH  21  22
ATOM     22  C   UNL     1       5.865  -0.302 -20.950  0.00  0.00    +0.226 C 
ATOM     23  C   UNL     1       6.433  -1.134 -20.129  0.00  0.00    +0.048 C 
ENDBRANCH  21  22
ENDBRANCH  15  21
ENDBRANCH   7  12
BRANCH   1  24
ATOM     24  O   UNL     1      -4.660   3.289 -21.519  0.00  0.00    -0.492 OA
BRANCH  24  26
ATOM     25  C   UNL     1      -6.775   2.540 -21.722  0.00  0.00    +0.048 C 
ATOM     26  C   UNL     1      -5.819   3.331 -22.109  0.00  0.00    +0.225 C 
ENDBRANCH  24  26
ENDBRANCH   1  24
BRANCH   6  27
ATOM     27  O   UNL     1       1.903   2.843 -24.537  0.00  0.00    -0.479 OA
BRANCH  27  28
ATOM     28  C   UNL     1       2.056   1.971 -25.488  0.00  0.00    +0.281 C 
BRANCH  28  29
ATOM     29  C   UNL     1       2.880   0.978 -25.335  0.00  0.00    +0.079 C 
ATOM     30  O   UNL     1       2.660  -0.149 -25.944  0.00  0.00    -0.546 OA
ATOM     31  O   UNL     1       3.924   1.112 -24.573  0.00  0.00    -0.546 OA
ENDBRANCH  28  29
ENDBRANCH  27  28
ENDBRANCH   6  27
BRANCH   3  32
ATOM     32  O   UNL     1      -2.529   4.098 -25.403  0.00  0.00    -0.491 OA
BRANCH  32  33
ATOM     33  C   UNL     1      -3.548   3.818 -26.161  0.00  0.00    +0.226 C 
ATOM     34  C   UNL     1      -3.357   3.381 -27.371  0.00  0.00    +0.048 C 
ENDBRANCH  32  33
ENDBRANCH   3  32
TORSDOF 12
ENDMDL
MODEL 4
REMARK VINA RESULT:    -7.907      1.995      3.482
REMARK INTER + INTRA:         -12.062
REMARK INTER:                 -12.258
REMARK INTRA:                   0.195
REMARK UNBOUND:                 1.391
REMARK  Name = ZINC000028218749
REMARK  16 active torsions:
REMARK  status: ('A' for Active; 'I' for Inactive)
REMARK    1  A    between atoms: C_1  and  C_2
REMARK    2  A    between atoms: C_2  and  O_3
REMARK    3  A    between atoms: O_3  and  C_4
REMARK    4  A    between atoms: C_6  and  O_7
REMARK    5  A    between atoms: O_7  and  C_8
REMARK    6  A    between atoms: C_8  and  C_9
REMARK    7  A    between atoms: C_13  and  O_14
REMARK    8  A    between atoms: O_14  and  C_15
REMARK    9  A    between atoms: C_15  and  C_16
REMARK   10  A    between atoms: C_19  and  C_20
REMARK   11  A    between atoms: C_23  and  O_24
REMARK   12  A    between atoms: O_24  and  C_25
REMARK   13  A    between atoms: C_25  and  C_26
REMARK   14  A    between atoms: C_27  and  O_28
REMARK   15  A    between atoms: O_28  and  C_29
REMARK   16  A    between atoms: C_29  and  C_30
REMARK                            x       y       z     vdW  Elec       q    Type
REMARK                         _______ _______ _______ _____ _____    ______ ____
ROOT
ATOM      1  C   UNL     1       5.352   4.486 -23.024  0.00  0.00    +0.127 A 
ATOM      2  C   UNL     1       5.624   3.232 -22.817  0.00  0.00    +0.092 A 
ATOM      3  C   UNL     1       4.672   2.348 -22.837  0.00  0.00    +0.138 A 
ATOM      4  C   UNL     1       3.446   2.716 -23.064  0.00  0.00    +0.109 A 
ATOM      5  C   UNL     1       2.494   1.833 -23.084  0.00  0.00    +0.238 A 
ATOM      6  C   UNL     1       1.269   2.202 -23.311  0.00  0.00    +0.211 A 
ATOM      7  C   UNL     1       0.996   3.456 -23.519  0.00  0.00    +0.181 A 
ATOM      8  O   UNL     1       1.948   4.340 -23.499  0.00  0.00    -0.451 OA
ATOM      9  O   UNL     1       2.766   0.578 -22.877  0.00  0.00    -0.283 OA
ATOM     10  C   UNL     1       3.174   3.970 -23.271  0.00  0.00    +0.147 A 
ATOM     11  C   UNL     1       4.127   4.856 -23.251  0.00  0.00    +0.092 A 
ENDROOT
BRANCH   7  12
ATOM     12  C   UNL     1      -0.229   3.826 -23.746  0.00  0.00    +0.025 A 
ATOM     13  C   UNL     1      -0.777   4.747 -23.011  0.00  0.00    +0.015 A 
ATOM     14  C   UNL     1      -2.003   5.117 -23.238  0.00  0.00    +0.050 A 
ATOM     15  C   UNL     1      -2.680   4.566 -24.202  0.00  0.00    +0.162 A 
ATOM     16  C   UNL     1      -2.132   3.645 -24.937  0.00  0.00    +0.163 A 
ATOM     17  C   UNL     1      -0.907   3.275 -24.710  0.00  0.00    +0.061 A 
BRANCH  16  18
ATOM     18  O   UNL     1      -2.808   3.094 -25.900  0.00  0.00    -0.489 OA
BRANCH  18  19
ATOM     19  C   UNL     1      -2.640   3.496 -27.126  0.00  0.00    +0.226 C 
ATOM     20  C   UNL     1      -3.648   3.520 -27.946  0.00  0.00    +0.048 C 
ENDBRANCH  18  19
ENDBRANCH  16  18
BRANCH  15  21
ATOM     21  O   UNL     1      -3.905   4.936 -24.429  0.00  0.00    -0.489 OA
BRANCH  21  22
ATOM     22  C   UNL     1      -4.885   4.107 -24.218  0.00  0.00    +0.226 C 
ATOM     23  C   UNL     1      -5.181   3.746 -23.006  0.00  0.00    +0.048 C 
ENDBRANCH  21  22
ENDBRANCH  15  21
ENDBRANCH   7  12
BRANCH   1  24
ATOM     24  O   UNL     1       6.304   5.370 -23.004  0.00  0.00    -0.492 OA
BRANCH  24  26
ATOM     25  C   UNL     1       8.229   6.093 -23.922  0.00  0.00    +0.048 C 
ATOM     26  C   UNL     1       7.438   5.117 -23.588  0.00  0.00    +0.225 C 
ENDBRANCH  24  26
ENDBRANCH   1  24
BRANCH   6  27
ATOM     27  O   UNL     1       0.316   1.318 -23.332  0.00  0.00    -0.479 OA
BRANCH  27  28
ATOM     28  C   UNL     1      -0.061   0.742 -22.229  0.00  0.00    +0.281 C 
BRANCH  28  29
ATOM     29  C   UNL     1      -0.261   1.453 -21.159  0.00  0.00    +0.079 C 
ATOM     30  O   UNL     1      -1.340   2.169 -21.046  0.00  0.00    -0.546 OA
ATOM     31  O   UNL     1       0.619   1.447 -20.202  0.00  0.00    -0.546 OA
ENDBRANCH  28  29
ENDBRANCH  27  28
ENDBRANCH   6  27
BRANCH   3  32
ATOM     32  O   UNL     1       4.945   1.093 -22.629  0.00  0.00    -0.491 OA
BRANCH  32  33
ATOM     33  C   UNL     1       5.624   0.741 -21.578  0.00  0.00    +0.226 C 
ATOM     34  C   UNL     1       5.003   0.330 -20.511  0.00  0.00    +0.048 C 
ENDBRANCH  32  33
ENDBRANCH   3  32
TORSDOF 12
ENDMDL
MODEL 5
REMARK VINA RESULT:    -7.868      2.131      8.000
REMARK INTER + INTRA:         -11.996
REMARK INTER:                 -11.230
REMARK INTRA:                  -0.766
REMARK UNBOUND:                 1.391
REMARK  Name = ZINC000028218749
REMARK  16 active torsions:
REMARK  status: ('A' for Active; 'I' for Inactive)
REMARK    1  A    between atoms: C_1  and  C_2
REMARK    2  A    between atoms: C_2  and  O_3
REMARK    3  A    between atoms: O_3  and  C_4
REMARK    4  A    between atoms: C_6  and  O_7
REMARK    5  A    between atoms: O_7  and  C_8
REMARK    6  A    between atoms: C_8  and  C_9
REMARK    7  A    between atoms: C_13  and  O_14
REMARK    8  A    between atoms: O_14  and  C_15
REMARK    9  A    between atoms: C_15  and  C_16
REMARK   10  A    between atoms: C_19  and  C_20
REMARK   11  A    between atoms: C_23  and  O_24
REMARK   12  A    between atoms: O_24  and  C_25
REMARK   13  A    between atoms: C_25  and  C_26
REMARK   14  A    between atoms: C_27  and  O_28
REMARK   15  A    between atoms: O_28  and  C_29
REMARK   16  A    between atoms: C_29  and  C_30
REMARK                            x       y       z     vdW  Elec       q    Type
REMARK                         _______ _______ _______ _____ _____    ______ ____
ROOT
ATOM      1  C   UNL     1       0.944   3.937 -23.879  0.00  0.00    +0.127 A 
ATOM      2  C   UNL     1       1.773   2.947 -24.034  0.00  0.00    +0.092 A 
ATOM      3  C   UNL     1       3.027   3.096 -23.727  0.00  0.00    +0.138 A 
ATOM      4  C   UNL     1       3.453   4.235 -23.265  0.00  0.00    +0.109 A 
ATOM      5  C   UNL     1       4.707   4.384 -22.959  0.00  0.00    +0.238 A 
ATOM      6  C   UNL     1       5.133   5.522 -22.497  0.00  0.00    +0.211 A 
ATOM      7  C   UNL     1       4.304   6.511 -22.343  0.00  0.00    +0.181 A 
ATOM      8  O   UNL     1       3.049   6.362 -22.649  0.00  0.00    -0.451 OA
ATOM      9  O   UNL     1       5.537   3.394 -23.113  0.00  0.00    -0.283 OA
ATOM     10  C   UNL     1       2.624   5.224 -23.111  0.00  0.00    +0.147 A 
ATOM     11  C   UNL     1       1.369   5.075 -23.418  0.00  0.00    +0.092 A 
ENDROOT
BRANCH   7  12
ATOM     12  C   UNL     1       4.729   7.650 -21.881  0.00  0.00    +0.025 A 
ATOM     13  C   UNL     1       4.101   8.229 -20.901  0.00  0.00    +0.015 A 
ATOM     14  C   UNL     1       4.527   9.368 -20.440  0.00  0.00    +0.050 A 
ATOM     15  C   UNL     1       5.580   9.927 -20.958  0.00  0.00    +0.162 A 
ATOM     16  C   UNL     1       6.207   9.347 -21.938  0.00  0.00    +0.163 A 
ATOM     17  C   UNL     1       5.782   8.209 -22.400  0.00  0.00    +0.061 A 
BRANCH  16  18
ATOM     18  O   UNL     1       7.260   9.906 -22.457  0.00  0.00    -0.489 OA
BRANCH  18  19
ATOM     19  C   UNL     1       7.224  10.355 -23.677  0.00  0.00    +0.226 C 
ATOM     20  C   UNL     1       7.728  11.520 -23.956  0.00  0.00    +0.048 C 
ENDBRANCH  18  19
ENDBRANCH  16  18
BRANCH  15  21
ATOM     21  O   UNL     1       6.005  11.065 -20.497  0.00  0.00    -0.489 OA
BRANCH  21  22
ATOM     22  C   UNL     1       5.243  12.118 -20.560  0.00  0.00    +0.226 C 
ATOM     23  C   UNL     1       5.603  13.138 -21.281  0.00  0.00    +0.048 C 
ENDBRANCH  21  22
ENDBRANCH  15  21
ENDBRANCH   7  12
BRANCH   1  24
ATOM     24  O   UNL     1      -0.310   3.788 -24.186  0.00  0.00    -0.492 OA
BRANCH  24  26
ATOM     25  C   UNL     1      -2.224   2.610 -24.028  0.00  0.00    +0.048 C 
ATOM     26  C   UNL     1      -0.942   2.707 -23.833  0.00  0.00    +0.225 C 
ENDBRANCH  24  26
ENDBRANCH   1  24
BRANCH   6  27
ATOM     27  O   UNL     1       6.387   5.671 -22.191  0.00  0.00    -0.479 OA
BRANCH  27  28
ATOM     28  C   UNL     1       6.945   4.876 -21.327  0.00  0.00    +0.281 C 
BRANCH  28  29
ATOM     29  C   UNL     1       7.327   5.334 -20.172  0.00  0.00    +0.079 C 
ATOM     30  O   UNL     1       6.567   6.159 -19.516  0.00  0.00    -0.546 OA
ATOM     31  O   UNL     1       8.470   4.967 -19.674  0.00  0.00    -0.546 OA
ENDBRANCH  28  29
ENDBRANCH  27  28
ENDBRANCH   6  27
BRANCH   3  32
ATOM     32  O   UNL     1       3.857   2.106 -23.882  0.00  0.00    -0.491 OA
BRANCH  32  33
ATOM     33  C   UNL     1       3.511   0.907 -23.517  0.00  0.00    +0.226 C 
ATOM     34  C   UNL     1       3.640   0.544 -22.274  0.00  0.00    +0.048 C 
ENDBRANCH  32  33
ENDBRANCH   3  32
TORSDOF 12
ENDMDL
MODEL 6
REMARK VINA RESULT:    -7.765      1.464      2.248
REMARK INTER + INTRA:         -11.821
REMARK INTER:                 -12.167
REMARK INTRA:                   0.346
REMARK UNBOUND:                 1.391
REMARK  Name = ZINC000028218749
REMARK  16 active torsions:
REMARK  status: ('A' for Active; 'I' for Inactive)
REMARK    1  A    between atoms: C_1  and  C_2
REMARK    2  A    between atoms: C_2  and  O_3
REMARK    3  A    between atoms: O_3  and  C_4
REMARK    4  A    between atoms: C_6  and  O_7
REMARK    5  A    between atoms: O_7  and  C_8
REMARK    6  A    between atoms: C_8  and  C_9
REMARK    7  A    between atoms: C_13  and  O_14
REMARK    8  A    between atoms: O_14  and  C_15
REMARK    9  A    between atoms: C_15  and  C_16
REMARK   10  A    between atoms: C_19  and  C_20
REMARK   11  A    between atoms: C_23  and  O_24
REMARK   12  A    between atoms: O_24  and  C_25
REMARK   13  A    between atoms: C_25  and  C_26
REMARK   14  A    between atoms: C_27  and  O_28
REMARK   15  A    between atoms: O_28  and  C_29
REMARK   16  A    between atoms: C_29  and  C_30
REMARK                            x       y       z     vdW  Elec       q    Type
REMARK                         _______ _______ _______ _____ _____    ______ ____
ROOT
ATOM      1  C   UNL     1       5.775   6.163 -22.468  0.00  0.00    +0.127 A 
ATOM      2  C   UNL     1       6.387   5.020 -22.567  0.00  0.00    +0.092 A 
ATOM      3  C   UNL     1       5.709   3.941 -22.826  0.00  0.00    +0.138 A 
ATOM      4  C   UNL     1       4.420   4.004 -22.985  0.00  0.00    +0.109 A 
ATOM      5  C   UNL     1       3.742   2.926 -23.243  0.00  0.00    +0.238 A 
ATOM      6  C   UNL     1       2.454   2.990 -23.402  0.00  0.00    +0.211 A 
ATOM      7  C   UNL     1       1.843   4.133 -23.302  0.00  0.00    +0.181 A 
ATOM      8  O   UNL     1       2.521   5.212 -23.044  0.00  0.00    -0.451 OA
ATOM      9  O   UNL     1       4.354   1.782 -23.342  0.00  0.00    -0.283 OA
ATOM     10  C   UNL     1       3.809   5.147 -22.885  0.00  0.00    +0.147 A 
ATOM     11  C   UNL     1       4.487   6.227 -22.627  0.00  0.00    +0.092 A 
ENDROOT
BRANCH   7  12
ATOM     12  C   UNL     1       0.555   4.198 -23.461  0.00  0.00    +0.025 A 
ATOM     13  C   UNL     1      -0.167   4.902 -22.641  0.00  0.00    +0.015 A 
ATOM     14  C   UNL     1      -1.456   4.967 -22.801  0.00  0.00    +0.050 A 
ATOM     15  C   UNL     1      -2.023   4.326 -23.779  0.00  0.00    +0.162 A 
ATOM     16  C   UNL     1      -1.301   3.622 -24.599  0.00  0.00    +0.163 A 
ATOM     17  C   UNL     1      -0.012   3.557 -24.441  0.00  0.00    +0.061 A 
BRANCH  16  18
ATOM     18  O   UNL     1      -1.868   2.981 -25.578  0.00  0.00    -0.489 OA
BRANCH  18  19
ATOM     19  C   UNL     1      -2.335   3.637 -26.600  0.00  0.00    +0.226 C 
ATOM     20  C   UNL     1      -3.484   3.309 -27.112  0.00  0.00    +0.048 C 
ENDBRANCH  18  19
ENDBRANCH  16  18
BRANCH  15  21
ATOM     21  O   UNL     1      -3.311   4.391 -23.938  0.00  0.00    -0.489 OA
BRANCH  21  22
ATOM     22  C   UNL     1      -4.100   3.773 -23.109  0.00  0.00    +0.226 C 
ATOM     23  C   UNL     1      -5.370   3.677 -23.370  0.00  0.00    +0.048 C 
ENDBRANCH  21  22
ENDBRANCH  15  21
ENDBRANCH   7  12
BRANCH   1  24
ATOM     24  O   UNL     1       6.453   7.241 -22.210  0.00  0.00    -0.492 OA
BRANCH  24  26
ATOM     25  C   UNL     1       6.997   8.841 -20.721  0.00  0.00    +0.048 C 
ATOM     26  C   UNL     1       6.146   7.970 -21.177  0.00  0.00    +0.225 C 
ENDBRANCH  24  26
ENDBRANCH   1  24
BRANCH   6  27
ATOM     27  O   UNL     1       1.777   1.911 -23.660  0.00  0.00    -0.479 OA
BRANCH  27  28
ATOM     28  C   UNL     1       1.608   1.012 -22.737  0.00  0.00    +0.281 C 
BRANCH  28  29
ATOM     29  C   UNL     1       0.615   1.113 -21.904  0.00  0.00    +0.079 C 
ATOM     30  O   UNL     1      -0.603   0.940 -22.321  0.00  0.00    -0.546 OA
ATOM     31  O   UNL     1       0.842   1.387 -20.654  0.00  0.00    -0.546 OA
ENDBRANCH  28  29
ENDBRANCH  27  28
ENDBRANCH   6  27
BRANCH   3  32
ATOM     32  O   UNL     1       6.321   2.797 -22.925  0.00  0.00    -0.491 OA
BRANCH  32  33
ATOM     33  C   UNL     1       7.556   2.755 -23.326  0.00  0.00    +0.226 C 
ATOM     34  C   UNL     1       7.900   3.346 -24.433  0.00  0.00    +0.048 C 
ENDBRANCH  32  33
ENDBRANCH   3  32
TORSDOF 12
ENDMDL
MODEL 7
REMARK VINA RESULT:    -7.068      2.033      7.654
REMARK INTER + INTRA:         -10.635
REMARK INTER:                 -10.722
REMARK INTRA:                   0.088
REMARK UNBOUND:                 1.391
REMARK  Name = ZINC000028218749
REMARK  16 active torsions:
REMARK  status: ('A' for Active; 'I' for Inactive)
REMARK    1  A    between atoms: C_1  and  C_2
REMARK    2  A    between atoms: C_2  and  O_3
REMARK    3  A    between atoms: O_3  and  C_4
REMARK    4  A    between atoms: C_6  and  O_7
REMARK    5  A    between atoms: O_7  and  C_8
REMARK    6  A    between atoms: C_8  and  C_9
REMARK    7  A    between atoms: C_13  and  O_14
REMARK    8  A    between atoms: O_14  and  C_15
REMARK    9  A    between atoms: C_15  and  C_16
REMARK   10  A    between atoms: C_19  and  C_20
REMARK   11  A    between atoms: C_23  and  O_24
REMARK   12  A    between atoms: O_24  and  C_25
REMARK   13  A    between atoms: C_25  and  C_26
REMARK   14  A    between atoms: C_27  and  O_28
REMARK   15  A    between atoms: O_28  and  C_29
REMARK   16  A    between atoms: C_29  and  C_30
REMARK                            x       y       z     vdW  Elec       q    Type
REMARK                         _______ _______ _______ _____ _____    ______ ____
ROOT
ATOM      1  C   UNL     1      -3.151   3.778 -22.046  0.00  0.00    +0.127 A 
ATOM      2  C   UNL     1      -3.517   3.626 -23.284  0.00  0.00    +0.092 A 
ATOM      3  C   UNL     1      -2.621   3.573 -24.225  0.00  0.00    +0.138 A 
ATOM      4  C   UNL     1      -1.359   3.672 -23.928  0.00  0.00    +0.109 A 
ATOM      5  C   UNL     1      -0.463   3.619 -24.867  0.00  0.00    +0.238 A 
ATOM      6  C   UNL     1       0.798   3.717 -24.570  0.00  0.00    +0.211 A 
ATOM      7  C   UNL     1       1.164   3.869 -23.332  0.00  0.00    +0.181 A 
ATOM      8  O   UNL     1       0.268   3.922 -22.391  0.00  0.00    -0.451 OA
ATOM      9  O   UNL     1      -0.829   3.467 -26.106  0.00  0.00    -0.283 OA
ATOM     10  C   UNL     1      -0.993   3.824 -22.689  0.00  0.00    +0.147 A 
ATOM     11  C   UNL     1      -1.890   3.877 -21.748  0.00  0.00    +0.092 A 
ENDROOT
BRANCH   7  12
ATOM     12  C   UNL     1       2.425   3.968 -23.033  0.00  0.00    +0.025 A 
ATOM     13  C   UNL     1       3.045   5.100 -23.195  0.00  0.00    +0.015 A 
ATOM     14  C   UNL     1       4.307   5.198 -22.897  0.00  0.00    +0.050 A 
ATOM     15  C   UNL     1       4.948   4.166 -22.437  0.00  0.00    +0.162 A 
ATOM     16  C   UNL     1       4.329   3.034 -22.275  0.00  0.00    +0.163 A 
ATOM     17  C   UNL     1       3.067   2.935 -22.573  0.00  0.00    +0.061 A 
BRANCH  16  18
ATOM     18  O   UNL     1       4.970   2.002 -21.815  0.00  0.00    -0.489 OA
BRANCH  18  19
ATOM     19  C   UNL     1       4.321   1.043 -21.223  0.00  0.00    +0.226 C 
ATOM     20  C   UNL     1       4.968   0.137 -20.552  0.00  0.00    +0.048 C 
ENDBRANCH  18  19
ENDBRANCH  16  18
BRANCH  15  21
ATOM     21  O   UNL     1       6.210   4.264 -22.139  0.00  0.00    -0.489 OA
BRANCH  21  22
ATOM     22  C   UNL     1       6.815   5.411 -22.243  0.00  0.00    +0.226 C 
ATOM     23  C   UNL     1       7.880   5.519 -22.979  0.00  0.00    +0.048 C 
ENDBRANCH  21  22
ENDBRANCH  15  21
ENDBRANCH   7  12
BRANCH   1  24
ATOM     24  O   UNL     1      -4.047   3.831 -21.106  0.00  0.00    -0.492 OA
BRANCH  24  26
ATOM     25  C   UNL     1      -4.461   1.697 -20.517  0.00  0.00    +0.048 C 
ATOM     26  C   UNL     1      -4.884   2.848 -20.949  0.00  0.00    +0.225 C 
ENDBRANCH  24  26
ENDBRANCH   1  24
BRANCH   6  27
ATOM     27  O   UNL     1       1.694   3.664 -25.510  0.00  0.00    -0.479 OA
BRANCH  27  28
ATOM     28  C   UNL     1       2.605   2.737 -25.490  0.00  0.00    +0.281 C 
BRANCH  28  29
ATOM     29  C   UNL     1       2.314   1.531 -25.876  0.00  0.00    +0.079 C 
ATOM     30  O   UNL     1       1.841   1.327 -27.070  0.00  0.00    -0.546 OA
ATOM     31  O   UNL     1       2.496   0.528 -25.069  0.00  0.00    -0.546 OA
ENDBRANCH  28  29
ENDBRANCH  27  28
ENDBRANCH   6  27
BRANCH   3  32
ATOM     32  O   UNL     1      -2.987   3.421 -25.464  0.00  0.00    -0.491 OA
BRANCH  32  33
ATOM     33  C   UNL     1      -4.163   3.820 -25.847  0.00  0.00    +0.226 C 
ATOM     34  C   UNL     1      -5.057   2.948 -26.212  0.00  0.00    +0.048 C 
ENDBRANCH  32  33
ENDBRANCH   3  32
TORSDOF 12
ENDMDL
