MODEL 1
REMARK VINA RESULT:    -9.744      0.000      0.000
REMARK INTER + INTRA:          -9.533
REMARK INTER:                 -10.786
REMARK INTRA:                   1.252
REMARK UNBOUND:                 2.490
REMARK  Name = O=C(N/C(=C/c1cccs1)C(=O)N1C[C@H]2C[C@H](C1)c1cccc(=O)n1C2)c1ccccc1Br ZINC000100392537
REMARK  4 active torsions:
REMARK  status: ('A' for Active; 'I' for Inactive)
REMARK    1  A    between atoms: C_2  and  C_27
REMARK    2  A    between atoms: N_3  and  C_4
REMARK    3  A    between atoms: C_4  and  C_11
REMARK    4  A    between atoms: C_5  and  C_6
REMARK                            x       y       z     vdW  Elec       q    Type
REMARK                         _______ _______ _______ _____ _____    ______ ____
ROOT
ATOM      1  C   UNL     1       2.721   4.759 -22.992  0.00  0.00    +0.097 C 
ATOM      2  C   UNL     1       3.331   3.703 -22.462  0.00  0.00    +0.043 C 
ENDROOT
BRANCH   1   3
ATOM      3  C   UNL     1       1.851   4.614 -23.998  0.00  0.00    +0.261 C 
ATOM      4  N   UNL     1       0.534   4.440 -23.749  0.00  0.00    -0.296 N 
ATOM      5  C   UNL     1       0.034   4.404 -22.492  0.00  0.00    +0.113 C 
ATOM      6  C   UNL     1      -1.254   4.229 -22.451  0.00  0.00    +0.027 C 
ATOM      7  C   UNL     1      -1.633   4.154 -23.320  0.00  0.00    +0.018 C 
ATOM      8  C   UNL     1      -1.603   4.134 -24.272  0.00  0.00    +0.054 C 
ATOM      9  C   UNL     1      -2.779   3.969 -24.411  0.00  0.00    +0.027 A 
ATOM     10  C   UNL     1      -3.563   3.835 -25.413  0.00  0.00    +0.022 A 
ATOM     11  C   UNL     1      -4.866   3.662 -25.216  0.00  0.00    +0.007 A 
ATOM     12  C   UNL     1      -5.394   3.622 -23.966  0.00  0.00    +0.070 A 
ATOM     13  C   UNL     1      -4.636   3.754 -22.878  0.00  0.00    +0.251 A 
ATOM     14  O   UNL     1      -5.176   3.712 -21.692  0.00  0.00    -0.268 OA
ATOM     15  N   UNL     1      -3.376   3.924 -23.003  0.00  0.00    -0.312 N 
ATOM     16  C   UNL     1      -2.295   4.101 -21.876  0.00  0.00    +0.130 C 
ATOM     17  C   UNL     1      -0.391   4.288 -24.726  0.00  0.00    +0.117 C 
ATOM     18  O   UNL     1       2.283   4.641 -25.230  0.00  0.00    -0.269 OA
ENDBRANCH   1   3
BRANCH   2  19
ATOM     19  C   UNL     1       3.093   2.498 -22.912  0.00  0.00    +0.014 A 
ATOM     20  C   UNL     1       2.282   1.633 -22.371  0.00  0.00    +0.015 A 
ATOM     21  C   UNL     1       2.300   0.547 -23.090  0.00  0.00    +0.008 A 
ATOM     22  C   UNL     1       3.128   0.740 -24.085  0.00  0.00    +0.046 A 
ATOM     23  S   UNL     1       3.615   1.944 -23.972  0.00  0.00    -0.097 S 
ENDBRANCH   2  19
BRANCH   1  26
ATOM     24  O   UNL     1       5.188   5.643 -22.941  0.00  0.00    -0.270 OA
ATOM     25  C   UNL     1       4.212   6.388 -22.496  0.00  0.00    +0.249 C 
ATOM     26  N   UNL     1       2.978   5.946 -22.522  0.00  0.00    -0.277 N 
ATOM     27  H   UNL     1       2.246   6.511 -22.186  0.00  0.00    +0.155 HD
BRANCH  25  28
ATOM     28  C   UNL     1       4.461   7.574 -22.025  0.00  0.00    +0.051 A 
ATOM     29  C   UNL     1       3.748   8.593 -22.425  0.00  0.00    +0.014 A 
ATOM     30  C   UNL     1       3.991   9.785 -21.957  0.00  0.00    +0.001 A 
ATOM     31  C   UNL     1       4.949   9.964 -21.087  0.00  0.00    +0.001 A 
ATOM     32  C   UNL     1       5.662   8.945 -20.687  0.00  0.00    +0.016 A 
ATOM     33  C   UNL     1       5.419   7.753 -21.155  0.00  0.00    +0.030 A 
ATOM     34 BR   UNL     1       6.132   6.735 -20.754  0.00  0.00    -0.050 Br
ENDBRANCH  25  28
ENDBRANCH   1  26
TORSDOF 4
ENDMDL
MODEL 2
REMARK VINA RESULT:    -8.278      1.503      2.015
REMARK INTER + INTRA:          -7.725
REMARK INTER:                  -9.045
REMARK INTRA:                   1.321
REMARK UNBOUND:                 2.490
REMARK  Name = O=C(N/C(=C/c1cccs1)C(=O)N1C[C@H]2C[C@H](C1)c1cccc(=O)n1C2)c1ccccc1Br ZINC000100392537
REMARK  4 active torsions:
REMARK  status: ('A' for Active; 'I' for Inactive)
REMARK    1  A    between atoms: C_2  and  C_27
REMARK    2  A    between atoms: N_3  and  C_4
REMARK    3  A    between atoms: C_4  and  C_11
REMARK    4  A    between atoms: C_5  and  C_6
REMARK                            x       y       z     vdW  Elec       q    Type
REMARK                         _______ _______ _______ _____ _____    ______ ____
ROOT
ATOM      1  C   UNL     1       3.077   4.088 -23.193  0.00  0.00    +0.097 C 
ATOM      2  C   UNL     1       3.629   3.486 -24.243  0.00  0.00    +0.043 C 
ENDROOT
BRANCH   1   3
ATOM      3  C   UNL     1       2.160   3.462 -22.448  0.00  0.00    +0.261 C 
ATOM      4  N   UNL     1       0.843   3.604 -22.714  0.00  0.00    -0.296 N 
ATOM      5  C   UNL     1       0.390   4.375 -23.731  0.00  0.00    +0.113 C 
ATOM      6  C   UNL     1      -0.907   4.391 -23.832  0.00  0.00    +0.027 C 
ATOM      7  C   UNL     1      -1.324   3.852 -23.167  0.00  0.00    +0.018 C 
ATOM      8  C   UNL     1      -1.332   3.265 -22.417  0.00  0.00    +0.054 C 
ATOM      9  C   UNL     1      -2.523   3.171 -22.371  0.00  0.00    +0.027 A 
ATOM     10  C   UNL     1      -3.354   2.547 -21.624  0.00  0.00    +0.022 A 
ATOM     11  C   UNL     1      -4.659   2.658 -21.848  0.00  0.00    +0.007 A 
ATOM     12  C   UNL     1      -5.141   3.424 -22.860  0.00  0.00    +0.070 A 
ATOM     13  C   UNL     1      -4.333   4.100 -23.676  0.00  0.00    +0.251 A 
ATOM     14  O   UNL     1      -4.829   4.827 -24.638  0.00  0.00    -0.268 OA
ATOM     15  N   UNL     1      -3.069   4.033 -23.510  0.00  0.00    -0.312 N 
ATOM     16  C   UNL     1      -1.933   4.736 -24.340  0.00  0.00    +0.130 C 
ATOM     17  C   UNL     1      -0.129   2.996 -21.995  0.00  0.00    +0.117 C 
ATOM     18  O   UNL     1       2.545   2.706 -21.456  0.00  0.00    -0.269 OA
ENDBRANCH   1   3
BRANCH   2  19
ATOM     19  C   UNL     1       3.285   2.267 -24.570  0.00  0.00    +0.014 A 
ATOM     20  C   UNL     1       2.399   1.945 -25.471  0.00  0.00    +0.015 A 
ATOM     21  C   UNL     1       2.321   0.646 -25.525  0.00  0.00    +0.008 A 
ATOM     22  C   UNL     1       3.165   0.158 -24.651  0.00  0.00    +0.046 A 
ATOM     23  S   UNL     1       3.757   1.160 -24.065  0.00  0.00    -0.097 S 
ENDBRANCH   2  19
BRANCH   1  26
ATOM     24  O   UNL     1       5.402   4.521 -22.062  0.00  0.00    -0.270 OA
ATOM     25  C   UNL     1       4.603   5.520 -22.327  0.00  0.00    +0.249 C 
ATOM     26  N   UNL     1       3.440   5.303 -22.893  0.00  0.00    -0.277 N 
ATOM     27  H   UNL     1       2.840   6.058 -23.090  0.00  0.00    +0.155 HD
BRANCH  25  28
ATOM     28  C   UNL     1       4.957   6.734 -22.030  0.00  0.00    +0.051 A 
ATOM     29  C   UNL     1       4.045   7.623 -21.740  0.00  0.00    +0.014 A 
ATOM     30  C   UNL     1       4.392   8.843 -21.441  0.00  0.00    +0.001 A 
ATOM     31  C   UNL     1       5.654   9.181 -21.432  0.00  0.00    +0.001 A 
ATOM     32  C   UNL     1       6.567   8.293 -21.723  0.00  0.00    +0.016 A 
ATOM     33  C   UNL     1       6.219   7.072 -22.021  0.00  0.00    +0.030 A 
ATOM     34 BR   UNL     1       7.132   6.185 -22.312  0.00  0.00    -0.050 Br
ENDBRANCH  25  28
ENDBRANCH   1  26
TORSDOF 4
ENDMDL
MODEL 3
REMARK VINA RESULT:    -8.071      3.211      8.159
REMARK INTER + INTRA:          -7.469
REMARK INTER:                  -9.449
REMARK INTRA:                   1.980
REMARK UNBOUND:                 2.490
REMARK  Name = O=C(N/C(=C/c1cccs1)C(=O)N1C[C@H]2C[C@H](C1)c1cccc(=O)n1C2)c1ccccc1Br ZINC000100392537
REMARK  4 active torsions:
REMARK  status: ('A' for Active; 'I' for Inactive)
REMARK    1  A    between atoms: C_2  and  C_27
REMARK    2  A    between atoms: N_3  and  C_4
REMARK    3  A    between atoms: C_4  and  C_11
REMARK    4  A    between atoms: C_5  and  C_6
REMARK                            x       y       z     vdW  Elec       q    Type
REMARK                         _______ _______ _______ _____ _____    ______ ____
ROOT
ATOM      1  C   UNL     1       1.435   2.430 -23.297  0.00  0.00    +0.097 C 
ATOM      2  C   UNL     1       1.302   2.000 -22.045  0.00  0.00    +0.043 C 
ENDROOT
BRANCH   1   3
ATOM      3  C   UNL     1       2.577   2.241 -23.968  0.00  0.00    +0.261 C 
ATOM      4  N   UNL     1       3.663   3.001 -23.705  0.00  0.00    -0.296 N 
ATOM      5  C   UNL     1       3.653   3.976 -22.765  0.00  0.00    +0.113 C 
ATOM      6  C   UNL     1       4.789   4.600 -22.654  0.00  0.00    +0.027 C 
ATOM      7  C   UNL     1       5.443   4.263 -23.258  0.00  0.00    +0.018 C 
ATOM      8  C   UNL     1       5.761   3.688 -23.947  0.00  0.00    +0.054 C 
ATOM      9  C   UNL     1       6.862   4.153 -23.973  0.00  0.00    +0.027 A 
ATOM     10  C   UNL     1       7.926   3.927 -24.647  0.00  0.00    +0.022 A 
ATOM     11  C   UNL     1       9.019   4.650 -24.422  0.00  0.00    +0.007 A 
ATOM     12  C   UNL     1       9.037   5.633 -23.486  0.00  0.00    +0.070 A 
ATOM     13  C   UNL     1       7.966   5.922 -22.749  0.00  0.00    +0.251 A 
ATOM     14  O   UNL     1       8.018   6.873 -21.858  0.00  0.00    -0.268 OA
ATOM     15  N   UNL     1       6.886   5.262 -22.919  0.00  0.00    -0.312 N 
ATOM     16  C   UNL     1       5.510   5.423 -22.173  0.00  0.00    +0.130 C 
ATOM     17  C   UNL     1       4.843   2.856 -24.351  0.00  0.00    +0.117 C 
ATOM     18  O   UNL     1       2.638   1.314 -24.885  0.00  0.00    -0.269 OA
ENDBRANCH   1   3
BRANCH   2  19
ATOM     19  C   UNL     1       2.286   1.384 -21.443  0.00  0.00    +0.014 A 
ATOM     20  C   UNL     1       2.975   0.393 -21.936  0.00  0.00    +0.015 A 
ATOM     21  C   UNL     1       3.868   0.036 -21.057  0.00  0.00    +0.008 A 
ATOM     22  C   UNL     1       3.733   0.812 -20.011  0.00  0.00    +0.046 A 
ATOM     23  S   UNL     1       2.757   1.641 -20.253  0.00  0.00    -0.097 S 
ENDBRANCH   2  19
BRANCH   1  26
ATOM     24  O   UNL     1      -0.972   1.397 -23.187  0.00  0.00    -0.270 OA
ATOM     25  C   UNL     1      -0.767   2.524 -23.815  0.00  0.00    +0.249 C 
ATOM     26  N   UNL     1       0.437   3.040 -23.870  0.00  0.00    -0.277 N 
ATOM     27  H   UNL     1       0.587   3.889 -24.345  0.00  0.00    +0.155 HD
BRANCH  25  28
ATOM     28  C   UNL     1      -1.757   3.139 -24.390  0.00  0.00    +0.051 A 
ATOM     29  C   UNL     1      -1.841   3.156 -25.693  0.00  0.00    +0.014 A 
ATOM     30  C   UNL     1      -2.831   3.771 -26.276  0.00  0.00    +0.001 A 
ATOM     31  C   UNL     1      -3.743   4.372 -25.559  0.00  0.00    +0.001 A 
ATOM     32  C   UNL     1      -3.659   4.355 -24.256  0.00  0.00    +0.016 A 
ATOM     33  C   UNL     1      -2.669   3.740 -23.672  0.00  0.00    +0.030 A 
ATOM     34 BR   UNL     1      -2.586   3.724 -22.369  0.00  0.00    -0.050 Br
ENDBRANCH  25  28
ENDBRANCH   1  26
TORSDOF 4
ENDMDL
