MODEL 1
REMARK VINA RESULT:    -9.230      0.000      0.000
REMARK INTER + INTRA:         -11.457
REMARK INTER:                 -11.194
REMARK INTRA:                  -0.263
REMARK UNBOUND:                -0.069
REMARK  Name = ZINC000000519824
REMARK  8 active torsions:
REMARK  status: ('A' for Active; 'I' for Inactive)
REMARK    1  A    between atoms: C_1  and  O_2
REMARK    2  A    between atoms: O_2  and  C_3
REMARK    3  A    between atoms: C_8  and  O_9
REMARK    4  A    between atoms: C_11  and  O_12
REMARK    5  A    between atoms: C_13  and  O_14
REMARK    6  A    between atoms: O_14  and  C_15
REMARK    7  A    between atoms: N_21  and  C_22
REMARK    8  A    between atoms: N_21  and  C_23
REMARK                            x       y       z     vdW  Elec       q    Type
REMARK                         _______ _______ _______ _____ _____    ______ ____
ROOT
ATOM      1  C   UNL     1       1.414   2.255 -23.685  0.00  0.00    +0.162 A 
ATOM      2  C   UNL     1       1.406   1.966 -22.418  0.00  0.00    +0.050 A 
ATOM      3  C   UNL     1       0.300   2.057 -21.738  0.00  0.00    +0.008 A 
ATOM      4  C   UNL     1      -0.795   2.435 -22.326  0.00  0.00    -0.030 A 
ATOM      5  C   UNL     1      -0.786   2.723 -23.594  0.00  0.00    +0.035 A 
ATOM      6  C   UNL     1      -1.882   3.102 -24.182  0.00  0.00    +0.040 A 
ATOM      7  C   UNL     1      -1.873   3.390 -25.449  0.00  0.00    +0.167 A 
ATOM      8  C   UNL     1      -2.968   3.769 -26.039  0.00  0.00    +0.162 A 
ATOM      9  C   UNL     1      -4.073   3.859 -25.359  0.00  0.00    +0.053 A 
ATOM     10  C   UNL     1      -4.082   3.570 -24.091  0.00  0.00    -0.030 A 
ATOM     11  C   UNL     1      -5.187   3.661 -23.412  0.00  0.00    +0.086 C 
ATOM     12  C   UNL     1      -5.197   3.372 -22.144  0.00  0.00    +0.138 C 
ATOM     13  N   UNL     1      -4.100   2.994 -21.556  0.00  0.00    +0.245 N 
ATOM     14  C   UNL     1      -3.291   2.599 -20.618  0.00  0.00    +0.193 C 
ATOM     15  C   UNL     1      -4.924   2.947 -20.552  0.00  0.00    +0.193 C 
ATOM     16  C   UNL     1      -2.996   2.904 -22.236  0.00  0.00    +0.102 C 
ATOM     17  C   UNL     1      -2.986   3.192 -23.503  0.00  0.00    +0.015 A 
ATOM     18  C   UNL     1      -1.899   2.525 -21.647  0.00  0.00    +0.095 C 
ATOM     19  C   UNL     1       0.319   2.633 -24.273  0.00  0.00    +0.167 A 
ENDROOT
BRANCH   1  21
ATOM     20  C   UNL     1       3.299   1.137 -24.203  0.00  0.00    +0.277 C 
ATOM     21  O   UNL     1       2.519   2.164 -24.364  0.00  0.00    -0.491 OA
ENDBRANCH   1  21
BRANCH   8  22
ATOM     22  O   UNL     1      -2.959   4.056 -27.305  0.00  0.00    -0.491 OA
ATOM     23  C   UNL     1      -3.706   3.384 -28.131  0.00  0.00    +0.277 C 
ENDBRANCH   8  22
BRANCH   7  24
ATOM     24  O   UNL     1      -0.768   3.300 -26.129  0.00  0.00    -0.503 OA
ATOM     25  H   UNL     1      -0.486   2.469 -26.457  0.00  0.00    +0.292 HD
ENDBRANCH   7  24
BRANCH  19  26
ATOM     26  O   UNL     1       0.328   2.921 -25.541  0.00  0.00    -0.503 OA
ATOM     27  H   UNL     1       0.866   3.620 -25.859  0.00  0.00    +0.292 HD
ENDBRANCH  19  26
TORSDOF 4
ENDMDL
MODEL 2
REMARK VINA RESULT:    -7.431      2.047      4.890
REMARK INTER + INTRA:          -9.237
REMARK INTER:                  -9.475
REMARK INTRA:                   0.238
REMARK UNBOUND:                -0.069
REMARK  Name = ZINC000000519824
REMARK  8 active torsions:
REMARK  status: ('A' for Active; 'I' for Inactive)
REMARK    1  A    between atoms: C_1  and  O_2
REMARK    2  A    between atoms: O_2  and  C_3
REMARK    3  A    between atoms: C_8  and  O_9
REMARK    4  A    between atoms: C_11  and  O_12
REMARK    5  A    between atoms: C_13  and  O_14
REMARK    6  A    between atoms: O_14  and  C_15
REMARK    7  A    between atoms: N_21  and  C_22
REMARK    8  A    between atoms: N_21  and  C_23
REMARK                            x       y       z     vdW  Elec       q    Type
REMARK                         _______ _______ _______ _____ _____    ______ ____
ROOT
ATOM      1  C   UNL     1      -4.916   3.093 -21.691  0.00  0.00    +0.162 A 
ATOM      2  C   UNL     1      -4.392   2.674 -20.577  0.00  0.00    +0.050 A 
ATOM      3  C   UNL     1      -3.123   2.394 -20.521  0.00  0.00    +0.008 A 
ATOM      4  C   UNL     1      -2.379   2.533 -21.577  0.00  0.00    -0.030 A 
ATOM      5  C   UNL     1      -2.903   2.952 -22.691  0.00  0.00    +0.035 A 
ATOM      6  C   UNL     1      -2.159   3.090 -23.747  0.00  0.00    +0.040 A 
ATOM      7  C   UNL     1      -2.682   3.509 -24.861  0.00  0.00    +0.167 A 
ATOM      8  C   UNL     1      -1.939   3.648 -25.918  0.00  0.00    +0.162 A 
ATOM      9  C   UNL     1      -0.670   3.368 -25.861  0.00  0.00    +0.053 A 
ATOM     10  C   UNL     1      -0.146   2.949 -24.748  0.00  0.00    -0.030 A 
ATOM     11  C   UNL     1       1.122   2.669 -24.691  0.00  0.00    +0.086 C 
ATOM     12  C   UNL     1       1.646   2.251 -23.577  0.00  0.00    +0.138 C 
ATOM     13  N   UNL     1       0.902   2.112 -22.520  0.00  0.00    +0.245 N 
ATOM     14  C   UNL     1       0.557   1.843 -21.296  0.00  0.00    +0.193 C 
ATOM     15  C   UNL     1       2.050   1.739 -22.039  0.00  0.00    +0.193 C 
ATOM     16  C   UNL     1      -0.367   2.392 -22.577  0.00  0.00    +0.102 C 
ATOM     17  C   UNL     1      -0.891   2.811 -23.691  0.00  0.00    +0.015 A 
ATOM     18  C   UNL     1      -1.111   2.253 -21.520  0.00  0.00    +0.095 C 
ATOM     19  C   UNL     1      -4.172   3.232 -22.748  0.00  0.00    +0.167 A 
ENDROOT
BRANCH   1  21
ATOM     20  C   UNL     1      -7.062   2.414 -21.739  0.00  0.00    +0.277 C 
ATOM     21  O   UNL     1      -6.183   3.373 -21.747  0.00  0.00    -0.491 OA
ENDBRANCH   1  21
BRANCH   8  22
ATOM     22  O   UNL     1      -2.463   4.066 -27.031  0.00  0.00    -0.491 OA
ATOM     23  C   UNL     1      -3.314   3.319 -27.671  0.00  0.00    +0.277 C 
ENDBRANCH   8  22
BRANCH   7  24
ATOM     24  O   UNL     1      -3.951   3.789 -24.918  0.00  0.00    -0.503 OA
ATOM     25  H   UNL     1      -4.234   4.616 -25.254  0.00  0.00    +0.292 HD
ENDBRANCH   7  24
BRANCH  19  26
ATOM     26  O   UNL     1      -4.695   3.650 -23.861  0.00  0.00    -0.503 OA
ATOM     27  H   UNL     1      -4.207   3.592 -24.660  0.00  0.00    +0.292 HD
ENDBRANCH  19  26
TORSDOF 4
ENDMDL
MODEL 3
REMARK VINA RESULT:    -7.322      2.240      4.009
REMARK INTER + INTRA:          -9.103
REMARK INTER:                  -8.924
REMARK INTRA:                  -0.179
REMARK UNBOUND:                -0.069
REMARK  Name = ZINC000000519824
REMARK  8 active torsions:
REMARK  status: ('A' for Active; 'I' for Inactive)
REMARK    1  A    between atoms: C_1  and  O_2
REMARK    2  A    between atoms: O_2  and  C_3
REMARK    3  A    between atoms: C_8  and  O_9
REMARK    4  A    between atoms: C_11  and  O_12
REMARK    5  A    between atoms: C_13  and  O_14
REMARK    6  A    between atoms: O_14  and  C_15
REMARK    7  A    between atoms: N_21  and  C_22
REMARK    8  A    between atoms: N_21  and  C_23
REMARK                            x       y       z     vdW  Elec       q    Type
REMARK                         _______ _______ _______ _____ _____    ______ ____
ROOT
ATOM      1  C   UNL     1       1.811   2.536 -23.459  0.00  0.00    +0.162 A 
ATOM      2  C   UNL     1       2.013   2.719 -24.730  0.00  0.00    +0.050 A 
ATOM      3  C   UNL     1       1.011   2.985 -25.515  0.00  0.00    +0.008 A 
ATOM      4  C   UNL     1      -0.192   3.066 -25.030  0.00  0.00    -0.030 A 
ATOM      5  C   UNL     1      -0.394   2.883 -23.759  0.00  0.00    +0.035 A 
ATOM      6  C   UNL     1      -1.596   2.964 -23.273  0.00  0.00    +0.040 A 
ATOM      7  C   UNL     1      -1.798   2.780 -22.002  0.00  0.00    +0.167 A 
ATOM      8  C   UNL     1      -3.000   2.862 -21.515  0.00  0.00    +0.162 A 
ATOM      9  C   UNL     1      -4.002   3.127 -22.300  0.00  0.00    +0.053 A 
ATOM     10  C   UNL     1      -3.801   3.311 -23.571  0.00  0.00    -0.030 A 
ATOM     11  C   UNL     1      -4.803   3.576 -24.356  0.00  0.00    +0.086 C 
ATOM     12  C   UNL     1      -4.602   3.760 -25.628  0.00  0.00    +0.138 C 
ATOM     13  N   UNL     1      -3.398   3.678 -26.113  0.00  0.00    +0.245 N 
ATOM     14  C   UNL     1      -2.427   3.690 -26.977  0.00  0.00    +0.193 C 
ATOM     15  C   UNL     1      -4.063   3.947 -27.198  0.00  0.00    +0.193 C 
ATOM     16  C   UNL     1      -2.397   3.413 -25.328  0.00  0.00    +0.102 C 
ATOM     17  C   UNL     1      -2.598   3.229 -24.057  0.00  0.00    +0.015 A 
ATOM     18  C   UNL     1      -1.193   3.331 -25.815  0.00  0.00    +0.095 C 
ATOM     19  C   UNL     1       0.609   2.617 -22.973  0.00  0.00    +0.167 A 
ENDROOT
BRANCH   1  21
ATOM     20  C   UNL     1       3.607   1.277 -22.946  0.00  0.00    +0.277 C 
ATOM     21  O   UNL     1       2.813   2.271 -22.675  0.00  0.00    -0.491 OA
ENDBRANCH   1  21
BRANCH   8  22
ATOM     22  O   UNL     1      -3.201   2.678 -20.244  0.00  0.00    -0.491 OA
ATOM     23  C   UNL     1      -3.317   3.702 -19.450  0.00  0.00    +0.277 C 
ENDBRANCH   8  22
BRANCH   7  24
ATOM     24  O   UNL     1      -0.795   2.515 -21.216  0.00  0.00    -0.503 OA
ATOM     25  H   UNL     1       0.030   2.262 -21.579  0.00  0.00    +0.292 HD
ENDBRANCH   7  24
BRANCH  19  26
ATOM     26  O   UNL     1       0.407   2.434 -21.702  0.00  0.00    -0.503 OA
ATOM     27  H   UNL     1      -0.287   2.890 -21.267  0.00  0.00    +0.292 HD
ENDBRANCH  19  26
TORSDOF 4
ENDMDL
MODEL 4
REMARK VINA RESULT:    -7.010      3.425      6.723
REMARK INTER + INTRA:          -8.718
REMARK INTER:                  -8.452
REMARK INTRA:                  -0.265
REMARK UNBOUND:                -0.069
REMARK  Name = ZINC000000519824
REMARK  8 active torsions:
REMARK  status: ('A' for Active; 'I' for Inactive)
REMARK    1  A    between atoms: C_1  and  O_2
REMARK    2  A    between atoms: O_2  and  C_3
REMARK    3  A    between atoms: C_8  and  O_9
REMARK    4  A    between atoms: C_11  and  O_12
REMARK    5  A    between atoms: C_13  and  O_14
REMARK    6  A    between atoms: O_14  and  C_15
REMARK    7  A    between atoms: N_21  and  C_22
REMARK    8  A    between atoms: N_21  and  C_23
REMARK                            x       y       z     vdW  Elec       q    Type
REMARK                         _______ _______ _______ _____ _____    ______ ____
ROOT
ATOM      1  C   UNL     1      -1.196   3.664 -23.430  0.00  0.00    +0.162 A 
ATOM      2  C   UNL     1      -1.335   2.381 -23.276  0.00  0.00    +0.050 A 
ATOM      3  C   UNL     1      -0.302   1.646 -22.984  0.00  0.00    +0.008 A 
ATOM      4  C   UNL     1       0.868   2.194 -22.845  0.00  0.00    -0.030 A 
ATOM      5  C   UNL     1       1.007   3.477 -22.999  0.00  0.00    +0.035 A 
ATOM      6  C   UNL     1       2.177   4.026 -22.860  0.00  0.00    +0.040 A 
ATOM      7  C   UNL     1       2.316   5.309 -23.013  0.00  0.00    +0.167 A 
ATOM      8  C   UNL     1       3.486   5.858 -22.875  0.00  0.00    +0.162 A 
ATOM      9  C   UNL     1       4.518   5.123 -22.583  0.00  0.00    +0.053 A 
ATOM     10  C   UNL     1       4.379   3.840 -22.429  0.00  0.00    -0.030 A 
ATOM     11  C   UNL     1       5.411   3.105 -22.137  0.00  0.00    +0.086 C 
ATOM     12  C   UNL     1       5.273   1.821 -21.983  0.00  0.00    +0.138 C 
ATOM     13  N   UNL     1       4.102   1.273 -22.122  0.00  0.00    +0.245 N 
ATOM     14  C   UNL     1       3.179   0.359 -22.164  0.00  0.00    +0.193 C 
ATOM     15  C   UNL     1       4.813   0.221 -21.844  0.00  0.00    +0.193 C 
ATOM     16  C   UNL     1       3.070   2.008 -22.414  0.00  0.00    +0.102 C 
ATOM     17  C   UNL     1       3.208   3.292 -22.568  0.00  0.00    +0.015 A 
ATOM     18  C   UNL     1       1.899   1.459 -22.553  0.00  0.00    +0.095 C 
ATOM     19  C   UNL     1      -0.026   4.213 -23.291  0.00  0.00    +0.167 A 
ENDROOT
BRANCH   1  21
ATOM     20  C   UNL     1      -2.911   4.160 -24.802  0.00  0.00    +0.277 C 
ATOM     21  O   UNL     1      -2.227   4.399 -23.722  0.00  0.00    -0.491 OA
ENDBRANCH   1  21
BRANCH   8  22
ATOM     22  O   UNL     1       3.624   7.141 -23.029  0.00  0.00    -0.491 OA
ATOM     23  C   UNL     1       4.203   7.848 -22.103  0.00  0.00    +0.277 C 
ENDBRANCH   8  22
BRANCH   7  24
ATOM     24  O   UNL     1       1.283   6.044 -23.306  0.00  0.00    -0.503 OA
ATOM     25  H   UNL     1       1.341   6.977 -23.247  0.00  0.00    +0.292 HD
ENDBRANCH   7  24
BRANCH  19  26
ATOM     26  O   UNL     1       0.114   5.496 -23.445  0.00  0.00    -0.503 OA
ATOM     27  H   UNL     1       0.719   5.829 -24.078  0.00  0.00    +0.292 HD
ENDBRANCH  19  26
TORSDOF 4
ENDMDL
MODEL 5
REMARK VINA RESULT:    -6.709      5.417      8.810
REMARK INTER + INTRA:          -8.347
REMARK INTER:                  -8.184
REMARK INTRA:                  -0.163
REMARK UNBOUND:                -0.069
REMARK  Name = ZINC000000519824
REMARK  8 active torsions:
REMARK  status: ('A' for Active; 'I' for Inactive)
REMARK    1  A    between atoms: C_1  and  O_2
REMARK    2  A    between atoms: O_2  and  C_3
REMARK    3  A    between atoms: C_8  and  O_9
REMARK    4  A    between atoms: C_11  and  O_12
REMARK    5  A    between atoms: C_13  and  O_14
REMARK    6  A    between atoms: O_14  and  C_15
REMARK    7  A    between atoms: N_21  and  C_22
REMARK    8  A    between atoms: N_21  and  C_23
REMARK                            x       y       z     vdW  Elec       q    Type
REMARK                         _______ _______ _______ _____ _____    ______ ____
ROOT
ATOM      1  C   UNL     1       2.395   3.379 -23.988  0.00  0.00    +0.162 A 
ATOM      2  C   UNL     1       1.603   4.334 -23.601  0.00  0.00    +0.050 A 
ATOM      3  C   UNL     1       2.096   5.401 -23.043  0.00  0.00    +0.008 A 
ATOM      4  C   UNL     1       3.379   5.512 -22.873  0.00  0.00    -0.030 A 
ATOM      5  C   UNL     1       4.171   4.557 -23.261  0.00  0.00    +0.035 A 
ATOM      6  C   UNL     1       5.455   4.668 -23.091  0.00  0.00    +0.040 A 
ATOM      7  C   UNL     1       6.247   3.713 -23.479  0.00  0.00    +0.167 A 
ATOM      8  C   UNL     1       7.531   3.823 -23.310  0.00  0.00    +0.162 A 
ATOM      9  C   UNL     1       8.023   4.890 -22.752  0.00  0.00    +0.053 A 
ATOM     10  C   UNL     1       7.232   5.846 -22.365  0.00  0.00    -0.030 A 
ATOM     11  C   UNL     1       7.724   6.912 -21.807  0.00  0.00    +0.086 C 
ATOM     12  C   UNL     1       6.932   7.868 -21.420  0.00  0.00    +0.138 C 
ATOM     13  N   UNL     1       5.648   7.756 -21.589  0.00  0.00    +0.245 N 
ATOM     14  C   UNL     1       4.382   8.052 -21.562  0.00  0.00    +0.193 C 
ATOM     15  C   UNL     1       5.701   8.925 -21.023  0.00  0.00    +0.193 C 
ATOM     16  C   UNL     1       5.156   6.690 -22.147  0.00  0.00    +0.102 C 
ATOM     17  C   UNL     1       5.948   5.734 -22.534  0.00  0.00    +0.015 A 
ATOM     18  C   UNL     1       3.871   6.579 -22.316  0.00  0.00    +0.095 C 
ATOM     19  C   UNL     1       3.679   3.490 -23.818  0.00  0.00    +0.167 A 
ENDROOT
BRANCH   1  21
ATOM     20  C   UNL     1       1.557   2.334 -25.798  0.00  0.00    +0.277 C 
ATOM     21  O   UNL     1       1.903   2.313 -24.545  0.00  0.00    -0.491 OA
ENDBRANCH   1  21
BRANCH   8  22
ATOM     22  O   UNL     1       8.322   2.869 -23.697  0.00  0.00    -0.491 OA
ATOM     23  C   UNL     1       9.060   3.025 -24.757  0.00  0.00    +0.277 C 
ENDBRANCH   8  22
BRANCH   7  24
ATOM     24  O   UNL     1       5.755   2.646 -24.036  0.00  0.00    -0.503 OA
ATOM     25  H   UNL     1       6.325   1.960 -24.320  0.00  0.00    +0.292 HD
ENDBRANCH   7  24
BRANCH  19  26
ATOM     26  O   UNL     1       4.471   2.535 -24.206  0.00  0.00    -0.503 OA
ATOM     27  H   UNL     1       4.276   2.052 -24.985  0.00  0.00    +0.292 HD
ENDBRANCH  19  26
TORSDOF 4
ENDMDL
MODEL 6
REMARK VINA RESULT:    -6.507      5.360      8.830
REMARK INTER + INTRA:          -8.097
REMARK INTER:                  -7.835
REMARK INTRA:                  -0.262
REMARK UNBOUND:                -0.069
REMARK  Name = ZINC000000519824
REMARK  8 active torsions:
REMARK  status: ('A' for Active; 'I' for Inactive)
REMARK    1  A    between atoms: C_1  and  O_2
REMARK    2  A    between atoms: O_2  and  C_3
REMARK    3  A    between atoms: C_8  and  O_9
REMARK    4  A    between atoms: C_11  and  O_12
REMARK    5  A    between atoms: C_13  and  O_14
REMARK    6  A    between atoms: O_14  and  C_15
REMARK    7  A    between atoms: N_21  and  C_22
REMARK    8  A    between atoms: N_21  and  C_23
REMARK                            x       y       z     vdW  Elec       q    Type
REMARK                         _______ _______ _______ _____ _____    ______ ____
ROOT
ATOM      1  C   UNL     1       1.963   3.290 -23.664  0.00  0.00    +0.162 A 
ATOM      2  C   UNL     1       2.584   2.229 -24.087  0.00  0.00    +0.050 A 
ATOM      3  C   UNL     1       3.885   2.197 -24.092  0.00  0.00    +0.008 A 
ATOM      4  C   UNL     1       4.562   3.224 -23.674  0.00  0.00    -0.030 A 
ATOM      5  C   UNL     1       3.940   4.285 -23.251  0.00  0.00    +0.035 A 
ATOM      6  C   UNL     1       4.617   5.312 -22.833  0.00  0.00    +0.040 A 
ATOM      7  C   UNL     1       3.996   6.373 -22.410  0.00  0.00    +0.167 A 
ATOM      8  C   UNL     1       4.672   7.401 -21.992  0.00  0.00    +0.162 A 
ATOM      9  C   UNL     1       5.972   7.368 -21.997  0.00  0.00    +0.053 A 
ATOM     10  C   UNL     1       6.594   6.308 -22.420  0.00  0.00    -0.030 A 
ATOM     11  C   UNL     1       7.894   6.275 -22.425  0.00  0.00    +0.086 C 
ATOM     12  C   UNL     1       8.516   5.215 -22.847  0.00  0.00    +0.138 C 
ATOM     13  N   UNL     1       7.838   4.187 -23.265  0.00  0.00    +0.245 N 
ATOM     14  C   UNL     1       7.582   3.006 -23.742  0.00  0.00    +0.193 C 
ATOM     15  C   UNL     1       9.049   3.745 -23.435  0.00  0.00    +0.193 C 
ATOM     16  C   UNL     1       6.539   4.220 -23.260  0.00  0.00    +0.102 C 
ATOM     17  C   UNL     1       5.916   5.280 -22.838  0.00  0.00    +0.015 A 
ATOM     18  C   UNL     1       5.861   3.192 -23.679  0.00  0.00    +0.095 C 
ATOM     19  C   UNL     1       2.640   4.317 -23.246  0.00  0.00    +0.167 A 
ENDROOT
BRANCH   1  21
ATOM     20  C   UNL     1      -0.006   2.478 -22.931  0.00  0.00    +0.277 C 
ATOM     21  O   UNL     1       0.663   3.322 -23.660  0.00  0.00    -0.491 OA
ENDBRANCH   1  21
BRANCH   8  22
ATOM     22  O   UNL     1       4.050   8.460 -21.570  0.00  0.00    -0.491 OA
ATOM     23  C   UNL     1       4.365   8.985 -20.422  0.00  0.00    +0.277 C 
ENDBRANCH   8  22
BRANCH   7  24
ATOM     24  O   UNL     1       2.695   6.405 -22.406  0.00  0.00    -0.503 OA
ATOM     25  H   UNL     1       2.216   6.083 -23.143  0.00  0.00    +0.292 HD
ENDBRANCH   7  24
BRANCH  19  26
ATOM     26  O   UNL     1       2.018   5.378 -22.824  0.00  0.00    -0.503 OA
ATOM     27  H   UNL     1       1.878   5.504 -21.905  0.00  0.00    +0.292 HD
ENDBRANCH  19  26
TORSDOF 4
ENDMDL
MODEL 7
REMARK VINA RESULT:    -6.427      4.035      7.745
REMARK INTER + INTRA:          -7.998
REMARK INTER:                  -7.800
REMARK INTRA:                  -0.198
REMARK UNBOUND:                -0.069
REMARK  Name = ZINC000000519824
REMARK  8 active torsions:
REMARK  status: ('A' for Active; 'I' for Inactive)
REMARK    1  A    between atoms: C_1  and  O_2
REMARK    2  A    between atoms: O_2  and  C_3
REMARK    3  A    between atoms: C_8  and  O_9
REMARK    4  A    between atoms: C_11  and  O_12
REMARK    5  A    between atoms: C_13  and  O_14
REMARK    6  A    between atoms: O_14  and  C_15
REMARK    7  A    between atoms: N_21  and  C_22
REMARK    8  A    between atoms: N_21  and  C_23
REMARK                            x       y       z     vdW  Elec       q    Type
REMARK                         _______ _______ _______ _____ _____    ______ ____
ROOT
ATOM      1  C   UNL     1       0.313   3.093 -23.720  0.00  0.00    +0.162 A 
ATOM      2  C   UNL     1      -0.007   4.351 -23.789  0.00  0.00    +0.050 A 
ATOM      3  C   UNL     1       0.877   5.263 -23.510  0.00  0.00    +0.008 A 
ATOM      4  C   UNL     1       2.080   4.917 -23.162  0.00  0.00    -0.030 A 
ATOM      5  C   UNL     1       2.401   3.659 -23.094  0.00  0.00    +0.035 A 
ATOM      6  C   UNL     1       3.604   3.313 -22.746  0.00  0.00    +0.040 A 
ATOM      7  C   UNL     1       3.925   2.055 -22.677  0.00  0.00    +0.167 A 
ATOM      8  C   UNL     1       5.129   1.708 -22.330  0.00  0.00    +0.162 A 
ATOM      9  C   UNL     1       6.012   2.620 -22.051  0.00  0.00    +0.053 A 
ATOM     10  C   UNL     1       5.692   3.878 -22.120  0.00  0.00    -0.030 A 
ATOM     11  C   UNL     1       6.576   4.790 -21.841  0.00  0.00    +0.086 C 
ATOM     12  C   UNL     1       6.256   6.048 -21.909  0.00  0.00    +0.138 C 
ATOM     13  N   UNL     1       5.052   6.394 -22.257  0.00  0.00    +0.245 N 
ATOM     14  C   UNL     1       4.032   7.149 -22.542  0.00  0.00    +0.193 C 
ATOM     15  C   UNL     1       5.582   7.568 -22.077  0.00  0.00    +0.193 C 
ATOM     16  C   UNL     1       4.168   5.482 -22.536  0.00  0.00    +0.102 C 
ATOM     17  C   UNL     1       4.488   4.224 -22.467  0.00  0.00    +0.015 A 
ATOM     18  C   UNL     1       2.964   5.829 -22.884  0.00  0.00    +0.095 C 
ATOM     19  C   UNL     1       1.517   2.747 -23.373  0.00  0.00    +0.167 A 
ENDROOT
BRANCH   1  21
ATOM     20  C   UNL     1      -1.838   2.471 -23.960  0.00  0.00    +0.277 C 
ATOM     21  O   UNL     1      -0.570   2.182 -23.999  0.00  0.00    -0.491 OA
ENDBRANCH   1  21
BRANCH   8  22
ATOM     22  O   UNL     1       5.448   0.451 -22.261  0.00  0.00    -0.491 OA
ATOM     23  C   UNL     1       5.528  -0.138 -21.104  0.00  0.00    +0.277 C 
ENDBRANCH   8  22
BRANCH   7  24
ATOM     24  O   UNL     1       3.041   1.143 -22.956  0.00  0.00    -0.503 OA
ATOM     25  H   UNL     1       3.269   0.424 -23.512  0.00  0.00    +0.292 HD
ENDBRANCH   7  24
BRANCH  19  26
ATOM     26  O   UNL     1       1.837   1.489 -23.304  0.00  0.00    -0.503 OA
ATOM     27  H   UNL     1       1.270   0.884 -22.867  0.00  0.00    +0.292 HD
ENDBRANCH  19  26
TORSDOF 4
ENDMDL
MODEL 8
REMARK VINA RESULT:    -6.341      4.919      7.357
REMARK INTER + INTRA:          -7.892
REMARK INTER:                  -7.637
REMARK INTRA:                  -0.255
REMARK UNBOUND:                -0.069
REMARK  Name = ZINC000000519824
REMARK  8 active torsions:
REMARK  status: ('A' for Active; 'I' for Inactive)
REMARK    1  A    between atoms: C_1  and  O_2
REMARK    2  A    between atoms: O_2  and  C_3
REMARK    3  A    between atoms: C_8  and  O_9
REMARK    4  A    between atoms: C_11  and  O_12
REMARK    5  A    between atoms: C_13  and  O_14
REMARK    6  A    between atoms: O_14  and  C_15
REMARK    7  A    between atoms: N_21  and  C_22
REMARK    8  A    between atoms: N_21  and  C_23
REMARK                            x       y       z     vdW  Elec       q    Type
REMARK                         _______ _______ _______ _____ _____    ______ ____
ROOT
ATOM      1  C   UNL     1       5.583   7.595 -22.069  0.00  0.00    +0.162 A 
ATOM      2  C   UNL     1       6.687   7.020 -21.696  0.00  0.00    +0.050 A 
ATOM      3  C   UNL     1       6.775   5.722 -21.694  0.00  0.00    +0.008 A 
ATOM      4  C   UNL     1       5.760   5.001 -22.064  0.00  0.00    -0.030 A 
ATOM      5  C   UNL     1       4.655   5.576 -22.437  0.00  0.00    +0.035 A 
ATOM      6  C   UNL     1       3.640   4.855 -22.807  0.00  0.00    +0.040 A 
ATOM      7  C   UNL     1       2.535   5.429 -23.181  0.00  0.00    +0.167 A 
ATOM      8  C   UNL     1       1.519   4.709 -23.551  0.00  0.00    +0.162 A 
ATOM      9  C   UNL     1       1.608   3.412 -23.549  0.00  0.00    +0.053 A 
ATOM     10  C   UNL     1       2.712   2.836 -23.175  0.00  0.00    -0.030 A 
ATOM     11  C   UNL     1       2.800   1.539 -23.173  0.00  0.00    +0.086 C 
ATOM     12  C   UNL     1       3.905   0.963 -22.800  0.00  0.00    +0.138 C 
ATOM     13  N   UNL     1       4.921   1.685 -22.429  0.00  0.00    +0.245 N 
ATOM     14  C   UNL     1       6.111   1.993 -22.007  0.00  0.00    +0.193 C 
ATOM     15  C   UNL     1       5.422   0.495 -22.280  0.00  0.00    +0.193 C 
ATOM     16  C   UNL     1       4.832   2.982 -22.432  0.00  0.00    +0.102 C 
ATOM     17  C   UNL     1       3.728   3.558 -22.805  0.00  0.00    +0.015 A 
ATOM     18  C   UNL     1       5.849   3.704 -22.061  0.00  0.00    +0.095 C 
ATOM     19  C   UNL     1       4.567   6.874 -22.440  0.00  0.00    +0.167 A 
ENDROOT
BRANCH   1  21
ATOM     20  C   UNL     1       5.717   9.561 -20.980  0.00  0.00    +0.277 C 
ATOM     21  O   UNL     1       5.495   8.891 -22.072  0.00  0.00    -0.491 OA
ENDBRANCH   1  21
BRANCH   8  22
ATOM     22  O   UNL     1       0.416   5.284 -23.924  0.00  0.00    -0.491 OA
ATOM     23  C   UNL     1      -0.667   5.134 -23.218  0.00  0.00    +0.277 C 
ENDBRANCH   8  22
BRANCH   7  24
ATOM     24  O   UNL     1       2.447   6.727 -23.183  0.00  0.00    -0.503 OA
ATOM     25  H   UNL     1       1.610   7.140 -23.262  0.00  0.00    +0.292 HD
ENDBRANCH   7  24
BRANCH  19  26
ATOM     26  O   UNL     1       3.462   7.449 -22.813  0.00  0.00    -0.503 OA
ATOM     27  H   UNL     1       3.144   7.329 -23.687  0.00  0.00    +0.292 HD
ENDBRANCH  19  26
TORSDOF 4
ENDMDL
