MODEL 1
REMARK VINA RESULT:    -6.869      0.000      0.000
REMARK INTER + INTRA:          -8.051
REMARK INTER:                  -8.840
REMARK INTRA:                   0.789
REMARK UNBOUND:                 0.825
REMARK  Name = ZINC000001760775
REMARK  8 active torsions:
REMARK  status: ('A' for Active; 'I' for Inactive)
REMARK    1  A    between atoms: C_1  and  C_2
REMARK    2  A    between atoms: C_2  and  C_3
REMARK    3  A    between atoms: C_2  and  C_4
REMARK    4  A    between atoms: C_4  and  C_5
REMARK    5  A    between atoms: C_4  and  N_8
REMARK    6  A    between atoms: N_8  and  C_9
REMARK    7  A    between atoms: N_8  and  C_10
REMARK    8  A    between atoms: C_10  and  C_11
REMARK                            x       y       z     vdW  Elec       q    Type
REMARK                         _______ _______ _______ _____ _____    ______ ____
ROOT
ATOM      1  N   UNL     1      -1.116   3.056 -24.388  0.00  0.00    +0.243 N 
ATOM      2  H   UNL     1      -0.878   3.641 -25.189  0.00  0.00    +0.204 HD
ATOM      3  C   UNL     1      -1.231   3.602 -25.562  0.00  0.00    +0.191 C 
ENDROOT
BRANCH   1   4
ATOM      4  C   UNL     1      -0.096   3.343 -23.634  0.00  0.00    +0.114 C 
BRANCH   4   6
ATOM      5  C   UNL     1       1.283   5.122 -23.609  0.00  0.00    +0.013 C 
ATOM      6  C   UNL     1       0.141   4.578 -23.307  0.00  0.00    +0.037 C 
ATOM      7  C   UNL     1      -0.762   5.271 -22.679  0.00  0.00    +0.013 C 
ENDBRANCH   4   6
BRANCH   4   8
ATOM      8  C   UNL     1       0.685   2.395 -23.209  0.00  0.00    +0.090 C 
ATOM      9  O   UNL     1       1.441   1.752 -24.047  0.00  0.00    -0.544 OA
ATOM     10  O   UNL     1       0.710   2.091 -21.945  0.00  0.00    -0.544 OA
ENDBRANCH   4   8
ENDBRANCH   1   4
BRANCH   1  11
ATOM     11  C   UNL     1      -2.021   2.223 -23.967  0.00  0.00    +0.168 C 
BRANCH  11  12
ATOM     12  C   UNL     1      -2.960   2.634 -23.168  0.00  0.00    -0.003 A 
ATOM     13  C   UNL     1      -2.892   2.372 -21.896  0.00  0.00    +0.009 A 
ATOM     14  C   UNL     1      -3.830   2.782 -21.096  0.00  0.00    +0.000 A 
ATOM     15  C   UNL     1      -4.838   3.456 -21.567  0.00  0.00    +0.000 A 
ATOM     16  C   UNL     1      -4.906   3.718 -22.839  0.00  0.00    +0.000 A 
ATOM     17  C   UNL     1      -3.968   3.307 -23.639  0.00  0.00    +0.009 A 
ENDBRANCH  11  12
ENDBRANCH   1  11
TORSDOF 5
ENDMDL
MODEL 2
REMARK VINA RESULT:    -6.691      1.480      2.412
REMARK INTER + INTRA:          -7.822
REMARK INTER:                  -8.641
REMARK INTRA:                   0.819
REMARK UNBOUND:                 0.825
REMARK  Name = ZINC000001760775
REMARK  8 active torsions:
REMARK  status: ('A' for Active; 'I' for Inactive)
REMARK    1  A    between atoms: C_1  and  C_2
REMARK    2  A    between atoms: C_2  and  C_3
REMARK    3  A    between atoms: C_2  and  C_4
REMARK    4  A    between atoms: C_4  and  C_5
REMARK    5  A    between atoms: C_4  and  N_8
REMARK    6  A    between atoms: N_8  and  C_9
REMARK    7  A    between atoms: N_8  and  C_10
REMARK    8  A    between atoms: C_10  and  C_11
REMARK                            x       y       z     vdW  Elec       q    Type
REMARK                         _______ _______ _______ _____ _____    ______ ____
ROOT
ATOM      1  N   UNL     1       0.103   2.562 -23.061  0.00  0.00    +0.243 N 
ATOM      2  H   UNL     1       1.042   2.536 -22.663  0.00  0.00    +0.204 HD
ATOM      3  C   UNL     1       1.088   2.163 -22.311  0.00  0.00    +0.191 C 
ENDROOT
BRANCH   1   4
ATOM      4  C   UNL     1       0.273   3.557 -23.881  0.00  0.00    +0.114 C 
BRANCH   4   6
ATOM      5  C   UNL     1      -0.481   5.486 -23.000  0.00  0.00    +0.013 C 
ATOM      6  C   UNL     1       0.505   4.748 -23.417  0.00  0.00    +0.037 C 
ATOM      7  C   UNL     1       1.722   5.203 -23.369  0.00  0.00    +0.013 C 
ENDBRANCH   4   6
BRANCH   4   8
ATOM      8  C   UNL     1       0.211   3.359 -25.164  0.00  0.00    +0.090 C 
ATOM      9  O   UNL     1      -0.895   3.596 -25.805  0.00  0.00    -0.544 OA
ATOM     10  O   UNL     1       1.254   2.923 -25.806  0.00  0.00    -0.544 OA
ENDBRANCH   4   8
ENDBRANCH   1   4
BRANCH   1  11
ATOM     11  C   UNL     1      -1.051   1.968 -22.989  0.00  0.00    +0.168 C 
BRANCH  11  12
ATOM     12  C   UNL     1      -2.045   2.551 -22.388  0.00  0.00    -0.003 A 
ATOM     13  C   UNL     1      -3.117   2.861 -23.057  0.00  0.00    +0.009 A 
ATOM     14  C   UNL     1      -4.112   3.444 -22.457  0.00  0.00    +0.000 A 
ATOM     15  C   UNL     1      -4.035   3.717 -21.188  0.00  0.00    +0.000 A 
ATOM     16  C   UNL     1      -2.964   3.408 -20.520  0.00  0.00    +0.000 A 
ATOM     17  C   UNL     1      -1.969   2.825 -21.120  0.00  0.00    +0.009 A 
ENDBRANCH  11  12
ENDBRANCH   1  11
TORSDOF 5
ENDMDL
MODEL 3
REMARK VINA RESULT:    -6.596      1.548      2.061
REMARK INTER + INTRA:          -7.699
REMARK INTER:                  -8.717
REMARK INTRA:                   1.018
REMARK UNBOUND:                 0.825
REMARK  Name = ZINC000001760775
REMARK  8 active torsions:
REMARK  status: ('A' for Active; 'I' for Inactive)
REMARK    1  A    between atoms: C_1  and  C_2
REMARK    2  A    between atoms: C_2  and  C_3
REMARK    3  A    between atoms: C_2  and  C_4
REMARK    4  A    between atoms: C_4  and  C_5
REMARK    5  A    between atoms: C_4  and  N_8
REMARK    6  A    between atoms: N_8  and  C_9
REMARK    7  A    between atoms: N_8  and  C_10
REMARK    8  A    between atoms: C_10  and  C_11
REMARK                            x       y       z     vdW  Elec       q    Type
REMARK                         _______ _______ _______ _____ _____    ______ ____
ROOT
ATOM      1  N   UNL     1      -0.871   3.101 -24.335  0.00  0.00    +0.243 N 
ATOM      2  H   UNL     1      -0.879   3.604 -25.223  0.00  0.00    +0.204 HD
ATOM      3  C   UNL     1      -1.305   3.503 -25.493  0.00  0.00    +0.191 C 
ENDROOT
BRANCH   1   4
ATOM      4  C   UNL     1       0.272   3.527 -23.886  0.00  0.00    +0.114 C 
BRANCH   4   6
ATOM      5  C   UNL     1       1.897   2.213 -24.724  0.00  0.00    +0.013 C 
ATOM      6  C   UNL     1       1.250   2.691 -23.702  0.00  0.00    +0.037 C 
ATOM      7  C   UNL     1       1.581   2.331 -22.498  0.00  0.00    +0.013 C 
ENDBRANCH   4   6
BRANCH   4   8
ATOM      8  C   UNL     1       0.437   4.789 -23.622  0.00  0.00    +0.090 C 
ATOM      9  O   UNL     1       1.472   5.421 -24.089  0.00  0.00    -0.544 OA
ATOM     10  O   UNL     1      -0.433   5.419 -22.890  0.00  0.00    -0.544 OA
ENDBRANCH   4   8
ENDBRANCH   1   4
BRANCH   1  11
ATOM     11  C   UNL     1      -1.580   2.273 -23.627  0.00  0.00    +0.168 C 
BRANCH  11  12
ATOM     12  C   UNL     1      -2.403   2.726 -22.729  0.00  0.00    -0.003 A 
ATOM     13  C   UNL     1      -2.017   2.840 -21.492  0.00  0.00    +0.009 A 
ATOM     14  C   UNL     1      -2.840   3.293 -20.594  0.00  0.00    +0.000 A 
ATOM     15  C   UNL     1      -4.048   3.633 -20.931  0.00  0.00    +0.000 A 
ATOM     16  C   UNL     1      -4.434   3.520 -22.168  0.00  0.00    +0.000 A 
ATOM     17  C   UNL     1      -3.611   3.067 -23.067  0.00  0.00    +0.009 A 
ENDBRANCH  11  12
ENDBRANCH   1  11
TORSDOF 5
ENDMDL
MODEL 4
REMARK VINA RESULT:    -6.561      1.349      2.200
REMARK INTER + INTRA:          -7.653
REMARK INTER:                  -8.693
REMARK INTRA:                   1.040
REMARK UNBOUND:                 0.825
REMARK  Name = ZINC000001760775
REMARK  8 active torsions:
REMARK  status: ('A' for Active; 'I' for Inactive)
REMARK    1  A    between atoms: C_1  and  C_2
REMARK    2  A    between atoms: C_2  and  C_3
REMARK    3  A    between atoms: C_2  and  C_4
REMARK    4  A    between atoms: C_4  and  C_5
REMARK    5  A    between atoms: C_4  and  N_8
REMARK    6  A    between atoms: N_8  and  C_9
REMARK    7  A    between atoms: N_8  and  C_10
REMARK    8  A    between atoms: C_10  and  C_11
REMARK                            x       y       z     vdW  Elec       q    Type
REMARK                         _______ _______ _______ _____ _____    ______ ____
ROOT
ATOM      1  N   UNL     1      -0.555   2.591 -23.196  0.00  0.00    +0.243 N 
ATOM      2  H   UNL     1      -0.217   2.666 -22.236  0.00  0.00    +0.204 HD
ATOM      3  C   UNL     1      -0.528   2.421 -21.907  0.00  0.00    +0.191 C 
ENDROOT
BRANCH   1   4
ATOM      4  C   UNL     1       0.385   3.272 -23.782  0.00  0.00    +0.114 C 
BRANCH   4   6
ATOM      5  C   UNL     1       1.775   4.963 -23.256  0.00  0.00    +0.013 C 
ATOM      6  C   UNL     1       0.571   4.521 -23.471  0.00  0.00    +0.037 C 
ATOM      7  C   UNL     1      -0.444   5.327 -23.375  0.00  0.00    +0.013 C 
ENDBRANCH   4   6
BRANCH   4   8
ATOM      8  C   UNL     1       1.137   2.705 -24.677  0.00  0.00    +0.090 C 
ATOM      9  O   UNL     1       1.835   1.653 -24.367  0.00  0.00    -0.544 OA
ATOM     10  O   UNL     1       1.191   3.189 -25.883  0.00  0.00    -0.544 OA
ENDBRANCH   4   8
ENDBRANCH   1   4
BRANCH   1  11
ATOM     11  C   UNL     1      -1.523   2.081 -23.898  0.00  0.00    +0.168 C 
BRANCH  11  12
ATOM     12  C   UNL     1      -2.547   2.814 -24.221  0.00  0.00    -0.003 A 
ATOM     13  C   UNL     1      -3.457   3.087 -23.332  0.00  0.00    +0.009 A 
ATOM     14  C   UNL     1      -4.481   3.819 -23.654  0.00  0.00    +0.000 A 
ATOM     15  C   UNL     1      -4.596   4.279 -24.864  0.00  0.00    +0.000 A 
ATOM     16  C   UNL     1      -3.688   4.007 -25.753  0.00  0.00    +0.000 A 
ATOM     17  C   UNL     1      -2.663   3.274 -25.431  0.00  0.00    +0.009 A 
ENDBRANCH  11  12
ENDBRANCH   1  11
TORSDOF 5
ENDMDL
MODEL 5
REMARK VINA RESULT:    -6.499      1.693      3.400
REMARK INTER + INTRA:          -7.573
REMARK INTER:                  -8.608
REMARK INTRA:                   1.034
REMARK UNBOUND:                 0.825
REMARK  Name = ZINC000001760775
REMARK  8 active torsions:
REMARK  status: ('A' for Active; 'I' for Inactive)
REMARK    1  A    between atoms: C_1  and  C_2
REMARK    2  A    between atoms: C_2  and  C_3
REMARK    3  A    between atoms: C_2  and  C_4
REMARK    4  A    between atoms: C_4  and  C_5
REMARK    5  A    between atoms: C_4  and  N_8
REMARK    6  A    between atoms: N_8  and  C_9
REMARK    7  A    between atoms: N_8  and  C_10
REMARK    8  A    between atoms: C_10  and  C_11
REMARK                            x       y       z     vdW  Elec       q    Type
REMARK                         _______ _______ _______ _____ _____    ______ ____
ROOT
ATOM      1  N   UNL     1      -1.475   4.231 -22.776  0.00  0.00    +0.243 N 
ATOM      2  H   UNL     1      -0.470   4.295 -22.612  0.00  0.00    +0.204 HD
ATOM      3  C   UNL     1      -0.263   4.692 -22.865  0.00  0.00    +0.191 C 
ENDROOT
BRANCH   1   4
ATOM      4  C   UNL     1      -1.719   3.182 -22.046  0.00  0.00    +0.114 C 
BRANCH   4   6
ATOM      5  C   UNL     1      -2.807   4.084 -20.293  0.00  0.00    +0.013 C 
ATOM      6  C   UNL     1      -2.729   3.183 -21.227  0.00  0.00    +0.037 C 
ATOM      7  C   UNL     1      -3.660   2.283 -21.341  0.00  0.00    +0.013 C 
ENDBRANCH   4   6
BRANCH   4   8
ATOM      8  C   UNL     1      -0.953   2.136 -22.135  0.00  0.00    +0.090 C 
ATOM      9  O   UNL     1      -0.831   1.515 -23.270  0.00  0.00    -0.544 OA
ATOM     10  O   UNL     1      -0.310   1.710 -21.088  0.00  0.00    -0.544 OA
ENDBRANCH   4   8
ENDBRANCH   1   4
BRANCH   1  11
ATOM     11  C   UNL     1      -2.443   4.817 -23.416  0.00  0.00    +0.168 C 
BRANCH  11  12
ATOM     12  C   UNL     1      -2.996   4.229 -24.435  0.00  0.00    -0.003 A 
ATOM     13  C   UNL     1      -4.286   4.063 -24.468  0.00  0.00    +0.009 A 
ATOM     14  C   UNL     1      -4.840   3.476 -25.486  0.00  0.00    +0.000 A 
ATOM     15  C   UNL     1      -4.105   3.054 -26.472  0.00  0.00    +0.000 A 
ATOM     16  C   UNL     1      -2.816   3.219 -26.440  0.00  0.00    +0.000 A 
ATOM     17  C   UNL     1      -2.262   3.807 -25.421  0.00  0.00    +0.009 A 
ENDBRANCH  11  12
ENDBRANCH   1  11
TORSDOF 5
ENDMDL
MODEL 6
REMARK VINA RESULT:    -6.459      1.094      1.936
REMARK INTER + INTRA:          -7.522
REMARK INTER:                  -9.179
REMARK INTRA:                   1.657
REMARK UNBOUND:                 0.825
REMARK  Name = ZINC000001760775
REMARK  8 active torsions:
REMARK  status: ('A' for Active; 'I' for Inactive)
REMARK    1  A    between atoms: C_1  and  C_2
REMARK    2  A    between atoms: C_2  and  C_3
REMARK    3  A    between atoms: C_2  and  C_4
REMARK    4  A    between atoms: C_4  and  C_5
REMARK    5  A    between atoms: C_4  and  N_8
REMARK    6  A    between atoms: N_8  and  C_9
REMARK    7  A    between atoms: N_8  and  C_10
REMARK    8  A    between atoms: C_10  and  C_11
REMARK                            x       y       z     vdW  Elec       q    Type
REMARK                         _______ _______ _______ _____ _____    ______ ____
ROOT
ATOM      1  N   UNL     1      -0.854   3.529 -23.190  0.00  0.00    +0.243 N 
ATOM      2  H   UNL     1      -0.579   4.444 -22.831  0.00  0.00    +0.204 HD
ATOM      3  C   UNL     1      -0.970   4.777 -22.844  0.00  0.00    +0.191 C 
ENDROOT
BRANCH   1   4
ATOM      4  C   UNL     1       0.284   2.918 -23.044  0.00  0.00    +0.114 C 
BRANCH   4   6
ATOM      5  C   UNL     1       2.355   3.797 -23.115  0.00  0.00    +0.013 C 
ATOM      6  C   UNL     1       1.320   3.303 -23.728  0.00  0.00    +0.037 C 
ATOM      7  C   UNL     1       1.322   3.194 -25.023  0.00  0.00    +0.013 C 
ENDBRANCH   4   6
BRANCH   4   8
ATOM      8  C   UNL     1       0.385   1.922 -22.214  0.00  0.00    +0.090 C 
ATOM      9  O   UNL     1       0.887   0.792 -22.613  0.00  0.00    -0.544 OA
ATOM     10  O   UNL     1      -0.016   2.057 -20.985  0.00  0.00    -0.544 OA
ENDBRANCH   4   8
ENDBRANCH   1   4
BRANCH   1  11
ATOM     11  C   UNL     1      -1.875   2.893 -23.682  0.00  0.00    +0.168 C 
BRANCH  11  12
ATOM     12  C   UNL     1      -3.045   3.014 -23.126  0.00  0.00    -0.003 A 
ATOM     13  C   UNL     1      -4.019   3.577 -23.778  0.00  0.00    +0.009 A 
ATOM     14  C   UNL     1      -5.188   3.698 -23.223  0.00  0.00    +0.000 A 
ATOM     15  C   UNL     1      -5.383   3.256 -22.016  0.00  0.00    +0.000 A 
ATOM     16  C   UNL     1      -4.410   2.693 -21.364  0.00  0.00    +0.000 A 
ATOM     17  C   UNL     1      -3.240   2.572 -21.919  0.00  0.00    +0.009 A 
ENDBRANCH  11  12
ENDBRANCH   1  11
TORSDOF 5
ENDMDL
MODEL 7
REMARK VINA RESULT:    -6.184      2.395      3.821
REMARK INTER + INTRA:          -7.166
REMARK INTER:                  -7.991
REMARK INTRA:                   0.825
REMARK UNBOUND:                 0.825
REMARK  Name = ZINC000001760775
REMARK  8 active torsions:
REMARK  status: ('A' for Active; 'I' for Inactive)
REMARK    1  A    between atoms: C_1  and  C_2
REMARK    2  A    between atoms: C_2  and  C_3
REMARK    3  A    between atoms: C_2  and  C_4
REMARK    4  A    between atoms: C_4  and  C_5
REMARK    5  A    between atoms: C_4  and  N_8
REMARK    6  A    between atoms: N_8  and  C_9
REMARK    7  A    between atoms: N_8  and  C_10
REMARK    8  A    between atoms: C_10  and  C_11
REMARK                            x       y       z     vdW  Elec       q    Type
REMARK                         _______ _______ _______ _____ _____    ______ ____
ROOT
ATOM      1  N   UNL     1       2.324   3.837 -23.689  0.00  0.00    +0.243 N 
ATOM      2  H   UNL     1       2.912   4.239 -22.958  0.00  0.00    +0.204 HD
ATOM      3  C   UNL     1       2.908   4.753 -22.974  0.00  0.00    +0.191 C 
ENDROOT
BRANCH   1   4
ATOM      4  C   UNL     1       2.517   2.580 -23.418  0.00  0.00    +0.114 C 
BRANCH   4   6
ATOM      5  C   UNL     1       2.928   1.831 -21.335  0.00  0.00    +0.013 C 
ATOM      6  C   UNL     1       2.088   2.086 -22.295  0.00  0.00    +0.037 C 
ATOM      7  C   UNL     1       0.821   1.845 -22.131  0.00  0.00    +0.013 C 
ENDBRANCH   4   6
BRANCH   4   8
ATOM      8  C   UNL     1       3.138   1.819 -24.270  0.00  0.00    +0.090 C 
ATOM      9  O   UNL     1       4.401   2.008 -24.509  0.00  0.00    -0.544 OA
ATOM     10  O   UNL     1       2.495   0.869 -24.882  0.00  0.00    -0.544 OA
ENDBRANCH   4   8
ENDBRANCH   1   4
BRANCH   1  11
ATOM     11  C   UNL     1       1.548   4.178 -24.674  0.00  0.00    +0.168 C 
BRANCH  11  12
ATOM     12  C   UNL     1       0.258   4.178 -24.515  0.00  0.00    -0.003 A 
ATOM     13  C   UNL     1      -0.495   3.477 -25.311  0.00  0.00    +0.009 A 
ATOM     14  C   UNL     1      -1.785   3.476 -25.152  0.00  0.00    +0.000 A 
ATOM     15  C   UNL     1      -2.323   4.175 -24.196  0.00  0.00    +0.000 A 
ATOM     16  C   UNL     1      -1.571   4.875 -23.400  0.00  0.00    +0.000 A 
ATOM     17  C   UNL     1      -0.280   4.876 -23.559  0.00  0.00    +0.009 A 
ENDBRANCH  11  12
ENDBRANCH   1  11
TORSDOF 5
ENDMDL
