MODEL 1
REMARK VINA RESULT:    -8.326      0.000      0.000
REMARK INTER + INTRA:          -9.031
REMARK INTER:                  -9.255
REMARK INTRA:                   0.223
REMARK UNBOUND:                 0.268
REMARK  Name = ZINC000000199415
REMARK  4 active torsions:
REMARK  status: ('A' for Active; 'I' for Inactive)
REMARK    1  A    between atoms: C_1  and  O_2
REMARK    2  A    between atoms: O_2  and  C_3
REMARK    3  A    between atoms: C_11  and  O_12
REMARK    4  A    between atoms: O_12  and  C_13
REMARK                            x       y       z     vdW  Elec       q    Type
REMARK                         _______ _______ _______ _____ _____    ______ ____
ROOT
ATOM      1  C   UNL     1      -2.614   2.645 -21.965  0.00  0.00    +0.142 A 
ATOM      2  C   UNL     1      -1.392   2.213 -22.068  0.00  0.00    +0.082 A 
ATOM      3  C   UNL     1      -0.557   1.747 -21.188  0.00  0.00    +0.055 A 
ATOM      4  C   UNL     1       0.549   1.449 -21.803  0.00  0.00    +0.198 A 
ATOM      5  O   UNL     1       0.398   1.730 -23.063  0.00  0.00    -0.445 OA
ATOM      6  C   UNL     1      -0.802   2.203 -23.227  0.00  0.00    +0.231 A 
ATOM      7  N   UNL     1      -1.434   2.625 -24.282  0.00  0.00    -0.208 NA
ATOM      8  C   UNL     1      -2.656   3.057 -24.178  0.00  0.00    +0.120 A 
ATOM      9  C   UNL     1      -3.287   3.479 -25.233  0.00  0.00    +0.146 A 
ATOM     10  C   UNL     1      -4.509   3.912 -25.130  0.00  0.00    +0.048 A 
ATOM     11  C   UNL     1      -5.099   3.922 -23.971  0.00  0.00    +0.004 A 
ATOM     12  C   UNL     1      -4.467   3.500 -22.916  0.00  0.00    +0.014 A 
ATOM     13  C   UNL     1      -3.245   3.067 -23.020  0.00  0.00    +0.046 A 
ENDROOT
BRANCH   1  15
ATOM     14  C   UNL     1      -3.075   3.683 -20.020  0.00  0.00    +0.277 C 
ATOM     15  O   UNL     1      -3.203   2.656 -20.806  0.00  0.00    -0.494 OA
ENDBRANCH   1  15
BRANCH   9  16
ATOM     16  O   UNL     1      -2.698   3.469 -26.392  0.00  0.00    -0.493 OA
ATOM     17  C   UNL     1      -3.405   3.501 -27.482  0.00  0.00    +0.277 C 
ENDBRANCH   9  16
TORSDOF 2
ENDMDL
MODEL 2
REMARK VINA RESULT:    -7.866      1.388      4.786
REMARK INTER + INTRA:          -8.518
REMARK INTER:                  -8.753
REMARK INTRA:                   0.235
REMARK UNBOUND:                 0.268
REMARK  Name = ZINC000000199415
REMARK  4 active torsions:
REMARK  status: ('A' for Active; 'I' for Inactive)
REMARK    1  A    between atoms: C_1  and  O_2
REMARK    2  A    between atoms: O_2  and  C_3
REMARK    3  A    between atoms: C_11  and  O_12
REMARK    4  A    between atoms: O_12  and  C_13
REMARK                            x       y       z     vdW  Elec       q    Type
REMARK                         _______ _______ _______ _____ _____    ______ ____
ROOT
ATOM      1  C   UNL     1      -3.031   3.740 -24.345  0.00  0.00    +0.142 A 
ATOM      2  C   UNL     1      -3.896   3.489 -23.408  0.00  0.00    +0.082 A 
ATOM      3  C   UNL     1      -5.176   3.703 -23.326  0.00  0.00    +0.055 A 
ATOM      4  C   UNL     1      -5.583   3.265 -22.171  0.00  0.00    +0.198 A 
ATOM      5  O   UNL     1      -4.555   2.781 -21.539  0.00  0.00    -0.445 OA
ATOM      6  C   UNL     1      -3.513   2.920 -22.304  0.00  0.00    +0.231 A 
ATOM      7  N   UNL     1      -2.264   2.601 -22.137  0.00  0.00    -0.208 NA
ATOM      8  C   UNL     1      -1.397   2.851 -23.074  0.00  0.00    +0.120 A 
ATOM      9  C   UNL     1      -0.149   2.532 -22.907  0.00  0.00    +0.146 A 
ATOM     10  C   UNL     1       0.717   2.782 -23.844  0.00  0.00    +0.048 A 
ATOM     11  C   UNL     1       0.333   3.352 -24.948  0.00  0.00    +0.004 A 
ATOM     12  C   UNL     1      -0.916   3.671 -25.115  0.00  0.00    +0.014 A 
ATOM     13  C   UNL     1      -1.782   3.421 -24.178  0.00  0.00    +0.046 A 
ENDROOT
BRANCH   1  15
ATOM     14  C   UNL     1      -3.803   3.583 -26.454  0.00  0.00    +0.277 C 
ATOM     15  O   UNL     1      -3.415   4.309 -25.448  0.00  0.00    -0.494 OA
ENDBRANCH   1  15
BRANCH   9  16
ATOM     16  O   UNL     1       0.235   1.962 -21.803  0.00  0.00    -0.493 OA
ATOM     17  C   UNL     1       1.407   1.404 -21.733  0.00  0.00    +0.277 C 
ENDBRANCH   9  16
TORSDOF 2
ENDMDL
MODEL 3
REMARK VINA RESULT:    -7.820      1.199      4.170
REMARK INTER + INTRA:          -8.466
REMARK INTER:                  -8.703
REMARK INTRA:                   0.236
REMARK UNBOUND:                 0.268
REMARK  Name = ZINC000000199415
REMARK  4 active torsions:
REMARK  status: ('A' for Active; 'I' for Inactive)
REMARK    1  A    between atoms: C_1  and  O_2
REMARK    2  A    between atoms: O_2  and  C_3
REMARK    3  A    between atoms: C_11  and  O_12
REMARK    4  A    between atoms: O_12  and  C_13
REMARK                            x       y       z     vdW  Elec       q    Type
REMARK                         _______ _______ _______ _____ _____    ______ ____
ROOT
ATOM      1  C   UNL     1      -2.682   2.790 -22.344  0.00  0.00    +0.142 A 
ATOM      2  C   UNL     1      -3.291   3.307 -23.368  0.00  0.00    +0.082 A 
ATOM      3  C   UNL     1      -4.518   3.700 -23.543  0.00  0.00    +0.055 A 
ATOM      4  C   UNL     1      -4.627   4.148 -24.760  0.00  0.00    +0.198 A 
ATOM      5  O   UNL     1      -3.467   4.032 -25.335  0.00  0.00    -0.445 OA
ATOM      6  C   UNL     1      -2.642   3.513 -24.475  0.00  0.00    +0.231 A 
ATOM      7  N   UNL     1      -1.383   3.201 -24.558  0.00  0.00    -0.208 NA
ATOM      8  C   UNL     1      -0.772   2.683 -23.533  0.00  0.00    +0.120 A 
ATOM      9  C   UNL     1       0.487   2.371 -23.616  0.00  0.00    +0.146 A 
ATOM     10  C   UNL     1       1.096   1.853 -22.591  0.00  0.00    +0.048 A 
ATOM     11  C   UNL     1       0.447   1.648 -21.484  0.00  0.00    +0.004 A 
ATOM     12  C   UNL     1      -0.812   1.960 -21.402  0.00  0.00    +0.014 A 
ATOM     13  C   UNL     1      -1.423   2.478 -22.426  0.00  0.00    +0.046 A 
ENDROOT
BRANCH   1  15
ATOM     14  C   UNL     1      -3.363   3.506 -20.321  0.00  0.00    +0.277 C 
ATOM     15  O   UNL     1      -3.331   2.584 -21.237  0.00  0.00    -0.494 OA
ENDBRANCH   1  15
BRANCH   9  16
ATOM     16  O   UNL     1       1.136   2.576 -24.723  0.00  0.00    -0.493 OA
ATOM     17  C   UNL     1       2.312   2.051 -24.894  0.00  0.00    +0.277 C 
ENDBRANCH   9  16
TORSDOF 2
ENDMDL
MODEL 4
REMARK VINA RESULT:    -7.804      1.677      3.287
REMARK INTER + INTRA:          -8.448
REMARK INTER:                  -8.666
REMARK INTRA:                   0.218
REMARK UNBOUND:                 0.268
REMARK  Name = ZINC000000199415
REMARK  4 active torsions:
REMARK  status: ('A' for Active; 'I' for Inactive)
REMARK    1  A    between atoms: C_1  and  O_2
REMARK    2  A    between atoms: O_2  and  C_3
REMARK    3  A    between atoms: C_11  and  O_12
REMARK    4  A    between atoms: O_12  and  C_13
REMARK                            x       y       z     vdW  Elec       q    Type
REMARK                         _______ _______ _______ _____ _____    ______ ____
ROOT
ATOM      1  C   UNL     1      -0.507   2.869 -23.974  0.00  0.00    +0.142 A 
ATOM      2  C   UNL     1      -0.014   2.333 -22.897  0.00  0.00    +0.082 A 
ATOM      3  C   UNL     1       1.182   1.917 -22.603  0.00  0.00    +0.055 A 
ATOM      4  C   UNL     1       1.158   1.459 -21.385  0.00  0.00    +0.198 A 
ATOM      5  O   UNL     1      -0.051   1.594 -20.928  0.00  0.00    -0.445 OA
ATOM      6  C   UNL     1      -0.776   2.134 -21.863  0.00  0.00    +0.231 A 
ATOM      7  N   UNL     1      -2.031   2.470 -21.905  0.00  0.00    -0.208 NA
ATOM      8  C   UNL     1      -2.525   3.005 -22.983  0.00  0.00    +0.120 A 
ATOM      9  C   UNL     1      -3.780   3.341 -23.025  0.00  0.00    +0.146 A 
ATOM     10  C   UNL     1      -4.273   3.876 -24.102  0.00  0.00    +0.048 A 
ATOM     11  C   UNL     1      -3.511   4.076 -25.136  0.00  0.00    +0.004 A 
ATOM     12  C   UNL     1      -2.256   3.740 -25.094  0.00  0.00    +0.014 A 
ATOM     13  C   UNL     1      -1.762   3.204 -24.016  0.00  0.00    +0.046 A 
ENDROOT
BRANCH   1  15
ATOM     14  C   UNL     1       0.986   4.140 -25.080  0.00  0.00    +0.277 C 
ATOM     15  O   UNL     1       0.255   3.068 -25.008  0.00  0.00    -0.494 OA
ENDBRANCH   1  15
BRANCH   9  16
ATOM     16  O   UNL     1      -4.541   3.142 -21.990  0.00  0.00    -0.493 OA
ATOM     17  C   UNL     1      -5.834   3.196 -22.115  0.00  0.00    +0.277 C 
ENDBRANCH   9  16
TORSDOF 2
ENDMDL
MODEL 5
REMARK VINA RESULT:    -7.329      1.620      2.518
REMARK INTER + INTRA:          -7.918
REMARK INTER:                  -8.425
REMARK INTRA:                   0.507
REMARK UNBOUND:                 0.268
REMARK  Name = ZINC000000199415
REMARK  4 active torsions:
REMARK  status: ('A' for Active; 'I' for Inactive)
REMARK    1  A    between atoms: C_1  and  O_2
REMARK    2  A    between atoms: O_2  and  C_3
REMARK    3  A    between atoms: C_11  and  O_12
REMARK    4  A    between atoms: O_12  and  C_13
REMARK                            x       y       z     vdW  Elec       q    Type
REMARK                         _______ _______ _______ _____ _____    ______ ____
ROOT
ATOM      1  C   UNL     1      -1.216   2.861 -22.539  0.00  0.00    +0.142 A 
ATOM      2  C   UNL     1      -0.491   3.102 -23.590  0.00  0.00    +0.082 A 
ATOM      3  C   UNL     1       0.785   2.988 -23.812  0.00  0.00    +0.055 A 
ATOM      4  C   UNL     1       1.014   3.359 -25.037  0.00  0.00    +0.198 A 
ATOM      5  O   UNL     1      -0.119   3.703 -25.572  0.00  0.00    -0.445 OA
ATOM      6  C   UNL     1      -1.050   3.544 -24.678  0.00  0.00    +0.231 A 
ATOM      7  N   UNL     1      -2.334   3.745 -24.714  0.00  0.00    -0.208 NA
ATOM      8  C   UNL     1      -3.060   3.503 -23.662  0.00  0.00    +0.120 A 
ATOM      9  C   UNL     1      -4.343   3.704 -23.698  0.00  0.00    +0.146 A 
ATOM     10  C   UNL     1      -5.068   3.463 -22.647  0.00  0.00    +0.048 A 
ATOM     11  C   UNL     1      -4.509   3.021 -21.559  0.00  0.00    +0.004 A 
ATOM     12  C   UNL     1      -3.226   2.820 -21.523  0.00  0.00    +0.014 A 
ATOM     13  C   UNL     1      -2.500   3.062 -22.575  0.00  0.00    +0.046 A 
ENDROOT
BRANCH   1  15
ATOM     14  C   UNL     1      -0.237   1.191 -21.390  0.00  0.00    +0.277 C 
ATOM     15  O   UNL     1      -0.658   2.419 -21.451  0.00  0.00    -0.494 OA
ENDBRANCH   1  15
BRANCH   9  16
ATOM     16  O   UNL     1      -4.902   4.146 -24.786  0.00  0.00    -0.493 OA
ATOM     17  C   UNL     1      -5.303   3.310 -25.696  0.00  0.00    +0.277 C 
ENDBRANCH   9  16
TORSDOF 2
ENDMDL
MODEL 6
REMARK VINA RESULT:    -7.077      2.827      6.217
REMARK INTER + INTRA:          -7.637
REMARK INTER:                  -7.857
REMARK INTRA:                   0.220
REMARK UNBOUND:                 0.268
REMARK  Name = ZINC000000199415
REMARK  4 active torsions:
REMARK  status: ('A' for Active; 'I' for Inactive)
REMARK    1  A    between atoms: C_1  and  O_2
REMARK    2  A    between atoms: O_2  and  C_3
REMARK    3  A    between atoms: C_11  and  O_12
REMARK    4  A    between atoms: O_12  and  C_13
REMARK                            x       y       z     vdW  Elec       q    Type
REMARK                         _______ _______ _______ _____ _____    ______ ____
ROOT
ATOM      1  C   UNL     1       0.737   3.086 -23.377  0.00  0.00    +0.142 A 
ATOM      2  C   UNL     1      -0.258   2.673 -22.649  0.00  0.00    +0.082 A 
ATOM      3  C   UNL     1      -1.503   3.041 -22.589  0.00  0.00    +0.055 A 
ATOM      4  C   UNL     1      -2.095   2.311 -21.690  0.00  0.00    +0.198 A 
ATOM      5  O   UNL     1      -1.215   1.493 -21.195  0.00  0.00    -0.445 OA
ATOM      6  C   UNL     1      -0.079   1.717 -21.787  0.00  0.00    +0.231 A 
ATOM      7  N   UNL     1       1.093   1.172 -21.653  0.00  0.00    -0.208 NA
ATOM      8  C   UNL     1       2.089   1.585 -22.381  0.00  0.00    +0.120 A 
ATOM      9  C   UNL     1       3.262   1.041 -22.247  0.00  0.00    +0.146 A 
ATOM     10  C   UNL     1       4.256   1.454 -22.975  0.00  0.00    +0.048 A 
ATOM     11  C   UNL     1       4.078   2.411 -23.837  0.00  0.00    +0.004 A 
ATOM     12  C   UNL     1       2.905   2.955 -23.971  0.00  0.00    +0.014 A 
ATOM     13  C   UNL     1       1.910   2.542 -23.243  0.00  0.00    +0.046 A 
ENDROOT
BRANCH   1  15
ATOM     14  C   UNL     1       0.155   3.767 -25.443  0.00  0.00    +0.277 C 
ATOM     15  O   UNL     1       0.559   4.043 -24.238  0.00  0.00    -0.494 OA
ENDBRANCH   1  15
BRANCH   9  16
ATOM     16  O   UNL     1       3.440   0.084 -21.385  0.00  0.00    -0.493 OA
ATOM     17  C   UNL     1       4.467   0.109 -20.590  0.00  0.00    +0.277 C 
ENDBRANCH   9  16
TORSDOF 2
ENDMDL
MODEL 7
REMARK VINA RESULT:    -7.061      1.653      2.800
REMARK INTER + INTRA:          -7.619
REMARK INTER:                  -7.897
REMARK INTRA:                   0.278
REMARK UNBOUND:                 0.268
REMARK  Name = ZINC000000199415
REMARK  4 active torsions:
REMARK  status: ('A' for Active; 'I' for Inactive)
REMARK    1  A    between atoms: C_1  and  O_2
REMARK    2  A    between atoms: O_2  and  C_3
REMARK    3  A    between atoms: C_11  and  O_12
REMARK    4  A    between atoms: O_12  and  C_13
REMARK                            x       y       z     vdW  Elec       q    Type
REMARK                         _______ _______ _______ _____ _____    ______ ____
ROOT
ATOM      1  C   UNL     1      -0.174   1.938 -22.335  0.00  0.00    +0.142 A 
ATOM      2  C   UNL     1       0.672   2.252 -23.271  0.00  0.00    +0.082 A 
ATOM      3  C   UNL     1       1.918   1.934 -23.459  0.00  0.00    +0.055 A 
ATOM      4  C   UNL     1       2.318   2.511 -24.554  0.00  0.00    +0.198 A 
ATOM      5  O   UNL     1       1.319   3.185 -25.042  0.00  0.00    -0.445 OA
ATOM      6  C   UNL     1       0.302   3.025 -24.249  0.00  0.00    +0.231 A 
ATOM      7  N   UNL     1      -0.914   3.483 -24.291  0.00  0.00    -0.208 NA
ATOM      8  C   UNL     1      -1.760   3.168 -23.355  0.00  0.00    +0.120 A 
ATOM      9  C   UNL     1      -2.976   3.627 -23.397  0.00  0.00    +0.146 A 
ATOM     10  C   UNL     1      -3.822   3.312 -22.461  0.00  0.00    +0.048 A 
ATOM     11  C   UNL     1      -3.451   2.540 -21.484  0.00  0.00    +0.004 A 
ATOM     12  C   UNL     1      -2.236   2.081 -21.441  0.00  0.00    +0.014 A 
ATOM     13  C   UNL     1      -1.389   2.396 -22.377  0.00  0.00    +0.046 A 
ENDROOT
BRANCH   1  15
ATOM     14  C   UNL     1       1.067   1.587 -20.489  0.00  0.00    +0.277 C 
ATOM     15  O   UNL     1       0.196   1.165 -21.358  0.00  0.00    -0.494 OA
ENDBRANCH   1  15
BRANCH   9  16
ATOM     16  O   UNL     1      -3.346   4.399 -24.375  0.00  0.00    -0.493 OA
ATOM     17  C   UNL     1      -4.536   4.278 -24.885  0.00  0.00    +0.277 C 
ENDBRANCH   9  16
TORSDOF 2
ENDMDL
MODEL 8
REMARK VINA RESULT:    -6.799      3.425      6.604
REMARK INTER + INTRA:          -7.326
REMARK INTER:                  -7.553
REMARK INTRA:                   0.228
REMARK UNBOUND:                 0.268
REMARK  Name = ZINC000000199415
REMARK  4 active torsions:
REMARK  status: ('A' for Active; 'I' for Inactive)
REMARK    1  A    between atoms: C_1  and  O_2
REMARK    2  A    between atoms: O_2  and  C_3
REMARK    3  A    between atoms: C_11  and  O_12
REMARK    4  A    between atoms: O_12  and  C_13
REMARK                            x       y       z     vdW  Elec       q    Type
REMARK                         _______ _______ _______ _____ _____    ______ ____
ROOT
ATOM      1  C   UNL     1       1.074   2.112 -22.632  0.00  0.00    +0.142 A 
ATOM      2  C   UNL     1       0.708   3.278 -23.074  0.00  0.00    +0.082 A 
ATOM      3  C   UNL     1      -0.442   3.735 -23.474  0.00  0.00    +0.055 A 
ATOM      4  C   UNL     1      -0.281   4.978 -23.821  0.00  0.00    +0.198 A 
ATOM      5  O   UNL     1       0.967   5.289 -23.634  0.00  0.00    -0.445 OA
ATOM      6  C   UNL     1       1.578   4.238 -23.172  0.00  0.00    +0.231 A 
ATOM      7  N   UNL     1       2.815   4.033 -22.829  0.00  0.00    -0.208 NA
ATOM      8  C   UNL     1       3.181   2.866 -22.387  0.00  0.00    +0.120 A 
ATOM      9  C   UNL     1       4.418   2.660 -22.043  0.00  0.00    +0.146 A 
ATOM     10  C   UNL     1       4.784   1.494 -21.602  0.00  0.00    +0.048 A 
ATOM     11  C   UNL     1       3.913   0.533 -21.503  0.00  0.00    +0.004 A 
ATOM     12  C   UNL     1       2.677   0.739 -21.847  0.00  0.00    +0.014 A 
ATOM     13  C   UNL     1       2.310   1.906 -22.289  0.00  0.00    +0.046 A 
ENDROOT
BRANCH   1  15
ATOM     14  C   UNL     1      -0.663   1.156 -21.564  0.00  0.00    +0.277 C 
ATOM     15  O   UNL     1       0.203   1.151 -22.534  0.00  0.00    -0.494 OA
ENDBRANCH   1  15
BRANCH   9  16
ATOM     16  O   UNL     1       5.289   3.620 -22.142  0.00  0.00    -0.493 OA
ATOM     17  C   UNL     1       6.463   3.492 -21.599  0.00  0.00    +0.277 C 
ENDBRANCH   9  16
TORSDOF 2
ENDMDL
MODEL 9
REMARK VINA RESULT:    -6.739      2.842      4.786
REMARK INTER + INTRA:          -7.259
REMARK INTER:                  -7.527
REMARK INTRA:                   0.268
REMARK UNBOUND:                 0.268
REMARK  Name = ZINC000000199415
REMARK  4 active torsions:
REMARK  status: ('A' for Active; 'I' for Inactive)
REMARK    1  A    between atoms: C_1  and  O_2
REMARK    2  A    between atoms: O_2  and  C_3
REMARK    3  A    between atoms: C_11  and  O_12
REMARK    4  A    between atoms: O_12  and  C_13
REMARK                            x       y       z     vdW  Elec       q    Type
REMARK                         _______ _______ _______ _____ _____    ______ ____
ROOT
ATOM      1  C   UNL     1       2.313   1.792 -22.259  0.00  0.00    +0.142 A 
ATOM      2  C   UNL     1       3.145   2.678 -22.721  0.00  0.00    +0.082 A 
ATOM      3  C   UNL     1       4.440   2.677 -22.838  0.00  0.00    +0.055 A 
ATOM      4  C   UNL     1       4.796   3.811 -23.365  0.00  0.00    +0.198 A 
ATOM      5  O   UNL     1       3.722   4.513 -23.573  0.00  0.00    -0.445 OA
ATOM      6  C   UNL     1       2.701   3.812 -23.175  0.00  0.00    +0.231 A 
ATOM      7  N   UNL     1       1.425   4.061 -23.168  0.00  0.00    -0.208 NA
ATOM      8  C   UNL     1       0.593   3.175 -22.706  0.00  0.00    +0.120 A 
ATOM      9  C   UNL     1      -0.683   3.424 -22.699  0.00  0.00    +0.146 A 
ATOM     10  C   UNL     1      -1.515   2.539 -22.238  0.00  0.00    +0.048 A 
ATOM     11  C   UNL     1      -1.071   1.404 -21.783  0.00  0.00    +0.004 A 
ATOM     12  C   UNL     1       0.204   1.156 -21.790  0.00  0.00    +0.014 A 
ATOM     13  C   UNL     1       1.037   2.041 -22.252  0.00  0.00    +0.046 A 
ENDROOT
BRANCH   1  15
ATOM     14  C   UNL     1       3.446   0.624 -20.703  0.00  0.00    +0.277 C 
ATOM     15  O   UNL     1       2.757   0.658 -21.805  0.00  0.00    -0.494 OA
ENDBRANCH   1  15
BRANCH   9  16
ATOM     16  O   UNL     1      -1.127   4.558 -23.154  0.00  0.00    -0.493 OA
ATOM     17  C   UNL     1      -2.121   4.579 -23.991  0.00  0.00    +0.277 C 
ENDBRANCH   9  16
TORSDOF 2
ENDMDL
