MODEL 1
REMARK VINA RESULT:    -9.488      0.000      0.000
REMARK INTER + INTRA:         -10.320
REMARK INTER:                 -10.320
REMARK INTRA:                   0.000
REMARK UNBOUND:                 0.000
REMARK  Name = ZINC000004104722
REMARK  6 active torsions:
REMARK  status: ('A' for Active; 'I' for Inactive)
REMARK    1  A    between atoms: C_1  and  C_2
REMARK    2  A    between atoms: C_2  and  C_3
REMARK    3  A    between atoms: C_6  and  C_7
REMARK    4  A    between atoms: C_6  and  O_8
REMARK    5  A    between atoms: C_11  and  C_12
REMARK    6  A    between atoms: C_13  and  O_14
REMARK                            x       y       z     vdW  Elec       q    Type
REMARK                         _______ _______ _______ _____ _____    ______ ____
ROOT
ATOM      1  C   UNL     1      -0.268   1.881 -21.320  0.00  0.00    +0.011 C 
ATOM      2  C   UNL     1      -0.998   2.293 -22.313  0.00  0.00    -0.028 C 
ATOM      3  C   UNL     1      -2.032   2.727 -22.972  0.00  0.00    +0.005 C 
ATOM      4  C   UNL     1      -2.949   3.157 -23.787  0.00  0.00    +0.033 C 
ATOM      5  C   UNL     1      -2.745   3.352 -25.056  0.00  0.00    +0.067 C 
ATOM      6  C   UNL     1      -3.856   3.781 -25.578  0.00  0.00    +0.035 C 
ATOM      7  C   UNL     1      -4.745   3.850 -24.633  0.00  0.00    +0.012 C 
ATOM      8  C   UNL     1      -2.290   3.463 -26.268  0.00  0.00    +0.041 C 
ATOM      9  C   UNL     1      -4.184   3.465 -23.525  0.00  0.00    -0.000 C 
ATOM     10  C   UNL     1      -4.809   3.418 -22.386  0.00  0.00    +0.121 C 
ATOM     11  C   UNL     1      -4.351   3.052 -21.226  0.00  0.00    +0.032 C 
ATOM     12  C   UNL     1      -3.156   2.642 -20.919  0.00  0.00    +0.007 C 
ATOM     13  C   UNL     1      -5.434   3.822 -23.492  0.00  0.00    +0.014 C 
ATOM     14  C   UNL     1      -0.126   2.232 -23.275  0.00  0.00    +0.011 C 
ATOM     15  C   UNL     1      -2.124   2.498 -21.696  0.00  0.00    -0.001 C 
ENDROOT
BRANCH   5  16
ATOM     16  O   UNL     1      -1.540   2.947 -24.786  0.00  0.00    -0.389 OA
ATOM     17  H   UNL     1      -1.425   2.891 -23.824  0.00  0.00    +0.210 HD
ENDBRANCH   5  16
BRANCH  10  18
ATOM     18  O   UNL     1      -6.056   3.786 -22.410  0.00  0.00    -0.391 OA
ATOM     19  H   UNL     1      -6.612   3.027 -22.645  0.00  0.00    +0.210 HD
ENDBRANCH  10  18
TORSDOF 2
ENDMDL
MODEL 2
REMARK VINA RESULT:    -9.397      1.432      3.089
REMARK INTER + INTRA:         -10.221
REMARK INTER:                 -10.221
REMARK INTRA:                   0.000
REMARK UNBOUND:                 0.000
REMARK  Name = ZINC000004104722
REMARK  6 active torsions:
REMARK  status: ('A' for Active; 'I' for Inactive)
REMARK    1  A    between atoms: C_1  and  C_2
REMARK    2  A    between atoms: C_2  and  C_3
REMARK    3  A    between atoms: C_6  and  C_7
REMARK    4  A    between atoms: C_6  and  O_8
REMARK    5  A    between atoms: C_11  and  C_12
REMARK    6  A    between atoms: C_13  and  O_14
REMARK                            x       y       z     vdW  Elec       q    Type
REMARK                         _______ _______ _______ _____ _____    ______ ____
ROOT
ATOM      1  C   UNL     1       0.484   2.297 -23.319  0.00  0.00    +0.011 C 
ATOM      2  C   UNL     1      -0.755   2.474 -22.968  0.00  0.00    -0.028 C 
ATOM      3  C   UNL     1      -2.012   2.800 -23.045  0.00  0.00    +0.005 C 
ATOM      4  C   UNL     1      -3.279   3.067 -22.936  0.00  0.00    +0.033 C 
ATOM      5  C   UNL     1      -3.965   2.859 -21.851  0.00  0.00    +0.067 C 
ATOM      6  C   UNL     1      -5.190   3.229 -22.074  0.00  0.00    +0.035 C 
ATOM      7  C   UNL     1      -5.263   3.665 -23.296  0.00  0.00    +0.012 C 
ATOM      8  C   UNL     1      -4.413   2.562 -20.668  0.00  0.00    +0.041 C 
ATOM      9  C   UNL     1      -4.081   3.564 -23.829  0.00  0.00    -0.000 C 
ATOM     10  C   UNL     1      -3.816   3.919 -25.051  0.00  0.00    +0.121 C 
ATOM     11  C   UNL     1      -2.680   3.863 -25.682  0.00  0.00    +0.032 C 
ATOM     12  C   UNL     1      -1.531   3.439 -25.247  0.00  0.00    +0.007 C 
ATOM     13  C   UNL     1      -5.047   4.044 -24.556  0.00  0.00    +0.014 C 
ATOM     14  C   UNL     1      -0.707   2.043 -21.743  0.00  0.00    +0.011 C 
ATOM     15  C   UNL     1      -1.234   2.966 -24.073  0.00  0.00    -0.001 C 
ENDROOT
BRANCH   5  16
ATOM     16  O   UNL     1      -2.832   2.427 -21.381  0.00  0.00    -0.389 OA
ATOM     17  H   UNL     1      -2.228   2.237 -22.116  0.00  0.00    +0.210 HD
ENDBRANCH   5  16
BRANCH  10  18
ATOM     18  O   UNL     1      -4.817   4.392 -25.733  0.00  0.00    -0.391 OA
ATOM     19  H   UNL     1      -4.657   4.255 -26.679  0.00  0.00    +0.210 HD
ENDBRANCH  10  18
TORSDOF 2
ENDMDL
MODEL 3
REMARK VINA RESULT:    -9.092      1.406      4.331
REMARK INTER + INTRA:          -9.889
REMARK INTER:                  -9.889
REMARK INTRA:                   0.000
REMARK UNBOUND:                 0.000
REMARK  Name = ZINC000004104722
REMARK  6 active torsions:
REMARK  status: ('A' for Active; 'I' for Inactive)
REMARK    1  A    between atoms: C_1  and  C_2
REMARK    2  A    between atoms: C_2  and  C_3
REMARK    3  A    between atoms: C_6  and  C_7
REMARK    4  A    between atoms: C_6  and  O_8
REMARK    5  A    between atoms: C_11  and  C_12
REMARK    6  A    between atoms: C_13  and  O_14
REMARK                            x       y       z     vdW  Elec       q    Type
REMARK                         _______ _______ _______ _____ _____    ______ ____
ROOT
ATOM      1  C   UNL     1      -5.556   3.345 -22.141  0.00  0.00    +0.011 C 
ATOM      2  C   UNL     1      -4.290   3.059 -22.185  0.00  0.00    -0.028 C 
ATOM      3  C   UNL     1      -3.081   2.933 -22.648  0.00  0.00    +0.005 C 
ATOM      4  C   UNL     1      -1.828   2.735 -22.936  0.00  0.00    +0.033 C 
ATOM      5  C   UNL     1      -0.970   2.238 -22.095  0.00  0.00    +0.067 C 
ATOM      6  C   UNL     1       0.183   2.172 -22.692  0.00  0.00    +0.035 C 
ATOM      7  C   UNL     1       0.037   2.627 -23.900  0.00  0.00    +0.012 C 
ATOM      8  C   UNL     1      -0.325   1.734 -21.086  0.00  0.00    +0.041 C 
ATOM      9  C   UNL     1      -1.206   2.975 -24.052  0.00  0.00    -0.000 C 
ATOM     10  C   UNL     1      -1.680   3.472 -25.155  0.00  0.00    +0.121 C 
ATOM     11  C   UNL     1      -2.897   3.852 -25.415  0.00  0.00    +0.032 C 
ATOM     12  C   UNL     1      -3.937   3.828 -24.637  0.00  0.00    +0.007 C 
ATOM     13  C   UNL     1      -0.396   3.132 -25.056  0.00  0.00    +0.014 C 
ATOM     14  C   UNL     1      -4.119   2.600 -20.982  0.00  0.00    +0.011 C 
ATOM     15  C   UNL     1      -4.019   3.419 -23.405  0.00  0.00    -0.001 C 
ENDROOT
BRANCH   5  16
ATOM     16  O   UNL     1      -1.989   2.200 -21.288  0.00  0.00    -0.389 OA
ATOM     17  H   UNL     1      -1.803   1.583 -20.561  0.00  0.00    +0.210 HD
ENDBRANCH   5  16
BRANCH  10  18
ATOM     18  O   UNL     1      -0.827   3.607 -26.127  0.00  0.00    -0.391 OA
ATOM     19  H   UNL     1      -1.152   3.136 -26.910  0.00  0.00    +0.210 HD
ENDBRANCH  10  18
TORSDOF 2
ENDMDL
MODEL 4
REMARK VINA RESULT:    -8.684      0.825      3.348
REMARK INTER + INTRA:          -9.446
REMARK INTER:                  -9.446
REMARK INTRA:                   0.000
REMARK UNBOUND:                 0.000
REMARK  Name = ZINC000004104722
REMARK  6 active torsions:
REMARK  status: ('A' for Active; 'I' for Inactive)
REMARK    1  A    between atoms: C_1  and  C_2
REMARK    2  A    between atoms: C_2  and  C_3
REMARK    3  A    between atoms: C_6  and  C_7
REMARK    4  A    between atoms: C_6  and  O_8
REMARK    5  A    between atoms: C_11  and  C_12
REMARK    6  A    between atoms: C_13  and  O_14
REMARK                            x       y       z     vdW  Elec       q    Type
REMARK                         _______ _______ _______ _____ _____    ______ ____
ROOT
ATOM      1  C   UNL     1      -2.546   3.755 -26.826  0.00  0.00    +0.011 C 
ATOM      2  C   UNL     1      -2.420   3.467 -25.564  0.00  0.00    -0.028 C 
ATOM      3  C   UNL     1      -2.737   3.273 -24.318  0.00  0.00    +0.005 C 
ATOM      4  C   UNL     1      -2.865   3.035 -23.046  0.00  0.00    +0.033 C 
ATOM      5  C   UNL     1      -1.877   2.676 -22.281  0.00  0.00    +0.067 C 
ATOM      6  C   UNL     1      -2.340   2.519 -21.077  0.00  0.00    +0.035 C 
ATOM      7  C   UNL     1      -3.612   2.781 -21.097  0.00  0.00    +0.012 C 
ATOM      8  C   UNL     1      -0.744   2.335 -21.745  0.00  0.00    +0.041 C 
ATOM      9  C   UNL     1      -3.938   3.100 -22.315  0.00  0.00    -0.000 C 
ATOM     10  C   UNL     1      -5.146   3.419 -22.672  0.00  0.00    +0.121 C 
ATOM     11  C   UNL     1      -5.580   3.752 -23.852  0.00  0.00    +0.032 C 
ATOM     12  C   UNL     1      -4.914   3.848 -24.964  0.00  0.00    +0.007 C 
ATOM     13  C   UNL     1      -4.869   3.101 -21.408  0.00  0.00    +0.014 C 
ATOM     14  C   UNL     1      -1.149   3.200 -25.519  0.00  0.00    +0.011 C 
ATOM     15  C   UNL     1      -3.648   3.635 -25.171  0.00  0.00    -0.001 C 
ENDROOT
BRANCH   5  16
ATOM     16  O   UNL     1      -1.178   2.761 -23.374  0.00  0.00    -0.389 OA
ATOM     17  H   UNL     1      -1.763   2.988 -24.115  0.00  0.00    +0.210 HD
ENDBRANCH   5  16
BRANCH  10  18
ATOM     18  O   UNL     1      -6.037   3.404 -21.726  0.00  0.00    -0.391 OA
ATOM     19  H   UNL     1      -6.921   3.501 -22.113  0.00  0.00    +0.210 HD
ENDBRANCH  10  18
TORSDOF 2
ENDMDL
MODEL 5
REMARK VINA RESULT:    -8.646      1.149      3.473
REMARK INTER + INTRA:          -9.404
REMARK INTER:                  -9.404
REMARK INTRA:                   0.000
REMARK UNBOUND:                 0.000
REMARK  Name = ZINC000004104722
REMARK  6 active torsions:
REMARK  status: ('A' for Active; 'I' for Inactive)
REMARK    1  A    between atoms: C_1  and  C_2
REMARK    2  A    between atoms: C_2  and  C_3
REMARK    3  A    between atoms: C_6  and  C_7
REMARK    4  A    between atoms: C_6  and  O_8
REMARK    5  A    between atoms: C_11  and  C_12
REMARK    6  A    between atoms: C_13  and  O_14
REMARK                            x       y       z     vdW  Elec       q    Type
REMARK                         _______ _______ _______ _____ _____    ______ ____
ROOT
ATOM      1  C   UNL     1      -3.550   3.096 -20.183  0.00  0.00    +0.011 C 
ATOM      2  C   UNL     1      -3.606   3.224 -21.475  0.00  0.00    -0.028 C 
ATOM      3  C   UNL     1      -3.216   3.294 -22.714  0.00  0.00    +0.005 C 
ATOM      4  C   UNL     1      -3.015   3.390 -23.995  0.00  0.00    +0.033 C 
ATOM      5  C   UNL     1      -3.968   3.584 -24.858  0.00  0.00    +0.067 C 
ATOM      6  C   UNL     1      -3.433   3.632 -26.041  0.00  0.00    +0.035 C 
ATOM      7  C   UNL     1      -2.151   3.468 -25.911  0.00  0.00    +0.012 C 
ATOM      8  C   UNL     1      -5.081   3.777 -25.501  0.00  0.00    +0.041 C 
ATOM      9  C   UNL     1      -1.892   3.318 -24.645  0.00  0.00    -0.000 C 
ATOM     10  C   UNL     1      -0.693   3.133 -24.178  0.00  0.00    +0.121 C 
ATOM     11  C   UNL     1      -0.322   2.973 -22.942  0.00  0.00    +0.032 C 
ATOM     12  C   UNL     1      -1.057   2.959 -21.870  0.00  0.00    +0.007 C 
ATOM     13  C   UNL     1      -0.901   3.280 -25.486  0.00  0.00    +0.014 C 
ATOM     14  C   UNL     1      -4.885   3.390 -21.632  0.00  0.00    +0.011 C 
ATOM     15  C   UNL     1      -2.345   3.102 -21.769  0.00  0.00    -0.001 C 
ENDROOT
BRANCH   5  16
ATOM     16  O   UNL     1      -4.735   3.577 -23.807  0.00  0.00    -0.389 OA
ATOM     17  H   UNL     1      -4.187   3.611 -23.007  0.00  0.00    +0.210 HD
ENDBRANCH   5  16
BRANCH  10  18
ATOM     18  O   UNL     1       0.260   3.103 -25.062  0.00  0.00    -0.391 OA
ATOM     19  H   UNL     1       0.937   2.466 -24.786  0.00  0.00    +0.210 HD
ENDBRANCH  10  18
TORSDOF 2
ENDMDL
MODEL 6
REMARK VINA RESULT:    -8.191      1.742      4.158
REMARK INTER + INTRA:          -8.910
REMARK INTER:                  -8.910
REMARK INTRA:                   0.000
REMARK UNBOUND:                 0.000
REMARK  Name = ZINC000004104722
REMARK  6 active torsions:
REMARK  status: ('A' for Active; 'I' for Inactive)
REMARK    1  A    between atoms: C_1  and  C_2
REMARK    2  A    between atoms: C_2  and  C_3
REMARK    3  A    between atoms: C_6  and  C_7
REMARK    4  A    between atoms: C_6  and  O_8
REMARK    5  A    between atoms: C_11  and  C_12
REMARK    6  A    between atoms: C_13  and  O_14
REMARK                            x       y       z     vdW  Elec       q    Type
REMARK                         _______ _______ _______ _____ _____    ______ ____
ROOT
ATOM      1  C   UNL     1      -4.483   3.780 -23.849  0.00  0.00    +0.011 C 
ATOM      2  C   UNL     1      -3.199   3.630 -23.977  0.00  0.00    -0.028 C 
ATOM      3  C   UNL     1      -1.978   3.272 -23.708  0.00  0.00    +0.005 C 
ATOM      4  C   UNL     1      -0.710   3.000 -23.609  0.00  0.00    +0.033 C 
ATOM      5  C   UNL     1       0.168   3.341 -24.504  0.00  0.00    +0.067 C 
ATOM      6  C   UNL     1       1.332   2.921 -24.104  0.00  0.00    +0.035 C 
ATOM      7  C   UNL     1       1.172   2.321 -22.963  0.00  0.00    +0.012 C 
ATOM      8  C   UNL     1       0.833   3.790 -25.527  0.00  0.00    +0.041 C 
ATOM      9  C   UNL     1      -0.090   2.369 -22.656  0.00  0.00    -0.000 C 
ATOM     10  C   UNL     1      -0.582   1.856 -21.568  0.00  0.00    +0.121 C 
ATOM     11  C   UNL     1      -1.818   1.846 -21.164  0.00  0.00    +0.032 C 
ATOM     12  C   UNL     1      -2.866   2.347 -21.748  0.00  0.00    +0.007 C 
ATOM     13  C   UNL     1       0.722   1.777 -21.832  0.00  0.00    +0.014 C 
ATOM     14  C   UNL     1      -3.014   4.225 -25.117  0.00  0.00    +0.011 C 
ATOM     15  C   UNL     1      -2.937   2.982 -22.881  0.00  0.00    -0.001 C 
ENDROOT
BRANCH   5  16
ATOM     16  O   UNL     1      -0.857   3.855 -25.117  0.00  0.00    -0.389 OA
ATOM     17  H   UNL     1      -1.613   3.891 -24.509  0.00  0.00    +0.210 HD
ENDBRANCH   5  16
BRANCH  10  18
ATOM     18  O   UNL     1       0.274   1.275 -20.780  0.00  0.00    -0.391 OA
ATOM     19  H   UNL     1      -0.170   0.569 -20.285  0.00  0.00    +0.210 HD
ENDBRANCH  10  18
TORSDOF 2
ENDMDL
MODEL 7
REMARK VINA RESULT:    -8.038      1.537      2.678
REMARK INTER + INTRA:          -8.743
REMARK INTER:                  -8.743
REMARK INTRA:                   0.000
REMARK UNBOUND:                 0.000
REMARK  Name = ZINC000004104722
REMARK  6 active torsions:
REMARK  status: ('A' for Active; 'I' for Inactive)
REMARK    1  A    between atoms: C_1  and  C_2
REMARK    2  A    between atoms: C_2  and  C_3
REMARK    3  A    between atoms: C_6  and  C_7
REMARK    4  A    between atoms: C_6  and  O_8
REMARK    5  A    between atoms: C_11  and  C_12
REMARK    6  A    between atoms: C_13  and  O_14
REMARK                            x       y       z     vdW  Elec       q    Type
REMARK                         _______ _______ _______ _____ _____    ______ ____
ROOT
ATOM      1  C   UNL     1       2.559   2.237 -23.888  0.00  0.00    +0.011 C 
ATOM      2  C   UNL     1       1.317   2.496 -24.165  0.00  0.00    -0.028 C 
ATOM      3  C   UNL     1       0.033   2.635 -24.009  0.00  0.00    +0.005 C 
ATOM      4  C   UNL     1      -1.253   2.828 -24.039  0.00  0.00    +0.033 C 
ATOM      5  C   UNL     1      -1.892   3.229 -25.098  0.00  0.00    +0.067 C 
ATOM      6  C   UNL     1      -3.152   3.321 -24.794  0.00  0.00    +0.035 C 
ATOM      7  C   UNL     1      -3.292   2.977 -23.549  0.00  0.00    +0.012 C 
ATOM      8  C   UNL     1      -2.285   3.629 -26.271  0.00  0.00    +0.041 C 
ATOM      9  C   UNL     1      -2.117   2.672 -23.082  0.00  0.00    -0.000 C 
ATOM     10  C   UNL     1      -1.913   2.285 -21.858  0.00  0.00    +0.121 C 
ATOM     11  C   UNL     1      -0.790   1.958 -21.289  0.00  0.00    +0.032 C 
ATOM     12  C   UNL     1       0.403   1.937 -21.804  0.00  0.00    +0.007 C 
ATOM     13  C   UNL     1      -3.140   2.585 -22.283  0.00  0.00    +0.014 C 
ATOM     14  C   UNL     1       1.431   2.844 -25.412  0.00  0.00    +0.011 C 
ATOM     15  C   UNL     1       0.769   2.238 -23.014  0.00  0.00    -0.001 C 
ENDROOT
BRANCH   5  16
ATOM     16  O   UNL     1      -0.713   3.221 -25.647  0.00  0.00    -0.389 OA
ATOM     17  H   UNL     1      -0.088   2.761 -25.063  0.00  0.00    +0.210 HD
ENDBRANCH   5  16
BRANCH  10  18
ATOM     18  O   UNL     1      -2.969   2.216 -21.103  0.00  0.00    -0.391 OA
ATOM     19  H   UNL     1      -2.738   2.477 -20.199  0.00  0.00    +0.210 HD
ENDBRANCH  10  18
TORSDOF 2
ENDMDL
MODEL 8
REMARK VINA RESULT:    -7.826      1.823      3.984
REMARK INTER + INTRA:          -8.513
REMARK INTER:                  -8.513
REMARK INTRA:                   0.000
REMARK UNBOUND:                 0.000
REMARK  Name = ZINC000004104722
REMARK  6 active torsions:
REMARK  status: ('A' for Active; 'I' for Inactive)
REMARK    1  A    between atoms: C_1  and  C_2
REMARK    2  A    between atoms: C_2  and  C_3
REMARK    3  A    between atoms: C_6  and  C_7
REMARK    4  A    between atoms: C_6  and  O_8
REMARK    5  A    between atoms: C_11  and  C_12
REMARK    6  A    between atoms: C_13  and  O_14
REMARK                            x       y       z     vdW  Elec       q    Type
REMARK                         _______ _______ _______ _____ _____    ______ ____
ROOT
ATOM      1  C   UNL     1       2.361   1.488 -21.554  0.00  0.00    +0.011 C 
ATOM      2  C   UNL     1       1.129   1.798 -21.824  0.00  0.00    -0.028 C 
ATOM      3  C   UNL     1       0.090   2.209 -22.490  0.00  0.00    +0.005 C 
ATOM      4  C   UNL     1      -1.049   2.583 -22.993  0.00  0.00    +0.033 C 
ATOM      5  C   UNL     1      -2.169   2.552 -22.332  0.00  0.00    +0.067 C 
ATOM      6  C   UNL     1      -3.109   2.988 -23.117  0.00  0.00    +0.035 C 
ATOM      7  C   UNL     1      -2.571   3.286 -24.262  0.00  0.00    +0.012 C 
ATOM      8  C   UNL     1      -3.133   2.426 -21.471  0.00  0.00    +0.041 C 
ATOM      9  C   UNL     1      -1.298   3.036 -24.185  0.00  0.00    -0.000 C 
ATOM     10  C   UNL     1      -0.471   3.229 -25.169  0.00  0.00    +0.121 C 
ATOM     11  C   UNL     1       0.812   3.015 -25.203  0.00  0.00    +0.032 C 
ATOM     12  C   UNL     1       1.582   2.556 -24.262  0.00  0.00    +0.007 C 
ATOM     13  C   UNL     1      -1.768   3.503 -25.304  0.00  0.00    +0.014 C 
ATOM     14  C   UNL     1       0.568   1.506 -20.688  0.00  0.00    +0.011 C 
ATOM     15  C   UNL     1       1.260   2.197 -23.054  0.00  0.00    -0.001 C 
ENDROOT
BRANCH   5  16
ATOM     16  O   UNL     1      -1.429   2.091 -21.368  0.00  0.00    -0.389 OA
ATOM     17  H   UNL     1      -0.886   1.358 -21.699  0.00  0.00    +0.210 HD
ENDBRANCH   5  16
BRANCH  10  18
ATOM     18  O   UNL     1      -0.994   3.697 -26.264  0.00  0.00    -0.391 OA
ATOM     19  H   UNL     1      -1.324   2.962 -26.804  0.00  0.00    +0.210 HD
ENDBRANCH  10  18
TORSDOF 2
ENDMDL
MODEL 9
REMARK VINA RESULT:    -7.669      2.182      3.367
REMARK INTER + INTRA:          -8.342
REMARK INTER:                  -8.342
REMARK INTRA:                   0.000
REMARK UNBOUND:                 0.000
REMARK  Name = ZINC000004104722
REMARK  6 active torsions:
REMARK  status: ('A' for Active; 'I' for Inactive)
REMARK    1  A    between atoms: C_1  and  C_2
REMARK    2  A    between atoms: C_2  and  C_3
REMARK    3  A    between atoms: C_6  and  C_7
REMARK    4  A    between atoms: C_6  and  O_8
REMARK    5  A    between atoms: C_11  and  C_12
REMARK    6  A    between atoms: C_13  and  O_14
REMARK                            x       y       z     vdW  Elec       q    Type
REMARK                         _______ _______ _______ _____ _____    ______ ____
ROOT
ATOM      1  C   UNL     1       3.006   1.411 -21.192  0.00  0.00    +0.011 C 
ATOM      2  C   UNL     1       2.300   1.972 -22.127  0.00  0.00    -0.028 C 
ATOM      3  C   UNL     1       1.262   2.390 -22.791  0.00  0.00    +0.005 C 
ATOM      4  C   UNL     1       0.353   2.876 -23.583  0.00  0.00    +0.033 C 
ATOM      5  C   UNL     1       0.628   3.503 -24.689  0.00  0.00    +0.067 C 
ATOM      6  C   UNL     1      -0.496   3.857 -25.238  0.00  0.00    +0.035 C 
ATOM      7  C   UNL     1      -1.464   3.450 -24.472  0.00  0.00    +0.012 C 
ATOM      8  C   UNL     1       1.160   4.080 -25.725  0.00  0.00    +0.041 C 
ATOM      9  C   UNL     1      -0.939   2.844 -23.449  0.00  0.00    -0.000 C 
ATOM     10  C   UNL     1      -1.643   2.318 -22.491  0.00  0.00    +0.121 C 
ATOM     11  C   UNL     1      -1.226   1.693 -21.429  0.00  0.00    +0.032 C 
ATOM     12  C   UNL     1      -0.005   1.441 -21.064  0.00  0.00    +0.007 C 
ATOM     13  C   UNL     1      -2.235   2.928 -23.517  0.00  0.00    +0.014 C 
ATOM     14  C   UNL     1       3.250   2.389 -22.909  0.00  0.00    +0.011 C 
ATOM     15  C   UNL     1       1.103   1.751 -21.670  0.00  0.00    -0.001 C 
ENDROOT
BRANCH   5  16
ATOM     16  O   UNL     1       1.862   3.268 -24.356  0.00  0.00    -0.389 OA
ATOM     17  H   UNL     1       1.945   3.283 -23.389  0.00  0.00    +0.210 HD
ENDBRANCH   5  16
BRANCH  10  18
ATOM     18  O   UNL     1      -2.933   2.431 -22.610  0.00  0.00    -0.391 OA
ATOM     19  H   UNL     1      -3.139   3.173 -23.199  0.00  0.00    +0.210 HD
ENDBRANCH  10  18
TORSDOF 2
ENDMDL
