MODEL 1
REMARK VINA RESULT:    -9.603      0.000      0.000
REMARK INTER + INTRA:         -13.079
REMARK INTER:                 -12.472
REMARK INTRA:                  -0.607
REMARK UNBOUND:                -0.670
REMARK  Name = ZINC000000268191
REMARK  6 active torsions:
REMARK  status: ('A' for Active; 'I' for Inactive)
REMARK    1  A    between atoms: C_1  and  O_2
REMARK    2  A    between atoms: O_2  and  C_3
REMARK    3  A    between atoms: C_6  and  C_7
REMARK    4  A    between atoms: C_7  and  O_9
REMARK    5  A    between atoms: O_9  and  C_10
REMARK    6  A    between atoms: C_10  and  C_11
REMARK                            x       y       z     vdW  Elec       q    Type
REMARK                         _______ _______ _______ _____ _____    ______ ____
ROOT
ATOM      1  C   UNL     1      -1.361   4.192 -24.373  0.00  0.00    +0.241 C 
ENDROOT
BRANCH   1   2
ATOM      2  C   UNL     1      -2.644   4.053 -24.211  0.00  0.00    +0.075 C 
ATOM      3  C   UNL     1      -3.454   4.308 -25.196  0.00  0.00    +0.017 C 
ATOM      4  C   UNL     1      -4.736   4.169 -25.034  0.00  0.00    +0.051 C 
ATOM      5  C   UNL     1      -5.209   3.777 -23.889  0.00  0.00    +0.131 C 
ATOM      6  N   UNL     1      -4.399   3.522 -22.904  0.00  0.00    +0.238 N 
ATOM      7  H   UNL     1      -5.402   3.409 -22.762  0.00  0.00    +0.204 HD
ATOM      8  C   UNL     1      -4.872   3.130 -21.758  0.00  0.00    +0.131 C 
ATOM      9  C   UNL     1      -4.061   2.876 -20.774  0.00  0.00    +0.051 C 
ATOM     10  C   UNL     1      -2.779   3.014 -20.935  0.00  0.00    +0.011 C 
ATOM     11  C   UNL     1      -2.306   3.407 -22.081  0.00  0.00    +0.055 C 
ATOM     12  C   UNL     1      -3.116   3.661 -23.066  0.00  0.00    +0.071 C 
ENDBRANCH   1   2
BRANCH   1  13
ATOM     13  O   UNL     1      -0.682   3.277 -24.999  0.00  0.00    -0.461 OA
BRANCH  13  14
ATOM     14  C   UNL     1       0.616   3.331 -25.019  0.00  0.00    +0.339 C 
ATOM     15  O   UNL     1       1.219   4.199 -25.775  0.00  0.00    -0.245 OA
BRANCH  14  19
ATOM     16  C   UNL     1       2.705   0.886 -22.811  0.00  0.00    +0.120 A 
ATOM     17  C   UNL     1       1.676   1.499 -22.306  0.00  0.00    +0.046 A 
ATOM     18  C   UNL     1       0.979   2.315 -23.043  0.00  0.00    +0.018 A 
ATOM     19  C   UNL     1       1.313   2.516 -24.283  0.00  0.00    +0.059 A 
ATOM     20  C   UNL     1       2.342   1.902 -24.788  0.00  0.00    +0.018 A 
ATOM     21  C   UNL     1       3.037   1.088 -24.052  0.00  0.00    +0.046 A 
BRANCH  16  23
ATOM     22  C   UNL     1       3.860   0.465 -20.926  0.00  0.00    +0.277 C 
ATOM     23  O   UNL     1       3.401   0.071 -22.076  0.00  0.00    -0.495 OA
ENDBRANCH  16  23
ENDBRANCH  14  19
ENDBRANCH  13  14
ENDBRANCH   1  13
TORSDOF 5
ENDMDL
MODEL 2
REMARK VINA RESULT:    -9.316      1.041      2.386
REMARK INTER + INTRA:         -12.709
REMARK INTER:                 -11.749
REMARK INTRA:                  -0.959
REMARK UNBOUND:                -0.670
REMARK  Name = ZINC000000268191
REMARK  6 active torsions:
REMARK  status: ('A' for Active; 'I' for Inactive)
REMARK    1  A    between atoms: C_1  and  O_2
REMARK    2  A    between atoms: O_2  and  C_3
REMARK    3  A    between atoms: C_6  and  C_7
REMARK    4  A    between atoms: C_7  and  O_9
REMARK    5  A    between atoms: O_9  and  C_10
REMARK    6  A    between atoms: C_10  and  C_11
REMARK                            x       y       z     vdW  Elec       q    Type
REMARK                         _______ _______ _______ _____ _____    ______ ____
ROOT
ATOM      1  C   UNL     1      -0.953   3.372 -24.315  0.00  0.00    +0.241 C 
ENDROOT
BRANCH   1   2
ATOM      2  C   UNL     1      -1.700   3.191 -23.266  0.00  0.00    +0.075 C 
ATOM      3  C   UNL     1      -1.164   2.814 -22.144  0.00  0.00    +0.017 C 
ATOM      4  C   UNL     1      -1.911   2.634 -21.095  0.00  0.00    +0.051 C 
ATOM      5  C   UNL     1      -3.194   2.830 -21.169  0.00  0.00    +0.131 C 
ATOM      6  N   UNL     1      -3.731   3.207 -22.291  0.00  0.00    +0.238 N 
ATOM      7  H   UNL     1      -4.329   3.069 -21.478  0.00  0.00    +0.204 HD
ATOM      8  C   UNL     1      -5.014   3.403 -22.365  0.00  0.00    +0.131 C 
ATOM      9  C   UNL     1      -5.549   3.780 -23.488  0.00  0.00    +0.051 C 
ATOM     10  C   UNL     1      -4.803   3.960 -24.537  0.00  0.00    +0.011 C 
ATOM     11  C   UNL     1      -3.519   3.764 -24.463  0.00  0.00    +0.055 C 
ATOM     12  C   UNL     1      -2.983   3.387 -23.340  0.00  0.00    +0.071 C 
ENDBRANCH   1   2
BRANCH   1  13
ATOM     13  O   UNL     1       0.116   4.106 -24.233  0.00  0.00    -0.461 OA
BRANCH  13  14
ATOM     14  C   UNL     1       1.204   3.741 -24.844  0.00  0.00    +0.339 C 
ATOM     15  O   UNL     1       1.418   4.118 -26.069  0.00  0.00    -0.245 OA
BRANCH  14  19
ATOM     16  C   UNL     1       3.823   1.515 -23.001  0.00  0.00    +0.120 A 
ATOM     17  C   UNL     1       3.336   1.133 -24.144  0.00  0.00    +0.046 A 
ATOM     18  C   UNL     1       2.462   1.875 -24.759  0.00  0.00    +0.018 A 
ATOM     19  C   UNL     1       2.077   2.999 -24.230  0.00  0.00    +0.059 A 
ATOM     20  C   UNL     1       2.565   3.381 -23.086  0.00  0.00    +0.018 A 
ATOM     21  C   UNL     1       3.437   2.639 -22.473  0.00  0.00    +0.046 A 
BRANCH  16  23
ATOM     22  C   UNL     1       4.550   0.512 -21.122  0.00  0.00    +0.277 C 
ATOM     23  O   UNL     1       4.696   0.774 -22.386  0.00  0.00    -0.495 OA
ENDBRANCH  16  23
ENDBRANCH  14  19
ENDBRANCH  13  14
ENDBRANCH   1  13
TORSDOF 5
ENDMDL
MODEL 3
REMARK VINA RESULT:    -9.275      2.186      2.709
REMARK INTER + INTRA:         -12.656
REMARK INTER:                 -11.995
REMARK INTRA:                  -0.661
REMARK UNBOUND:                -0.670
REMARK  Name = ZINC000000268191
REMARK  6 active torsions:
REMARK  status: ('A' for Active; 'I' for Inactive)
REMARK    1  A    between atoms: C_1  and  O_2
REMARK    2  A    between atoms: O_2  and  C_3
REMARK    3  A    between atoms: C_6  and  C_7
REMARK    4  A    between atoms: C_7  and  O_9
REMARK    5  A    between atoms: O_9  and  C_10
REMARK    6  A    between atoms: C_10  and  C_11
REMARK                            x       y       z     vdW  Elec       q    Type
REMARK                         _______ _______ _______ _____ _____    ______ ____
ROOT
ATOM      1  C   UNL     1      -1.130   2.375 -23.261  0.00  0.00    +0.241 C 
ENDROOT
BRANCH   1   2
ATOM      2  C   UNL     1      -2.130   2.898 -23.906  0.00  0.00    +0.075 C 
ATOM      3  C   UNL     1      -1.983   3.271 -25.143  0.00  0.00    +0.017 C 
ATOM      4  C   UNL     1      -2.983   3.793 -25.788  0.00  0.00    +0.051 C 
ATOM      5  C   UNL     1      -4.131   3.943 -25.197  0.00  0.00    +0.131 C 
ATOM      6  N   UNL     1      -4.280   3.571 -23.960  0.00  0.00    +0.238 N 
ATOM      7  H   UNL     1      -5.073   3.979 -24.452  0.00  0.00    +0.204 HD
ATOM      8  C   UNL     1      -5.427   3.720 -23.369  0.00  0.00    +0.131 C 
ATOM      9  C   UNL     1      -5.575   3.348 -22.132  0.00  0.00    +0.051 C 
ATOM     10  C   UNL     1      -4.574   2.825 -21.487  0.00  0.00    +0.011 C 
ATOM     11  C   UNL     1      -3.426   2.675 -22.078  0.00  0.00    +0.055 C 
ATOM     12  C   UNL     1      -3.278   3.048 -23.315  0.00  0.00    +0.071 C 
ENDBRANCH   1   2
BRANCH   1  13
ATOM     13  O   UNL     1       0.045   2.322 -23.815  0.00  0.00    -0.461 OA
BRANCH  13  14
ATOM     14  C   UNL     1       1.080   1.972 -23.111  0.00  0.00    +0.339 C 
ATOM     15  O   UNL     1       1.043   0.887 -22.396  0.00  0.00    -0.245 OA
BRANCH  14  19
ATOM     16  C   UNL     1       4.298   4.176 -23.147  0.00  0.00    +0.120 A 
ATOM     17  C   UNL     1       3.129   4.731 -23.269  0.00  0.00    +0.046 A 
ATOM     18  C   UNL     1       2.056   3.996 -23.257  0.00  0.00    +0.018 A 
ATOM     19  C   UNL     1       2.153   2.707 -23.123  0.00  0.00    +0.059 A 
ATOM     20  C   UNL     1       3.322   2.152 -23.002  0.00  0.00    +0.018 A 
ATOM     21  C   UNL     1       4.394   2.886 -23.014  0.00  0.00    +0.046 A 
BRANCH  16  23
ATOM     22  C   UNL     1       6.539   4.351 -23.268  0.00  0.00    +0.277 C 
ATOM     23  O   UNL     1       5.370   4.910 -23.159  0.00  0.00    -0.495 OA
ENDBRANCH  16  23
ENDBRANCH  14  19
ENDBRANCH  13  14
ENDBRANCH   1  13
TORSDOF 5
ENDMDL
MODEL 4
REMARK VINA RESULT:    -9.020      2.312      3.446
REMARK INTER + INTRA:         -12.326
REMARK INTER:                 -11.672
REMARK INTRA:                  -0.654
REMARK UNBOUND:                -0.670
REMARK  Name = ZINC000000268191
REMARK  6 active torsions:
REMARK  status: ('A' for Active; 'I' for Inactive)
REMARK    1  A    between atoms: C_1  and  O_2
REMARK    2  A    between atoms: O_2  and  C_3
REMARK    3  A    between atoms: C_6  and  C_7
REMARK    4  A    between atoms: C_7  and  O_9
REMARK    5  A    between atoms: O_9  and  C_10
REMARK    6  A    between atoms: C_10  and  C_11
REMARK                            x       y       z     vdW  Elec       q    Type
REMARK                         _______ _______ _______ _____ _____    ______ ____
ROOT
ATOM      1  C   UNL     1      -0.915   2.256 -23.068  0.00  0.00    +0.241 C 
ENDROOT
BRANCH   1   2
ATOM      2  C   UNL     1      -2.073   2.641 -22.618  0.00  0.00    +0.075 C 
ATOM      3  C   UNL     1      -2.310   2.630 -21.340  0.00  0.00    +0.017 C 
ATOM      4  C   UNL     1      -3.467   3.015 -20.891  0.00  0.00    +0.051 C 
ATOM      5  C   UNL     1      -4.387   3.411 -21.719  0.00  0.00    +0.131 C 
ATOM      6  N   UNL     1      -4.151   3.422 -22.997  0.00  0.00    +0.238 N 
ATOM      7  H   UNL     1      -5.063   3.727 -22.660  0.00  0.00    +0.204 HD
ATOM      8  C   UNL     1      -5.071   3.818 -23.825  0.00  0.00    +0.131 C 
ATOM      9  C   UNL     1      -4.834   3.829 -25.103  0.00  0.00    +0.051 C 
ATOM     10  C   UNL     1      -3.676   3.444 -25.553  0.00  0.00    +0.011 C 
ATOM     11  C   UNL     1      -2.755   3.048 -24.725  0.00  0.00    +0.055 C 
ATOM     12  C   UNL     1      -2.993   3.037 -23.446  0.00  0.00    +0.071 C 
ENDBRANCH   1   2
BRANCH   1  13
ATOM     13  O   UNL     1       0.176   2.747 -22.559  0.00  0.00    -0.461 OA
BRANCH  13  14
ATOM     14  C   UNL     1       1.279   2.060 -22.601  0.00  0.00    +0.339 C 
ATOM     15  O   UNL     1       1.243   0.765 -22.498  0.00  0.00    -0.245 OA
BRANCH  14  19
ATOM     16  C   UNL     1       4.697   3.888 -23.039  0.00  0.00    +0.120 A 
ATOM     17  C   UNL     1       4.669   2.642 -22.667  0.00  0.00    +0.046 A 
ATOM     18  C   UNL     1       3.529   2.033 -22.521  0.00  0.00    +0.018 A 
ATOM     19  C   UNL     1       2.419   2.670 -22.747  0.00  0.00    +0.059 A 
ATOM     20  C   UNL     1       2.447   3.915 -23.119  0.00  0.00    +0.018 A 
ATOM     21  C   UNL     1       3.586   4.524 -23.265  0.00  0.00    +0.046 A 
BRANCH  16  23
ATOM     22  C   UNL     1       6.113   5.538 -22.458  0.00  0.00    +0.277 C 
ATOM     23  O   UNL     1       5.836   4.497 -23.185  0.00  0.00    -0.495 OA
ENDBRANCH  16  23
ENDBRANCH  14  19
ENDBRANCH  13  14
ENDBRANCH   1  13
TORSDOF 5
ENDMDL
MODEL 5
REMARK VINA RESULT:    -8.548      3.126      7.025
REMARK INTER + INTRA:         -11.716
REMARK INTER:                 -11.042
REMARK INTRA:                  -0.674
REMARK UNBOUND:                -0.670
REMARK  Name = ZINC000000268191
REMARK  6 active torsions:
REMARK  status: ('A' for Active; 'I' for Inactive)
REMARK    1  A    between atoms: C_1  and  O_2
REMARK    2  A    between atoms: O_2  and  C_3
REMARK    3  A    between atoms: C_6  and  C_7
REMARK    4  A    between atoms: C_7  and  O_9
REMARK    5  A    between atoms: O_9  and  C_10
REMARK    6  A    between atoms: C_10  and  C_11
REMARK                            x       y       z     vdW  Elec       q    Type
REMARK                         _______ _______ _______ _____ _____    ______ ____
ROOT
ATOM      1  C   UNL     1       1.841   1.815 -22.786  0.00  0.00    +0.241 C 
ENDROOT
BRANCH   1   2
ATOM      2  C   UNL     1       2.356   3.002 -22.913  0.00  0.00    +0.075 C 
ATOM      3  C   UNL     1       1.597   4.010 -23.223  0.00  0.00    +0.017 C 
ATOM      4  C   UNL     1       2.112   5.197 -23.350  0.00  0.00    +0.051 C 
ATOM      5  C   UNL     1       3.386   5.376 -23.168  0.00  0.00    +0.131 C 
ATOM      6  N   UNL     1       4.147   4.368 -22.858  0.00  0.00    +0.238 N 
ATOM      7  H   UNL     1       4.565   5.292 -22.954  0.00  0.00    +0.204 HD
ATOM      8  C   UNL     1       5.421   4.546 -22.675  0.00  0.00    +0.131 C 
ATOM      9  C   UNL     1       6.180   3.538 -22.365  0.00  0.00    +0.051 C 
ATOM     10  C   UNL     1       5.666   2.351 -22.238  0.00  0.00    +0.011 C 
ATOM     11  C   UNL     1       4.391   2.172 -22.420  0.00  0.00    +0.055 C 
ATOM     12  C   UNL     1       3.631   3.180 -22.730  0.00  0.00    +0.071 C 
ENDBRANCH   1   2
BRANCH   1  13
ATOM     13  O   UNL     1       0.587   1.617 -23.064  0.00  0.00    -0.461 OA
BRANCH  13  14
ATOM     14  C   UNL     1      -0.301   1.638 -22.115  0.00  0.00    +0.339 C 
ATOM     15  O   UNL     1      -0.016   1.144 -20.947  0.00  0.00    -0.245 OA
BRANCH  14  19
ATOM     16  C   UNL     1      -3.821   3.185 -22.773  0.00  0.00    +0.120 A 
ATOM     17  C   UNL     1      -2.978   3.047 -23.753  0.00  0.00    +0.046 A 
ATOM     18  C   UNL     1      -1.805   2.531 -23.534  0.00  0.00    +0.018 A 
ATOM     19  C   UNL     1      -1.475   2.154 -22.334  0.00  0.00    +0.059 A 
ATOM     20  C   UNL     1      -2.317   2.292 -21.354  0.00  0.00    +0.018 A 
ATOM     21  C   UNL     1      -3.489   2.808 -21.573  0.00  0.00    +0.046 A 
BRANCH  16  23
ATOM     22  C   UNL     1      -5.335   4.051 -24.195  0.00  0.00    +0.277 C 
ATOM     23  O   UNL     1      -4.994   3.700 -22.991  0.00  0.00    -0.495 OA
ENDBRANCH  16  23
ENDBRANCH  14  19
ENDBRANCH  13  14
ENDBRANCH   1  13
TORSDOF 5
ENDMDL
MODEL 6
REMARK VINA RESULT:    -8.222      2.951      6.931
REMARK INTER + INTRA:         -11.295
REMARK INTER:                 -10.197
REMARK INTRA:                  -1.098
REMARK UNBOUND:                -0.670
REMARK  Name = ZINC000000268191
REMARK  6 active torsions:
REMARK  status: ('A' for Active; 'I' for Inactive)
REMARK    1  A    between atoms: C_1  and  O_2
REMARK    2  A    between atoms: O_2  and  C_3
REMARK    3  A    between atoms: C_6  and  C_7
REMARK    4  A    between atoms: C_7  and  O_9
REMARK    5  A    between atoms: O_9  and  C_10
REMARK    6  A    between atoms: C_10  and  C_11
REMARK                            x       y       z     vdW  Elec       q    Type
REMARK                         _______ _______ _______ _____ _____    ______ ____
ROOT
ATOM      1  C   UNL     1       3.026   1.883 -24.512  0.00  0.00    +0.241 C 
ENDROOT
BRANCH   1   2
ATOM      2  C   UNL     1       3.495   1.652 -23.322  0.00  0.00    +0.075 C 
ATOM      3  C   UNL     1       2.995   0.692 -22.602  0.00  0.00    +0.017 C 
ATOM      4  C   UNL     1       3.464   0.460 -21.412  0.00  0.00    +0.051 C 
ATOM      5  C   UNL     1       4.433   1.189 -20.942  0.00  0.00    +0.131 C 
ATOM      6  N   UNL     1       4.933   2.149 -21.661  0.00  0.00    +0.238 N 
ATOM      7  H   UNL     1       5.311   1.980 -20.730  0.00  0.00    +0.204 HD
ATOM      8  C   UNL     1       5.901   2.878 -21.191  0.00  0.00    +0.131 C 
ATOM      9  C   UNL     1       6.400   3.838 -21.911  0.00  0.00    +0.051 C 
ATOM     10  C   UNL     1       5.931   4.069 -23.102  0.00  0.00    +0.011 C 
ATOM     11  C   UNL     1       4.963   3.341 -23.573  0.00  0.00    +0.055 C 
ATOM     12  C   UNL     1       4.463   2.380 -22.852  0.00  0.00    +0.071 C 
ENDBRANCH   1   2
BRANCH   1  13
ATOM     13  O   UNL     1       1.743   1.872 -24.719  0.00  0.00    -0.461 OA
BRANCH  13  14
ATOM     14  C   UNL     1       1.091   2.992 -24.825  0.00  0.00    +0.339 C 
ATOM     15  O   UNL     1       1.351   3.804 -25.806  0.00  0.00    -0.245 OA
BRANCH  14  19
ATOM     16  C   UNL     1      -1.643   3.914 -22.201  0.00  0.00    +0.120 A 
ATOM     17  C   UNL     1      -0.957   4.853 -22.782  0.00  0.00    +0.046 A 
ATOM     18  C   UNL     1      -0.045   4.546 -23.657  0.00  0.00    +0.018 A 
ATOM     19  C   UNL     1       0.180   3.299 -23.950  0.00  0.00    +0.059 A 
ATOM     20  C   UNL     1      -0.506   2.360 -23.369  0.00  0.00    +0.018 A 
ATOM     21  C   UNL     1      -1.417   2.668 -22.495  0.00  0.00    +0.046 A 
BRANCH  16  23
ATOM     22  C   UNL     1      -3.184   3.280 -20.688  0.00  0.00    +0.277 C 
ATOM     23  O   UNL     1      -2.554   4.221 -21.326  0.00  0.00    -0.495 OA
ENDBRANCH  16  23
ENDBRANCH  14  19
ENDBRANCH  13  14
ENDBRANCH   1  13
TORSDOF 5
ENDMDL
MODEL 7
REMARK VINA RESULT:    -7.793      3.180      7.516
REMARK INTER + INTRA:         -10.740
REMARK INTER:                 -10.176
REMARK INTRA:                  -0.565
REMARK UNBOUND:                -0.670
REMARK  Name = ZINC000000268191
REMARK  6 active torsions:
REMARK  status: ('A' for Active; 'I' for Inactive)
REMARK    1  A    between atoms: C_1  and  O_2
REMARK    2  A    between atoms: O_2  and  C_3
REMARK    3  A    between atoms: C_6  and  C_7
REMARK    4  A    between atoms: C_7  and  O_9
REMARK    5  A    between atoms: O_9  and  C_10
REMARK    6  A    between atoms: C_10  and  C_11
REMARK                            x       y       z     vdW  Elec       q    Type
REMARK                         _______ _______ _______ _____ _____    ______ ____
ROOT
ATOM      1  C   UNL     1       1.768   2.556 -22.267  0.00  0.00    +0.241 C 
ENDROOT
BRANCH   1   2
ATOM      2  C   UNL     1       2.950   2.040 -22.104  0.00  0.00    +0.075 C 
ATOM      3  C   UNL     1       3.076   0.856 -21.582  0.00  0.00    +0.017 C 
ATOM      4  C   UNL     1       4.258   0.340 -21.419  0.00  0.00    +0.051 C 
ATOM      5  C   UNL     1       5.314   1.007 -21.779  0.00  0.00    +0.131 C 
ATOM      6  N   UNL     1       5.189   2.191 -22.302  0.00  0.00    +0.238 N 
ATOM      7  H   UNL     1       6.122   1.800 -22.180  0.00  0.00    +0.204 HD
ATOM      8  C   UNL     1       6.244   2.858 -22.662  0.00  0.00    +0.131 C 
ATOM      9  C   UNL     1       6.118   4.041 -23.184  0.00  0.00    +0.051 C 
ATOM     10  C   UNL     1       4.936   4.558 -23.347  0.00  0.00    +0.011 C 
ATOM     11  C   UNL     1       3.880   3.891 -22.987  0.00  0.00    +0.055 C 
ATOM     12  C   UNL     1       4.005   2.707 -22.464  0.00  0.00    +0.071 C 
ENDBRANCH   1   2
BRANCH   1  13
ATOM     13  O   UNL     1       0.797   1.825 -22.727  0.00  0.00    -0.461 OA
BRANCH  13  14
ATOM     14  C   UNL     1      -0.291   1.675 -22.031  0.00  0.00    +0.339 C 
ATOM     15  O   UNL     1      -0.265   0.995 -20.924  0.00  0.00    -0.245 OA
BRANCH  14  19
ATOM     16  C   UNL     1      -3.631   3.266 -23.265  0.00  0.00    +0.120 A 
ATOM     17  C   UNL     1      -3.436   3.068 -21.995  0.00  0.00    +0.046 A 
ATOM     18  C   UNL     1      -2.323   2.537 -21.584  0.00  0.00    +0.018 A 
ATOM     19  C   UNL     1      -1.405   2.206 -22.443  0.00  0.00    +0.059 A 
ATOM     20  C   UNL     1      -1.599   2.404 -23.713  0.00  0.00    +0.018 A 
ATOM     21  C   UNL     1      -2.712   2.934 -24.123  0.00  0.00    +0.046 A 
BRANCH  16  23
ATOM     22  C   UNL     1      -4.915   4.049 -24.940  0.00  0.00    +0.277 C 
ATOM     23  O   UNL     1      -4.744   3.797 -23.677  0.00  0.00    -0.495 OA
ENDBRANCH  16  23
ENDBRANCH  14  19
ENDBRANCH  13  14
ENDBRANCH   1  13
TORSDOF 5
ENDMDL
MODEL 8
REMARK VINA RESULT:    -7.785      2.888      7.118
REMARK INTER + INTRA:         -10.731
REMARK INTER:                 -10.048
REMARK INTRA:                  -0.682
REMARK UNBOUND:                -0.670
REMARK  Name = ZINC000000268191
REMARK  6 active torsions:
REMARK  status: ('A' for Active; 'I' for Inactive)
REMARK    1  A    between atoms: C_1  and  O_2
REMARK    2  A    between atoms: O_2  and  C_3
REMARK    3  A    between atoms: C_6  and  C_7
REMARK    4  A    between atoms: C_7  and  O_9
REMARK    5  A    between atoms: O_9  and  C_10
REMARK    6  A    between atoms: C_10  and  C_11
REMARK                            x       y       z     vdW  Elec       q    Type
REMARK                         _______ _______ _______ _____ _____    ______ ____
ROOT
ATOM      1  C   UNL     1       1.403   3.161 -22.179  0.00  0.00    +0.241 C 
ENDROOT
BRANCH   1   2
ATOM      2  C   UNL     1       2.659   3.123 -22.512  0.00  0.00    +0.075 C 
ATOM      3  C   UNL     1       3.143   4.013 -23.326  0.00  0.00    +0.017 C 
ATOM      4  C   UNL     1       4.399   3.974 -23.659  0.00  0.00    +0.051 C 
ATOM      5  C   UNL     1       5.171   3.046 -23.178  0.00  0.00    +0.131 C 
ATOM      6  N   UNL     1       4.688   2.155 -22.363  0.00  0.00    +0.238 N 
ATOM      7  H   UNL     1       5.674   2.112 -22.615  0.00  0.00    +0.204 HD
ATOM      8  C   UNL     1       5.459   1.226 -21.882  0.00  0.00    +0.131 C 
ATOM      9  C   UNL     1       4.975   0.336 -21.068  0.00  0.00    +0.051 C 
ATOM     10  C   UNL     1       3.719   0.375 -20.735  0.00  0.00    +0.011 C 
ATOM     11  C   UNL     1       2.946   1.303 -21.216  0.00  0.00    +0.055 C 
ATOM     12  C   UNL     1       3.430   2.194 -22.031  0.00  0.00    +0.071 C 
ENDBRANCH   1   2
BRANCH   1  13
ATOM     13  O   UNL     1       0.490   2.848 -23.049  0.00  0.00    -0.461 OA
BRANCH  13  14
ATOM     14  C   UNL     1      -0.455   2.014 -22.729  0.00  0.00    +0.339 C 
ATOM     15  O   UNL     1      -0.164   0.776 -22.457  0.00  0.00    -0.245 OA
BRANCH  14  19
ATOM     16  C   UNL     1      -4.160   3.224 -22.585  0.00  0.00    +0.120 A 
ATOM     17  C   UNL     1      -3.592   2.740 -21.520  0.00  0.00    +0.046 A 
ATOM     18  C   UNL     1      -2.357   2.336 -21.568  0.00  0.00    +0.018 A 
ATOM     19  C   UNL     1      -1.690   2.417 -22.681  0.00  0.00    +0.059 A 
ATOM     20  C   UNL     1      -2.257   2.902 -23.746  0.00  0.00    +0.018 A 
ATOM     21  C   UNL     1      -3.491   3.305 -23.697  0.00  0.00    +0.046 A 
BRANCH  16  23
ATOM     22  C   UNL     1      -6.285   2.921 -21.909  0.00  0.00    +0.277 C 
ATOM     23  O   UNL     1      -5.394   3.628 -22.537  0.00  0.00    -0.495 OA
ENDBRANCH  16  23
ENDBRANCH  14  19
ENDBRANCH  13  14
ENDBRANCH   1  13
TORSDOF 5
ENDMDL
MODEL 9
REMARK VINA RESULT:    -7.561      3.310      4.269
REMARK INTER + INTRA:         -10.441
REMARK INTER:                  -9.772
REMARK INTRA:                  -0.670
REMARK UNBOUND:                -0.670
REMARK  Name = ZINC000000268191
REMARK  6 active torsions:
REMARK  status: ('A' for Active; 'I' for Inactive)
REMARK    1  A    between atoms: C_1  and  O_2
REMARK    2  A    between atoms: O_2  and  C_3
REMARK    3  A    between atoms: C_6  and  C_7
REMARK    4  A    between atoms: C_7  and  O_9
REMARK    5  A    between atoms: O_9  and  C_10
REMARK    6  A    between atoms: C_10  and  C_11
REMARK                            x       y       z     vdW  Elec       q    Type
REMARK                         _______ _______ _______ _____ _____    ______ ____
ROOT
ATOM      1  C   UNL     1       1.207   2.706 -23.618  0.00  0.00    +0.241 C 
ENDROOT
BRANCH   1   2
ATOM      2  C   UNL     1       0.055   2.552 -23.036  0.00  0.00    +0.075 C 
ATOM      3  C   UNL     1      -0.006   2.056 -21.837  0.00  0.00    +0.017 C 
ATOM      4  C   UNL     1      -1.158   1.901 -21.255  0.00  0.00    +0.051 C 
ATOM      5  C   UNL     1      -2.249   2.243 -21.873  0.00  0.00    +0.131 C 
ATOM      6  N   UNL     1      -2.190   2.739 -23.073  0.00  0.00    +0.238 N 
ATOM      7  H   UNL     1      -3.100   2.623 -22.630  0.00  0.00    +0.204 HD
ATOM      8  C   UNL     1      -3.281   3.080 -23.691  0.00  0.00    +0.131 C 
ATOM      9  C   UNL     1      -3.220   3.576 -24.891  0.00  0.00    +0.051 C 
ATOM     10  C   UNL     1      -2.068   3.730 -25.473  0.00  0.00    +0.011 C 
ATOM     11  C   UNL     1      -0.976   3.389 -24.855  0.00  0.00    +0.055 C 
ATOM     12  C   UNL     1      -1.036   2.893 -23.654  0.00  0.00    +0.071 C 
ENDBRANCH   1   2
BRANCH   1  13
ATOM     13  O   UNL     1       2.244   3.068 -22.923  0.00  0.00    -0.461 OA
BRANCH  13  14
ATOM     14  C   UNL     1       2.889   4.153 -23.234  0.00  0.00    +0.339 C 
ATOM     15  O   UNL     1       2.236   5.229 -23.557  0.00  0.00    -0.245 OA
BRANCH  14  19
ATOM     16  C   UNL     1       6.790   4.178 -23.199  0.00  0.00    +0.120 A 
ATOM     17  C   UNL     1       6.130   5.229 -22.814  0.00  0.00    +0.046 A 
ATOM     18  C   UNL     1       4.829   5.221 -22.825  0.00  0.00    +0.018 A 
ATOM     19  C   UNL     1       4.190   4.161 -23.222  0.00  0.00    +0.059 A 
ATOM     20  C   UNL     1       4.850   3.110 -23.608  0.00  0.00    +0.018 A 
ATOM     21  C   UNL     1       6.149   3.118 -23.597  0.00  0.00    +0.046 A 
BRANCH  16  23
ATOM     22  C   UNL     1       8.729   5.211 -22.708  0.00  0.00    +0.277 C 
ATOM     23  O   UNL     1       8.090   4.186 -23.188  0.00  0.00    -0.495 OA
ENDBRANCH  16  23
ENDBRANCH  14  19
ENDBRANCH  13  14
ENDBRANCH   1  13
TORSDOF 5
ENDMDL
