MODEL 1
REMARK VINA RESULT:    -9.552      0.000      0.000
REMARK INTER + INTRA:         -12.288
REMARK INTER:                 -11.662
REMARK INTRA:                  -0.627
REMARK UNBOUND:                -0.503
REMARK  Name = ZINC000013425022
REMARK  4 active torsions:
REMARK  status: ('A' for Active; 'I' for Inactive)
REMARK    1  A    between atoms: C_2  and  O_3
REMARK    2  A    between atoms: C_2  and  C_15
REMARK    3  A    between atoms: O_3  and  C_4
REMARK    4  A    between atoms: C_4  and  C_5
REMARK                            x       y       z     vdW  Elec       q    Type
REMARK                         _______ _______ _______ _____ _____    ______ ____
ROOT
ATOM      1  C   UNL     1      -1.286   2.244 -23.492  0.00  0.00    +0.241 C 
ENDROOT
BRANCH   1   2
ATOM      2  C   UNL     1      -2.307   2.811 -24.066  0.00  0.00    +0.075 C 
ATOM      3  C   UNL     1      -2.223   3.197 -25.305  0.00  0.00    +0.017 C 
ATOM      4  C   UNL     1      -3.243   3.763 -25.878  0.00  0.00    +0.051 C 
ATOM      5  C   UNL     1      -4.346   3.943 -25.213  0.00  0.00    +0.131 C 
ATOM      6  N   UNL     1      -4.429   3.557 -23.975  0.00  0.00    +0.238 N 
ATOM      7  H   UNL     1      -5.390   3.895 -23.930  0.00  0.00    +0.204 HD
ATOM      8  C   UNL     1      -5.531   3.737 -23.310  0.00  0.00    +0.131 C 
ATOM      9  C   UNL     1      -5.614   3.351 -22.071  0.00  0.00    +0.051 C 
ATOM     10  C   UNL     1      -4.594   2.784 -21.498  0.00  0.00    +0.011 C 
ATOM     11  C   UNL     1      -3.491   2.604 -22.163  0.00  0.00    +0.055 C 
ATOM     12  C   UNL     1      -3.409   2.991 -23.401  0.00  0.00    +0.071 C 
ENDBRANCH   1   2
BRANCH   1  13
ATOM     13  O   UNL     1      -0.095   2.396 -23.988  0.00  0.00    -0.461 OA
BRANCH  13  15
ATOM     14  O   UNL     1       1.044   1.140 -22.507  0.00  0.00    -0.245 OA
ATOM     15  C   UNL     1       0.951   2.211 -23.237  0.00  0.00    +0.339 C 
BRANCH  15  16
ATOM     16  C   UNL     1       1.901   3.097 -23.217  0.00  0.00    +0.060 A 
ATOM     17  C   UNL     1       1.609   4.363 -23.201  0.00  0.00    +0.015 A 
ATOM     18  C   UNL     1       2.561   5.249 -23.181  0.00  0.00    +0.002 A 
ATOM     19  C   UNL     1       3.804   4.868 -23.177  0.00  0.00    +0.015 A 
ATOM     20  C   UNL     1       4.095   3.601 -23.193  0.00  0.00    +0.019 A 
ATOM     21 BR   UNL     1       5.338   3.220 -23.188  0.00  0.00    -0.050 Br
ATOM     22  C   UNL     1       3.145   2.715 -23.213  0.00  0.00    +0.030 A 
ENDBRANCH  15  16
ENDBRANCH  13  15
ENDBRANCH   1  13
TORSDOF 4
ENDMDL
MODEL 2
REMARK VINA RESULT:    -9.539      1.910      3.070
REMARK INTER + INTRA:         -12.273
REMARK INTER:                 -11.880
REMARK INTRA:                  -0.393
REMARK UNBOUND:                -0.503
REMARK  Name = ZINC000013425022
REMARK  4 active torsions:
REMARK  status: ('A' for Active; 'I' for Inactive)
REMARK    1  A    between atoms: C_2  and  O_3
REMARK    2  A    between atoms: C_2  and  C_15
REMARK    3  A    between atoms: O_3  and  C_4
REMARK    4  A    between atoms: C_4  and  C_5
REMARK                            x       y       z     vdW  Elec       q    Type
REMARK                         _______ _______ _______ _____ _____    ______ ____
ROOT
ATOM      1  C   UNL     1      -1.878   2.745 -21.385  0.00  0.00    +0.241 C 
ENDROOT
BRANCH   1   2
ATOM      2  C   UNL     1      -3.129   2.894 -21.711  0.00  0.00    +0.075 C 
ATOM      3  C   UNL     1      -4.062   2.472 -20.910  0.00  0.00    +0.017 C 
ATOM      4  C   UNL     1      -5.312   2.621 -21.236  0.00  0.00    +0.051 C 
ATOM      5  C   UNL     1      -5.627   3.193 -22.360  0.00  0.00    +0.131 C 
ATOM      6  N   UNL     1      -4.694   3.615 -23.160  0.00  0.00    +0.238 N 
ATOM      7  H   UNL     1      -5.400   3.942 -23.818  0.00  0.00    +0.204 HD
ATOM      8  C   UNL     1      -5.009   4.186 -24.284  0.00  0.00    +0.131 C 
ATOM      9  C   UNL     1      -4.075   4.608 -25.084  0.00  0.00    +0.051 C 
ATOM     10  C   UNL     1      -2.825   4.458 -24.758  0.00  0.00    +0.011 C 
ATOM     11  C   UNL     1      -2.510   3.887 -23.634  0.00  0.00    +0.055 C 
ATOM     12  C   UNL     1      -3.444   3.465 -22.835  0.00  0.00    +0.071 C 
ENDBRANCH   1   2
BRANCH   1  13
ATOM     13  O   UNL     1      -1.207   1.728 -21.837  0.00  0.00    -0.461 OA
BRANCH  13  15
ATOM     14  O   UNL     1       0.463   1.289 -20.391  0.00  0.00    -0.245 OA
ATOM     15  C   UNL     1       0.065   1.624 -21.582  0.00  0.00    +0.339 C 
BRANCH  15  16
ATOM     16  C   UNL     1       0.936   1.854 -22.518  0.00  0.00    +0.060 A 
ATOM     17  C   UNL     1       2.100   1.278 -22.479  0.00  0.00    +0.015 A 
ATOM     18  C   UNL     1       2.972   1.509 -23.416  0.00  0.00    +0.002 A 
ATOM     19  C   UNL     1       2.679   2.317 -24.392  0.00  0.00    +0.015 A 
ATOM     20  C   UNL     1       1.514   2.893 -24.430  0.00  0.00    +0.019 A 
ATOM     21 BR   UNL     1       1.221   3.701 -25.406  0.00  0.00    -0.050 Br
ATOM     22  C   UNL     1       0.643   2.663 -23.494  0.00  0.00    +0.030 A 
ENDBRANCH  15  16
ENDBRANCH  13  15
ENDBRANCH   1  13
TORSDOF 4
ENDMDL
MODEL 3
REMARK VINA RESULT:    -9.454      1.219      1.802
REMARK INTER + INTRA:         -12.168
REMARK INTER:                 -11.447
REMARK INTRA:                  -0.721
REMARK UNBOUND:                -0.503
REMARK  Name = ZINC000013425022
REMARK  4 active torsions:
REMARK  status: ('A' for Active; 'I' for Inactive)
REMARK    1  A    between atoms: C_2  and  O_3
REMARK    2  A    between atoms: C_2  and  C_15
REMARK    3  A    between atoms: O_3  and  C_4
REMARK    4  A    between atoms: C_4  and  C_5
REMARK                            x       y       z     vdW  Elec       q    Type
REMARK                         _______ _______ _______ _____ _____    ______ ____
ROOT
ATOM      1  C   UNL     1      -1.263   2.253 -22.078  0.00  0.00    +0.241 C 
ENDROOT
BRANCH   1   2
ATOM      2  C   UNL     1      -2.009   2.815 -22.983  0.00  0.00    +0.075 C 
ATOM      3  C   UNL     1      -1.486   3.190 -24.113  0.00  0.00    +0.017 C 
ATOM      4  C   UNL     1      -2.231   3.752 -25.018  0.00  0.00    +0.051 C 
ATOM      5  C   UNL     1      -3.498   3.938 -24.793  0.00  0.00    +0.131 C 
ATOM      6  N   UNL     1      -4.020   3.563 -23.664  0.00  0.00    +0.238 N 
ATOM      7  H   UNL     1      -4.932   3.901 -23.969  0.00  0.00    +0.204 HD
ATOM      8  C   UNL     1      -5.287   3.750 -23.439  0.00  0.00    +0.131 C 
ATOM      9  C   UNL     1      -5.809   3.374 -22.308  0.00  0.00    +0.051 C 
ATOM     10  C   UNL     1      -5.063   2.812 -21.404  0.00  0.00    +0.011 C 
ATOM     11  C   UNL     1      -3.796   2.626 -21.629  0.00  0.00    +0.055 C 
ATOM     12  C   UNL     1      -3.275   3.001 -22.759  0.00  0.00    +0.071 C 
ENDBRANCH   1   2
BRANCH   1  13
ATOM     13  O   UNL     1      -0.291   1.467 -22.433  0.00  0.00    -0.461 OA
BRANCH  13  15
ATOM     14  O   UNL     1       0.813   1.186 -20.490  0.00  0.00    -0.245 OA
ATOM     15  C   UNL     1       0.822   1.465 -21.760  0.00  0.00    +0.339 C 
BRANCH  15  16
ATOM     16  C   UNL     1       1.943   1.741 -22.356  0.00  0.00    +0.060 A 
ATOM     17  C   UNL     1       2.695   0.781 -22.804  0.00  0.00    +0.015 A 
ATOM     18  C   UNL     1       3.817   1.058 -23.401  0.00  0.00    +0.002 A 
ATOM     19  C   UNL     1       4.185   2.296 -23.550  0.00  0.00    +0.015 A 
ATOM     20  C   UNL     1       3.432   3.256 -23.102  0.00  0.00    +0.019 A 
ATOM     21 BR   UNL     1       3.800   4.494 -23.251  0.00  0.00    -0.050 Br
ATOM     22  C   UNL     1       2.311   2.980 -22.505  0.00  0.00    +0.030 A 
ENDBRANCH  15  16
ENDBRANCH  13  15
ENDBRANCH   1  13
TORSDOF 4
ENDMDL
MODEL 4
REMARK VINA RESULT:    -9.382      1.480      2.704
REMARK INTER + INTRA:         -12.079
REMARK INTER:                 -11.443
REMARK INTRA:                  -0.636
REMARK UNBOUND:                -0.503
REMARK  Name = ZINC000013425022
REMARK  4 active torsions:
REMARK  status: ('A' for Active; 'I' for Inactive)
REMARK    1  A    between atoms: C_2  and  O_3
REMARK    2  A    between atoms: C_2  and  C_15
REMARK    3  A    between atoms: O_3  and  C_4
REMARK    4  A    between atoms: C_4  and  C_5
REMARK                            x       y       z     vdW  Elec       q    Type
REMARK                         _______ _______ _______ _____ _____    ______ ____
ROOT
ATOM      1  C   UNL     1      -0.946   3.762 -22.473  0.00  0.00    +0.241 C 
ENDROOT
BRANCH   1   2
ATOM      2  C   UNL     1      -2.209   3.555 -22.243  0.00  0.00    +0.075 C 
ATOM      3  C   UNL     1      -2.594   3.120 -21.079  0.00  0.00    +0.017 C 
ATOM      4  C   UNL     1      -3.856   2.912 -20.849  0.00  0.00    +0.051 C 
ATOM      5  C   UNL     1      -4.733   3.139 -21.783  0.00  0.00    +0.131 C 
ATOM      6  N   UNL     1      -4.348   3.574 -22.945  0.00  0.00    +0.238 N 
ATOM      7  H   UNL     1      -5.316   3.583 -23.266  0.00  0.00    +0.204 HD
ATOM      8  C   UNL     1      -5.224   3.800 -23.877  0.00  0.00    +0.131 C 
ATOM      9  C   UNL     1      -4.839   4.235 -25.041  0.00  0.00    +0.051 C 
ATOM     10  C   UNL     1      -3.576   4.443 -25.270  0.00  0.00    +0.011 C 
ATOM     11  C   UNL     1      -2.699   4.216 -24.338  0.00  0.00    +0.055 C 
ATOM     12  C   UNL     1      -3.085   3.781 -23.175  0.00  0.00    +0.071 C 
ENDBRANCH   1   2
BRANCH   1  13
ATOM     13  O   UNL     1      -0.076   2.834 -22.207  0.00  0.00    -0.461 OA
BRANCH  13  15
ATOM     14  O   UNL     1       0.526   2.296 -24.310  0.00  0.00    -0.245 OA
ATOM     15  C   UNL     1       0.848   2.542 -23.075  0.00  0.00    +0.339 C 
BRANCH  15  16
ATOM     16  C   UNL     1       2.093   2.496 -22.707  0.00  0.00    +0.060 A 
ATOM     17  C   UNL     1       2.916   3.431 -23.078  0.00  0.00    +0.015 A 
ATOM     18  C   UNL     1       4.162   3.385 -22.710  0.00  0.00    +0.002 A 
ATOM     19  C   UNL     1       4.585   2.404 -21.969  0.00  0.00    +0.015 A 
ATOM     20  C   UNL     1       3.762   1.469 -21.598  0.00  0.00    +0.019 A 
ATOM     21 BR   UNL     1       4.184   0.487 -20.857  0.00  0.00    -0.050 Br
ATOM     22  C   UNL     1       2.516   1.514 -21.966  0.00  0.00    +0.030 A 
ENDBRANCH  15  16
ENDBRANCH  13  15
ENDBRANCH   1  13
TORSDOF 4
ENDMDL
MODEL 5
REMARK VINA RESULT:    -9.372      1.457      2.098
REMARK INTER + INTRA:         -12.067
REMARK INTER:                 -11.505
REMARK INTRA:                  -0.562
REMARK UNBOUND:                -0.503
REMARK  Name = ZINC000013425022
REMARK  4 active torsions:
REMARK  status: ('A' for Active; 'I' for Inactive)
REMARK    1  A    between atoms: C_2  and  O_3
REMARK    2  A    between atoms: C_2  and  C_15
REMARK    3  A    between atoms: O_3  and  C_4
REMARK    4  A    between atoms: C_4  and  C_5
REMARK                            x       y       z     vdW  Elec       q    Type
REMARK                         _______ _______ _______ _____ _____    ______ ____
ROOT
ATOM      1  C   UNL     1      -1.393   4.302 -24.230  0.00  0.00    +0.241 C 
ENDROOT
BRANCH   1   2
ATOM      2  C   UNL     1      -2.675   4.130 -24.089  0.00  0.00    +0.075 C 
ATOM      3  C   UNL     1      -3.476   4.378 -25.082  0.00  0.00    +0.017 C 
ATOM      4  C   UNL     1      -4.757   4.206 -24.941  0.00  0.00    +0.051 C 
ATOM      5  C   UNL     1      -5.235   3.787 -23.807  0.00  0.00    +0.131 C 
ATOM      6  N   UNL     1      -4.434   3.539 -22.814  0.00  0.00    +0.238 N 
ATOM      7  H   UNL     1      -5.229   3.271 -22.235  0.00  0.00    +0.204 HD
ATOM      8  C   UNL     1      -4.913   3.120 -21.681  0.00  0.00    +0.131 C 
ATOM      9  C   UNL     1      -4.110   2.872 -20.688  0.00  0.00    +0.051 C 
ATOM     10  C   UNL     1      -2.830   3.044 -20.830  0.00  0.00    +0.011 C 
ATOM     11  C   UNL     1      -2.351   3.463 -21.963  0.00  0.00    +0.055 C 
ATOM     12  C   UNL     1      -3.153   3.711 -22.955  0.00  0.00    +0.071 C 
ENDBRANCH   1   2
BRANCH   1  13
ATOM     13  O   UNL     1      -0.698   3.458 -24.932  0.00  0.00    -0.461 OA
BRANCH  13  15
ATOM     14  O   UNL     1       1.138   4.155 -26.034  0.00  0.00    -0.245 OA
ATOM     15  C   UNL     1       0.595   3.580 -25.003  0.00  0.00    +0.339 C 
BRANCH  15  16
ATOM     16  C   UNL     1       1.343   3.129 -24.041  0.00  0.00    +0.060 A 
ATOM     17  C   UNL     1       0.866   2.263 -23.198  0.00  0.00    +0.015 A 
ATOM     18  C   UNL     1       1.616   1.810 -22.236  0.00  0.00    +0.002 A 
ATOM     19  C   UNL     1       2.842   2.225 -22.118  0.00  0.00    +0.015 A 
ATOM     20  C   UNL     1       3.319   3.091 -22.962  0.00  0.00    +0.019 A 
ATOM     21 BR   UNL     1       4.546   3.506 -22.844  0.00  0.00    -0.050 Br
ATOM     22  C   UNL     1       2.571   3.543 -23.923  0.00  0.00    +0.030 A 
ENDBRANCH  15  16
ENDBRANCH  13  15
ENDBRANCH   1  13
TORSDOF 4
ENDMDL
MODEL 6
REMARK VINA RESULT:    -9.079      3.136      6.617
REMARK INTER + INTRA:         -11.706
REMARK INTER:                 -11.176
REMARK INTRA:                  -0.530
REMARK UNBOUND:                -0.503
REMARK  Name = ZINC000013425022
REMARK  4 active torsions:
REMARK  status: ('A' for Active; 'I' for Inactive)
REMARK    1  A    between atoms: C_2  and  O_3
REMARK    2  A    between atoms: C_2  and  C_15
REMARK    3  A    between atoms: O_3  and  C_4
REMARK    4  A    between atoms: C_4  and  C_5
REMARK                            x       y       z     vdW  Elec       q    Type
REMARK                         _______ _______ _______ _____ _____    ______ ____
ROOT
ATOM      1  C   UNL     1      -0.366   2.252 -21.819  0.00  0.00    +0.241 C 
ENDROOT
BRANCH   1   2
ATOM      2  C   UNL     1       0.354   2.513 -22.871  0.00  0.00    +0.075 C 
ATOM      3  C   UNL     1      -0.094   3.330 -23.778  0.00  0.00    +0.017 C 
ATOM      4  C   UNL     1       0.625   3.591 -24.829  0.00  0.00    +0.051 C 
ATOM      5  C   UNL     1       1.792   3.034 -24.972  0.00  0.00    +0.131 C 
ATOM      6  N   UNL     1       2.239   2.218 -24.066  0.00  0.00    +0.238 N 
ATOM      7  H   UNL     1       3.094   2.082 -24.605  0.00  0.00    +0.204 HD
ATOM      8  C   UNL     1       3.405   1.662 -24.210  0.00  0.00    +0.131 C 
ATOM      9  C   UNL     1       3.852   0.844 -23.302  0.00  0.00    +0.051 C 
ATOM     10  C   UNL     1       3.132   0.584 -22.252  0.00  0.00    +0.011 C 
ATOM     11  C   UNL     1       1.966   1.140 -22.108  0.00  0.00    +0.055 C 
ATOM     12  C   UNL     1       1.520   1.957 -23.015  0.00  0.00    +0.071 C 
ENDBRANCH   1   2
BRANCH   1  13
ATOM     13  O   UNL     1      -1.622   1.946 -21.952  0.00  0.00    -0.461 OA
BRANCH  13  15
ATOM     14  O   UNL     1      -2.434   3.165 -20.241  0.00  0.00    -0.245 OA
ATOM     15  C   UNL     1      -2.537   2.730 -21.461  0.00  0.00    +0.339 C 
BRANCH  15  16
ATOM     16  C   UNL     1      -3.553   3.078 -22.192  0.00  0.00    +0.060 A 
ATOM     17  C   UNL     1      -4.753   3.049 -21.694  0.00  0.00    +0.015 A 
ATOM     18  C   UNL     1      -5.771   3.397 -22.425  0.00  0.00    +0.002 A 
ATOM     19  C   UNL     1      -5.587   3.774 -23.656  0.00  0.00    +0.015 A 
ATOM     20  C   UNL     1      -4.386   3.803 -24.154  0.00  0.00    +0.019 A 
ATOM     21 BR   UNL     1      -4.203   4.181 -25.385  0.00  0.00    -0.050 Br
ATOM     22  C   UNL     1      -3.370   3.456 -23.424  0.00  0.00    +0.030 A 
ENDBRANCH  15  16
ENDBRANCH  13  15
ENDBRANCH   1  13
TORSDOF 4
ENDMDL
MODEL 7
REMARK VINA RESULT:    -8.799      3.019      6.371
REMARK INTER + INTRA:         -11.359
REMARK INTER:                 -10.892
REMARK INTRA:                  -0.467
REMARK UNBOUND:                -0.503
REMARK  Name = ZINC000013425022
REMARK  4 active torsions:
REMARK  status: ('A' for Active; 'I' for Inactive)
REMARK    1  A    between atoms: C_2  and  O_3
REMARK    2  A    between atoms: C_2  and  C_15
REMARK    3  A    between atoms: O_3  and  C_4
REMARK    4  A    between atoms: C_4  and  C_5
REMARK                            x       y       z     vdW  Elec       q    Type
REMARK                         _______ _______ _______ _____ _____    ______ ____
ROOT
ATOM      1  C   UNL     1      -0.647   2.384 -21.360  0.00  0.00    +0.241 C 
ENDROOT
BRANCH   1   2
ATOM      2  C   UNL     1       0.409   2.084 -22.059  0.00  0.00    +0.075 C 
ATOM      3  C   UNL     1       1.165   1.090 -21.700  0.00  0.00    +0.017 C 
ATOM      4  C   UNL     1       2.220   0.791 -22.398  0.00  0.00    +0.051 C 
ATOM      5  C   UNL     1       2.518   1.486 -23.456  0.00  0.00    +0.131 C 
ATOM      6  N   UNL     1       1.762   2.480 -23.815  0.00  0.00    +0.238 N 
ATOM      7  H   UNL     1       2.373   2.662 -24.610  0.00  0.00    +0.204 HD
ATOM      8  C   UNL     1       2.060   3.176 -24.871  0.00  0.00    +0.131 C 
ATOM      9  C   UNL     1       1.304   4.171 -25.230  0.00  0.00    +0.051 C 
ATOM     10  C   UNL     1       0.249   4.469 -24.531  0.00  0.00    +0.011 C 
ATOM     11  C   UNL     1      -0.049   3.774 -23.475  0.00  0.00    +0.055 C 
ATOM     12  C   UNL     1       0.707   2.780 -23.116  0.00  0.00    +0.071 C 
ENDBRANCH   1   2
BRANCH   1  13
ATOM     13  O   UNL     1      -1.820   1.988 -21.755  0.00  0.00    -0.461 OA
BRANCH  13  15
ATOM     14  O   UNL     1      -3.140   3.076 -20.289  0.00  0.00    -0.245 OA
ATOM     15  C   UNL     1      -2.868   2.718 -21.509  0.00  0.00    +0.339 C 
BRANCH  15  16
ATOM     16  C   UNL     1      -3.644   3.090 -22.483  0.00  0.00    +0.060 A 
ATOM     17  C   UNL     1      -4.877   3.423 -22.241  0.00  0.00    +0.015 A 
ATOM     18  C   UNL     1      -5.653   3.795 -23.217  0.00  0.00    +0.002 A 
ATOM     19  C   UNL     1      -5.195   3.833 -24.433  0.00  0.00    +0.015 A 
ATOM     20  C   UNL     1      -3.962   3.499 -24.674  0.00  0.00    +0.019 A 
ATOM     21 BR   UNL     1      -3.504   3.537 -25.890  0.00  0.00    -0.050 Br
ATOM     22  C   UNL     1      -3.186   3.128 -23.700  0.00  0.00    +0.030 A 
ENDBRANCH  15  16
ENDBRANCH  13  15
ENDBRANCH   1  13
TORSDOF 4
ENDMDL
MODEL 8
REMARK VINA RESULT:    -8.747      3.116      7.175
REMARK INTER + INTRA:         -11.296
REMARK INTER:                 -10.705
REMARK INTRA:                  -0.591
REMARK UNBOUND:                -0.503
REMARK  Name = ZINC000013425022
REMARK  4 active torsions:
REMARK  status: ('A' for Active; 'I' for Inactive)
REMARK    1  A    between atoms: C_2  and  O_3
REMARK    2  A    between atoms: C_2  and  C_15
REMARK    3  A    between atoms: O_3  and  C_4
REMARK    4  A    between atoms: C_4  and  C_5
REMARK                            x       y       z     vdW  Elec       q    Type
REMARK                         _______ _______ _______ _____ _____    ______ ____
ROOT
ATOM      1  C   UNL     1       0.514   3.366 -23.364  0.00  0.00    +0.241 C 
ENDROOT
BRANCH   1   2
ATOM      2  C   UNL     1       1.492   2.654 -22.886  0.00  0.00    +0.075 C 
ATOM      3  C   UNL     1       1.265   1.450 -22.449  0.00  0.00    +0.017 C 
ATOM      4  C   UNL     1       2.243   0.738 -21.971  0.00  0.00    +0.051 C 
ATOM      5  C   UNL     1       3.446   1.230 -21.932  0.00  0.00    +0.131 C 
ATOM      6  N   UNL     1       3.672   2.433 -22.369  0.00  0.00    +0.238 N 
ATOM      7  H   UNL     1       4.660   2.335 -22.136  0.00  0.00    +0.204 HD
ATOM      8  C   UNL     1       4.875   2.924 -22.329  0.00  0.00    +0.131 C 
ATOM      9  C   UNL     1       5.101   4.127 -22.767  0.00  0.00    +0.051 C 
ATOM     10  C   UNL     1       4.123   4.839 -23.244  0.00  0.00    +0.011 C 
ATOM     11  C   UNL     1       2.920   4.348 -23.284  0.00  0.00    +0.055 C 
ATOM     12  C   UNL     1       2.695   3.145 -22.846  0.00  0.00    +0.071 C 
ENDBRANCH   1   2
BRANCH   1  13
ATOM     13  O   UNL     1      -0.647   2.821 -23.567  0.00  0.00    -0.461 OA
BRANCH  13  15
ATOM     14  O   UNL     1      -1.052   3.763 -25.573  0.00  0.00    -0.245 OA
ATOM     15  C   UNL     1      -1.477   3.356 -24.414  0.00  0.00    +0.339 C 
BRANCH  15  16
ATOM     16  C   UNL     1      -2.732   3.484 -24.101  0.00  0.00    +0.060 A 
ATOM     17  C   UNL     1      -3.580   3.925 -24.981  0.00  0.00    +0.015 A 
ATOM     18  C   UNL     1      -4.836   4.053 -24.667  0.00  0.00    +0.002 A 
ATOM     19  C   UNL     1      -5.243   3.738 -23.473  0.00  0.00    +0.015 A 
ATOM     20  C   UNL     1      -4.393   3.297 -22.593  0.00  0.00    +0.019 A 
ATOM     21 BR   UNL     1      -4.800   2.982 -21.399  0.00  0.00    -0.050 Br
ATOM     22  C   UNL     1      -3.139   3.169 -22.906  0.00  0.00    +0.030 A 
ENDBRANCH  15  16
ENDBRANCH  13  15
ENDBRANCH   1  13
TORSDOF 4
ENDMDL
MODEL 9
REMARK VINA RESULT:    -8.732      3.115      7.109
REMARK INTER + INTRA:         -11.277
REMARK INTER:                 -10.774
REMARK INTRA:                  -0.503
REMARK UNBOUND:                -0.503
REMARK  Name = ZINC000013425022
REMARK  4 active torsions:
REMARK  status: ('A' for Active; 'I' for Inactive)
REMARK    1  A    between atoms: C_2  and  O_3
REMARK    2  A    between atoms: C_2  and  C_15
REMARK    3  A    between atoms: O_3  and  C_4
REMARK    4  A    between atoms: C_4  and  C_5
REMARK                            x       y       z     vdW  Elec       q    Type
REMARK                         _______ _______ _______ _____ _____    ______ ____
ROOT
ATOM      1  C   UNL     1       0.384   2.988 -22.898  0.00  0.00    +0.241 C 
ENDROOT
BRANCH   1   2
ATOM      2  C   UNL     1       1.512   2.361 -22.738  0.00  0.00    +0.075 C 
ATOM      3  C   UNL     1       1.516   1.087 -22.477  0.00  0.00    +0.017 C 
ATOM      4  C   UNL     1       2.644   0.461 -22.318  0.00  0.00    +0.051 C 
ATOM      5  C   UNL     1       3.767   1.109 -22.419  0.00  0.00    +0.131 C 
ATOM      6  N   UNL     1       3.763   2.382 -22.679  0.00  0.00    +0.238 N 
ATOM      7  H   UNL     1       4.782   2.394 -22.653  0.00  0.00    +0.204 HD
ATOM      8  C   UNL     1       4.886   3.029 -22.780  0.00  0.00    +0.131 C 
ATOM      9  C   UNL     1       4.881   4.303 -23.041  0.00  0.00    +0.051 C 
ATOM     10  C   UNL     1       3.752   4.928 -23.200  0.00  0.00    +0.011 C 
ATOM     11  C   UNL     1       2.630   4.281 -23.100  0.00  0.00    +0.055 C 
ATOM     12  C   UNL     1       2.635   3.008 -22.839  0.00  0.00    +0.071 C 
ENDBRANCH   1   2
BRANCH   1  13
ATOM     13  O   UNL     1      -0.732   2.322 -22.915  0.00  0.00    -0.461 OA
BRANCH  13  15
ATOM     14  O   UNL     1      -1.491   2.602 -20.814  0.00  0.00    -0.245 OA
ATOM     15  C   UNL     1      -1.692   2.640 -22.097  0.00  0.00    +0.339 C 
BRANCH  15  16
ATOM     16  C   UNL     1      -2.851   2.996 -22.564  0.00  0.00    +0.060 A 
ATOM     17  C   UNL     1      -3.895   2.986 -21.790  0.00  0.00    +0.015 A 
ATOM     18  C   UNL     1      -5.055   3.342 -22.257  0.00  0.00    +0.002 A 
ATOM     19  C   UNL     1      -5.171   3.709 -23.499  0.00  0.00    +0.015 A 
ATOM     20  C   UNL     1      -4.126   3.719 -24.273  0.00  0.00    +0.019 A 
ATOM     21 BR   UNL     1      -4.241   4.086 -25.515  0.00  0.00    -0.050 Br
ATOM     22  C   UNL     1      -2.967   3.363 -23.807  0.00  0.00    +0.030 A 
ENDBRANCH  15  16
ENDBRANCH  13  15
ENDBRANCH   1  13
TORSDOF 4
ENDMDL
