MODEL 1
REMARK VINA RESULT:    -5.738      0.000      0.000
REMARK INTER + INTRA:          -6.241
REMARK INTER:                  -6.241
REMARK INTRA:                   0.000
REMARK UNBOUND:                 0.000
REMARK  Name = ZINC000003860368
REMARK  4 active torsions:
REMARK  status: ('A' for Active; 'I' for Inactive)
REMARK    1  A    between atoms: C_1  and  C_2
REMARK    2  A    between atoms: C_4  and  O_5
REMARK    3  A    between atoms: C_7  and  O_8
REMARK    4  A    between atoms: C_9  and  O_10
REMARK                            x       y       z     vdW  Elec       q    Type
REMARK                         _______ _______ _______ _____ _____    ______ ____
ROOT
ATOM      1  C   UNL     1      -4.444   3.025 -21.652  0.00  0.00    +0.041 C 
ATOM      2  C   UNL     1      -3.871   3.101 -22.817  0.00  0.00    +0.149 C 
ATOM      3  O   UNL     1      -2.685   2.599 -22.993  0.00  0.00    -0.346 OA
ATOM      4  C   UNL     1      -2.114   2.676 -24.159  0.00  0.00    +0.250 C 
ATOM      5  C   UNL     1      -2.729   3.254 -25.148  0.00  0.00    +0.095 C 
ATOM      6  C   UNL     1      -3.915   3.756 -24.971  0.00  0.00    +0.150 C 
ATOM      7  C   UNL     1      -4.486   3.679 -23.806  0.00  0.00    +0.172 C 
ENDROOT
BRANCH   6   8
ATOM      8  O   UNL     1      -4.529   4.334 -25.960  0.00  0.00    -0.389 OA
ATOM      9  H   UNL     1      -4.108   4.079 -26.796  0.00  0.00    +0.210 HD
ENDBRANCH   6   8
BRANCH   4  10
ATOM     10  O   UNL     1      -0.928   2.174 -24.334  0.00  0.00    -0.367 OA
ATOM     11  H   UNL     1      -0.295   2.629 -23.757  0.00  0.00    +0.212 HD
ENDBRANCH   4  10
BRANCH   7  12
ATOM     12  O   UNL     1      -5.673   4.181 -23.630  0.00  0.00    -0.387 OA
ATOM     13  H   UNL     1      -6.309   3.464 -23.487  0.00  0.00    +0.210 HD
ENDBRANCH   7  12
TORSDOF 3
ENDMDL
MODEL 2
REMARK VINA RESULT:    -5.614      0.679      2.797
REMARK INTER + INTRA:          -6.106
REMARK INTER:                  -6.106
REMARK INTRA:                   0.000
REMARK UNBOUND:                 0.000
REMARK  Name = ZINC000003860368
REMARK  4 active torsions:
REMARK  status: ('A' for Active; 'I' for Inactive)
REMARK    1  A    between atoms: C_1  and  C_2
REMARK    2  A    between atoms: C_4  and  O_5
REMARK    3  A    between atoms: C_7  and  O_8
REMARK    4  A    between atoms: C_9  and  O_10
REMARK                            x       y       z     vdW  Elec       q    Type
REMARK                         _______ _______ _______ _____ _____    ______ ____
ROOT
ATOM      1  C   UNL     1      -4.782   3.429 -21.840  0.00  0.00    +0.041 C 
ATOM      2  C   UNL     1      -4.110   3.352 -22.950  0.00  0.00    +0.149 C 
ATOM      3  O   UNL     1      -4.573   3.907 -24.031  0.00  0.00    -0.346 OA
ATOM      4  C   UNL     1      -3.900   3.830 -25.140  0.00  0.00    +0.250 C 
ATOM      5  C   UNL     1      -2.765   3.198 -25.169  0.00  0.00    +0.095 C 
ATOM      6  C   UNL     1      -2.302   2.643 -24.088  0.00  0.00    +0.150 C 
ATOM      7  C   UNL     1      -2.974   2.720 -22.979  0.00  0.00    +0.172 C 
ENDROOT
BRANCH   6   8
ATOM      8  O   UNL     1      -1.166   2.011 -24.118  0.00  0.00    -0.389 OA
ATOM      9  H   UNL     1      -1.178   1.358 -24.835  0.00  0.00    +0.210 HD
ENDBRANCH   6   8
BRANCH   4  10
ATOM     10  O   UNL     1      -4.364   4.385 -26.220  0.00  0.00    -0.367 OA
ATOM     11  H   UNL     1      -4.480   3.709 -26.907  0.00  0.00    +0.212 HD
ENDBRANCH   4  10
BRANCH   7  12
ATOM     12  O   UNL     1      -2.511   2.165 -21.898  0.00  0.00    -0.387 OA
ATOM     13  H   UNL     1      -3.248   1.817 -21.372  0.00  0.00    +0.210 HD
ENDBRANCH   7  12
TORSDOF 3
ENDMDL
MODEL 3
REMARK VINA RESULT:    -5.590      5.752      7.574
REMARK INTER + INTRA:          -6.081
REMARK INTER:                  -6.081
REMARK INTRA:                   0.000
REMARK UNBOUND:                 0.000
REMARK  Name = ZINC000003860368
REMARK  4 active torsions:
REMARK  status: ('A' for Active; 'I' for Inactive)
REMARK    1  A    between atoms: C_1  and  C_2
REMARK    2  A    between atoms: C_4  and  O_5
REMARK    3  A    between atoms: C_7  and  O_8
REMARK    4  A    between atoms: C_9  and  O_10
REMARK                            x       y       z     vdW  Elec       q    Type
REMARK                         _______ _______ _______ _____ _____    ______ ____
ROOT
ATOM      1  C   UNL     1       0.490   1.519 -21.599  0.00  0.00    +0.041 C 
ATOM      2  C   UNL     1       1.734   1.252 -21.865  0.00  0.00    +0.149 C 
ATOM      3  O   UNL     1       2.119   1.105 -23.099  0.00  0.00    -0.346 OA
ATOM      4  C   UNL     1       3.363   0.838 -23.364  0.00  0.00    +0.250 C 
ATOM      5  C   UNL     1       4.223   0.718 -22.397  0.00  0.00    +0.095 C 
ATOM      6  C   UNL     1       3.839   0.866 -21.163  0.00  0.00    +0.150 C 
ATOM      7  C   UNL     1       2.595   1.133 -20.898  0.00  0.00    +0.172 C 
ENDROOT
BRANCH   6   8
ATOM      8  O   UNL     1       4.699   0.747 -20.197  0.00  0.00    -0.389 OA
ATOM      9  H   UNL     1       4.300   0.245 -19.468  0.00  0.00    +0.210 HD
ENDBRANCH   6   8
BRANCH   4  10
ATOM     10  O   UNL     1       3.746   0.690 -24.597  0.00  0.00    -0.367 OA
ATOM     11  H   UNL     1       4.704   0.543 -24.623  0.00  0.00    +0.212 HD
ENDBRANCH   4  10
BRANCH   7  12
ATOM     12  O   UNL     1       2.210   1.280 -19.664  0.00  0.00    -0.387 OA
ATOM     13  H   UNL     1       2.308   0.439 -19.193  0.00  0.00    +0.210 HD
ENDBRANCH   7  12
TORSDOF 3
ENDMDL
MODEL 4
REMARK VINA RESULT:    -5.457      1.193      2.950
REMARK INTER + INTRA:          -5.935
REMARK INTER:                  -5.935
REMARK INTRA:                   0.000
REMARK UNBOUND:                 0.000
REMARK  Name = ZINC000003860368
REMARK  4 active torsions:
REMARK  status: ('A' for Active; 'I' for Inactive)
REMARK    1  A    between atoms: C_1  and  C_2
REMARK    2  A    between atoms: C_4  and  O_5
REMARK    3  A    between atoms: C_7  and  O_8
REMARK    4  A    between atoms: C_9  and  O_10
REMARK                            x       y       z     vdW  Elec       q    Type
REMARK                         _______ _______ _______ _____ _____    ______ ____
ROOT
ATOM      1  C   UNL     1      -1.428   2.421 -23.630  0.00  0.00    +0.041 C 
ATOM      2  C   UNL     1      -2.540   2.982 -24.001  0.00  0.00    +0.149 C 
ATOM      3  O   UNL     1      -3.524   3.096 -23.158  0.00  0.00    -0.346 OA
ATOM      4  C   UNL     1      -4.636   3.657 -23.529  0.00  0.00    +0.250 C 
ATOM      5  C   UNL     1      -4.765   4.105 -24.743  0.00  0.00    +0.095 C 
ATOM      6  C   UNL     1      -3.781   3.991 -25.586  0.00  0.00    +0.150 C 
ATOM      7  C   UNL     1      -2.669   3.430 -25.214  0.00  0.00    +0.172 C 
ENDROOT
BRANCH   6   8
ATOM      8  O   UNL     1      -3.911   4.439 -26.799  0.00  0.00    -0.389 OA
ATOM      9  H   UNL     1      -4.779   4.183 -27.148  0.00  0.00    +0.210 HD
ENDBRANCH   6   8
BRANCH   4  10
ATOM     10  O   UNL     1      -5.619   3.770 -22.686  0.00  0.00    -0.367 OA
ATOM     11  H   UNL     1      -6.429   4.006 -23.164  0.00  0.00    +0.212 HD
ENDBRANCH   4  10
BRANCH   7  12
ATOM     12  O   UNL     1      -1.686   3.316 -26.057  0.00  0.00    -0.387 OA
ATOM     13  H   UNL     1      -0.975   3.928 -25.808  0.00  0.00    +0.210 HD
ENDBRANCH   7  12
TORSDOF 3
ENDMDL
MODEL 5
REMARK VINA RESULT:    -5.455      1.620      3.065
REMARK INTER + INTRA:          -5.933
REMARK INTER:                  -5.933
REMARK INTRA:                   0.000
REMARK UNBOUND:                 0.000
REMARK  Name = ZINC000003860368
REMARK  4 active torsions:
REMARK  status: ('A' for Active; 'I' for Inactive)
REMARK    1  A    between atoms: C_1  and  C_2
REMARK    2  A    between atoms: C_4  and  O_5
REMARK    3  A    between atoms: C_7  and  O_8
REMARK    4  A    between atoms: C_9  and  O_10
REMARK                            x       y       z     vdW  Elec       q    Type
REMARK                         _______ _______ _______ _____ _____    ______ ____
ROOT
ATOM      1  C   UNL     1      -1.644   3.711 -22.565  0.00  0.00    +0.041 C 
ATOM      2  C   UNL     1      -2.861   3.759 -23.019  0.00  0.00    +0.149 C 
ATOM      3  O   UNL     1      -3.089   4.176 -24.229  0.00  0.00    -0.346 OA
ATOM      4  C   UNL     1      -4.307   4.224 -24.682  0.00  0.00    +0.250 C 
ATOM      5  C   UNL     1      -5.297   3.854 -23.924  0.00  0.00    +0.095 C 
ATOM      6  C   UNL     1      -5.069   3.437 -22.714  0.00  0.00    +0.150 C 
ATOM      7  C   UNL     1      -3.851   3.390 -22.261  0.00  0.00    +0.172 C 
ENDROOT
BRANCH   6   8
ATOM      8  O   UNL     1      -6.059   3.068 -21.957  0.00  0.00    -0.389 OA
ATOM      9  H   UNL     1      -6.430   2.237 -22.292  0.00  0.00    +0.210 HD
ENDBRANCH   6   8
BRANCH   4  10
ATOM     10  O   UNL     1      -4.533   4.641 -25.891  0.00  0.00    -0.367 OA
ATOM     11  H   UNL     1      -5.474   4.857 -25.988  0.00  0.00    +0.212 HD
ENDBRANCH   4  10
BRANCH   7  12
ATOM     12  O   UNL     1      -3.624   2.973 -21.051  0.00  0.00    -0.387 OA
ATOM     13  H   UNL     1      -3.249   2.079 -21.082  0.00  0.00    +0.210 HD
ENDBRANCH   7  12
TORSDOF 3
ENDMDL
MODEL 6
REMARK VINA RESULT:    -5.450      1.211      3.008
REMARK INTER + INTRA:          -5.928
REMARK INTER:                  -5.928
REMARK INTRA:                   0.000
REMARK UNBOUND:                 0.000
REMARK  Name = ZINC000003860368
REMARK  4 active torsions:
REMARK  status: ('A' for Active; 'I' for Inactive)
REMARK    1  A    between atoms: C_1  and  C_2
REMARK    2  A    between atoms: C_4  and  O_5
REMARK    3  A    between atoms: C_7  and  O_8
REMARK    4  A    between atoms: C_9  and  O_10
REMARK                            x       y       z     vdW  Elec       q    Type
REMARK                         _______ _______ _______ _____ _____    ______ ____
ROOT
ATOM      1  C   UNL     1      -1.880   2.196 -21.859  0.00  0.00    +0.041 C 
ATOM      2  C   UNL     1      -2.479   2.692 -22.900  0.00  0.00    +0.149 C 
ATOM      3  O   UNL     1      -3.677   3.185 -22.789  0.00  0.00    -0.346 OA
ATOM      4  C   UNL     1      -4.276   3.681 -23.831  0.00  0.00    +0.250 C 
ATOM      5  C   UNL     1      -3.676   3.684 -24.984  0.00  0.00    +0.095 C 
ATOM      6  C   UNL     1      -2.478   3.191 -25.096  0.00  0.00    +0.150 C 
ATOM      7  C   UNL     1      -1.880   2.695 -24.054  0.00  0.00    +0.172 C 
ENDROOT
BRANCH   6   8
ATOM      8  O   UNL     1      -1.879   3.195 -26.249  0.00  0.00    -0.389 OA
ATOM      9  H   UNL     1      -2.379   3.746 -26.872  0.00  0.00    +0.210 HD
ENDBRANCH   6   8
BRANCH   4  10
ATOM     10  O   UNL     1      -5.473   4.174 -23.718  0.00  0.00    -0.367 OA
ATOM     11  H   UNL     1      -5.923   4.129 -24.576  0.00  0.00    +0.212 HD
ENDBRANCH   4  10
BRANCH   7  12
ATOM     12  O   UNL     1      -0.682   2.202 -24.165  0.00  0.00    -0.387 OA
ATOM     13  H   UNL     1      -0.681   1.283 -23.855  0.00  0.00    +0.210 HD
ENDBRANCH   7  12
TORSDOF 3
ENDMDL
MODEL 7
REMARK VINA RESULT:    -5.305      1.822      3.621
REMARK INTER + INTRA:          -5.771
REMARK INTER:                  -5.771
REMARK INTRA:                   0.000
REMARK UNBOUND:                 0.000
REMARK  Name = ZINC000003860368
REMARK  4 active torsions:
REMARK  status: ('A' for Active; 'I' for Inactive)
REMARK    1  A    between atoms: C_1  and  C_2
REMARK    2  A    between atoms: C_4  and  O_5
REMARK    3  A    between atoms: C_7  and  O_8
REMARK    4  A    between atoms: C_9  and  O_10
REMARK                            x       y       z     vdW  Elec       q    Type
REMARK                         _______ _______ _______ _____ _____    ______ ____
ROOT
ATOM      1  C   UNL     1      -4.385   3.752 -24.168  0.00  0.00    +0.041 C 
ATOM      2  C   UNL     1      -3.554   3.419 -23.225  0.00  0.00    +0.149 C 
ATOM      3  O   UNL     1      -3.757   3.825 -22.007  0.00  0.00    -0.346 OA
ATOM      4  C   UNL     1      -2.926   3.491 -21.064  0.00  0.00    +0.250 C 
ATOM      5  C   UNL     1      -1.892   2.752 -21.340  0.00  0.00    +0.095 C 
ATOM      6  C   UNL     1      -1.689   2.347 -22.559  0.00  0.00    +0.150 C 
ATOM      7  C   UNL     1      -2.521   2.680 -23.501  0.00  0.00    +0.172 C 
ENDROOT
BRANCH   6   8
ATOM      8  O   UNL     1      -0.656   1.609 -22.835  0.00  0.00    -0.389 OA
ATOM      9  H   UNL     1      -0.010   1.673 -22.113  0.00  0.00    +0.210 HD
ENDBRANCH   6   8
BRANCH   4  10
ATOM     10  O   UNL     1      -3.129   3.897 -19.846  0.00  0.00    -0.367 OA
ATOM     11  H   UNL     1      -3.468   3.161 -19.313  0.00  0.00    +0.212 HD
ENDBRANCH   4  10
BRANCH   7  12
ATOM     12  O   UNL     1      -2.318   2.275 -24.720  0.00  0.00    -0.387 OA
ATOM     13  H   UNL     1      -2.584   1.346 -24.800  0.00  0.00    +0.210 HD
ENDBRANCH   7  12
TORSDOF 3
ENDMDL
MODEL 8
REMARK VINA RESULT:    -5.293      1.327      2.663
REMARK INTER + INTRA:          -5.757
REMARK INTER:                  -5.757
REMARK INTRA:                   0.000
REMARK UNBOUND:                 0.000
REMARK  Name = ZINC000003860368
REMARK  4 active torsions:
REMARK  status: ('A' for Active; 'I' for Inactive)
REMARK    1  A    between atoms: C_1  and  C_2
REMARK    2  A    between atoms: C_4  and  O_5
REMARK    3  A    between atoms: C_7  and  O_8
REMARK    4  A    between atoms: C_9  and  O_10
REMARK                            x       y       z     vdW  Elec       q    Type
REMARK                         _______ _______ _______ _____ _____    ______ ____
ROOT
ATOM      1  C   UNL     1      -4.833   4.133 -24.736  0.00  0.00    +0.041 C 
ATOM      2  C   UNL     1      -4.029   3.546 -23.900  0.00  0.00    +0.149 C 
ATOM      3  O   UNL     1      -2.876   3.103 -24.307  0.00  0.00    -0.346 OA
ATOM      4  C   UNL     1      -2.073   2.517 -23.470  0.00  0.00    +0.250 C 
ATOM      5  C   UNL     1      -2.423   2.373 -22.225  0.00  0.00    +0.095 C 
ATOM      6  C   UNL     1      -3.575   2.816 -21.819  0.00  0.00    +0.150 C 
ATOM      7  C   UNL     1      -4.379   3.403 -22.656  0.00  0.00    +0.172 C 
ENDROOT
BRANCH   6   8
ATOM      8  O   UNL     1      -3.924   2.672 -20.575  0.00  0.00    -0.389 OA
ATOM      9  H   UNL     1      -3.660   1.792 -20.264  0.00  0.00    +0.210 HD
ENDBRANCH   6   8
BRANCH   4  10
ATOM     10  O   UNL     1      -0.921   2.075 -23.877  0.00  0.00    -0.367 OA
ATOM     11  H   UNL     1      -0.211   2.548 -23.416  0.00  0.00    +0.212 HD
ENDBRANCH   4  10
BRANCH   7  12
ATOM     12  O   UNL     1      -5.531   3.845 -22.249  0.00  0.00    -0.387 OA
ATOM     13  H   UNL     1      -6.072   3.102 -21.940  0.00  0.00    +0.210 HD
ENDBRANCH   7  12
TORSDOF 3
ENDMDL
MODEL 9
REMARK VINA RESULT:    -5.233      5.791      6.696
REMARK INTER + INTRA:          -5.692
REMARK INTER:                  -5.692
REMARK INTRA:                   0.000
REMARK UNBOUND:                 0.000
REMARK  Name = ZINC000003860368
REMARK  4 active torsions:
REMARK  status: ('A' for Active; 'I' for Inactive)
REMARK    1  A    between atoms: C_1  and  C_2
REMARK    2  A    between atoms: C_4  and  O_5
REMARK    3  A    between atoms: C_7  and  O_8
REMARK    4  A    between atoms: C_9  and  O_10
REMARK                            x       y       z     vdW  Elec       q    Type
REMARK                         _______ _______ _______ _____ _____    ______ ____
ROOT
ATOM      1  C   UNL     1       3.885   1.120 -22.810  0.00  0.00    +0.041 C 
ATOM      2  C   UNL     1       3.172   1.913 -23.554  0.00  0.00    +0.149 C 
ATOM      3  O   UNL     1       2.857   3.099 -23.126  0.00  0.00    -0.346 OA
ATOM      4  C   UNL     1       2.144   3.890 -23.872  0.00  0.00    +0.250 C 
ATOM      5  C   UNL     1       1.746   3.495 -25.045  0.00  0.00    +0.095 C 
ATOM      6  C   UNL     1       2.062   2.309 -25.473  0.00  0.00    +0.150 C 
ATOM      7  C   UNL     1       2.774   1.517 -24.728  0.00  0.00    +0.172 C 
ENDROOT
BRANCH   6   8
ATOM      8  O   UNL     1       1.664   1.914 -26.645  0.00  0.00    -0.389 OA
ATOM      9  H   UNL     1       1.887   0.978 -26.765  0.00  0.00    +0.210 HD
ENDBRANCH   6   8
BRANCH   4  10
ATOM     10  O   UNL     1       1.829   5.076 -23.443  0.00  0.00    -0.367 OA
ATOM     11  H   UNL     1       0.925   5.292 -23.722  0.00  0.00    +0.212 HD
ENDBRANCH   4  10
BRANCH   7  12
ATOM     12  O   UNL     1       3.090   0.331 -25.155  0.00  0.00    -0.387 OA
ATOM     13  H   UNL     1       3.764   0.406 -25.849  0.00  0.00    +0.210 HD
ENDBRANCH   7  12
TORSDOF 3
ENDMDL
