MODEL 1
REMARK VINA RESULT:    -8.812      0.000      0.000
REMARK INTER + INTRA:         -11.258
REMARK INTER:                 -11.153
REMARK INTRA:                  -0.105
REMARK UNBOUND:                -0.128
REMARK  Name = ZINC000036383807
REMARK  8 active torsions:
REMARK  status: ('A' for Active; 'I' for Inactive)
REMARK    1  A    between atoms: C_1  and  O_2
REMARK    2  A    between atoms: O_2  and  C_3
REMARK    3  A    between atoms: C_4  and  O_5
REMARK    4  A    between atoms: C_9  and  O_10
REMARK    5  A    between atoms: C_13  and  C_14
REMARK    6  A    between atoms: C_14  and  O_15
REMARK    7  A    between atoms: C_16  and  O_17
REMARK    8  A    between atoms: C_18  and  O_19
REMARK                            x       y       z     vdW  Elec       q    Type
REMARK                         _______ _______ _______ _____ _____    ______ ____
ROOT
ATOM      1  C   UNL     1      -2.724   3.761 -25.189  0.00  0.00    +0.203 A 
ATOM      2  C   UNL     1      -3.685   3.926 -24.329  0.00  0.00    +0.163 A 
ATOM      3  C   UNL     1      -3.509   3.587 -23.086  0.00  0.00    +0.064 A 
ATOM      4  C   UNL     1      -2.374   3.082 -22.704  0.00  0.00    +0.072 A 
ATOM      5  C   UNL     1      -1.414   2.917 -23.564  0.00  0.00    +0.044 A 
ATOM      6  C   UNL     1      -0.278   2.412 -23.182  0.00  0.00    +0.196 C 
ATOM      7  O   UNL     1       0.682   2.246 -24.043  0.00  0.00    -0.360 OA
ATOM      8  C   UNL     1       1.817   1.742 -23.661  0.00  0.00    +0.175 C 
ATOM      9  C   UNL     1       1.993   1.402 -22.418  0.00  0.00    +0.178 C 
ATOM     10  C   UNL     1       1.032   1.568 -21.558  0.00  0.00    +0.189 C 
ATOM     11  C   UNL     1      -0.103   2.073 -21.940  0.00  0.00    +0.241 C 
ATOM     12  O   UNL     1      -1.064   2.238 -21.079  0.00  0.00    -0.452 OA
ATOM     13  C   UNL     1      -2.199   2.743 -21.461  0.00  0.00    +0.340 C 
ATOM     14  O   UNL     1      -3.159   2.909 -20.601  0.00  0.00    -0.245 OA
ATOM     15  C   UNL     1      -1.589   3.256 -24.807  0.00  0.00    +0.169 A 
ENDROOT
BRANCH   1  17
ATOM     16  C   UNL     1      -3.507   3.290 -27.247  0.00  0.00    +0.277 C 
ATOM     17  O   UNL     1      -2.899   4.100 -26.432  0.00  0.00    -0.489 OA
ENDBRANCH   1  17
BRANCH  10  18
ATOM     18  O   UNL     1       1.207   1.229 -20.315  0.00  0.00    -0.385 OA
ATOM     19  H   UNL     1       1.366   2.024 -19.783  0.00  0.00    +0.210 HD
ENDBRANCH  10  18
BRANCH   9  20
ATOM     20  O   UNL     1       3.128   0.897 -22.036  0.00  0.00    -0.386 OA
ATOM     21  H   UNL     1       3.807   1.088 -22.702  0.00  0.00    +0.210 HD
ENDBRANCH   9  20
BRANCH  15  22
ATOM     22  O   UNL     1      -0.628   3.090 -25.668  0.00  0.00    -0.503 OA
ATOM     23  H   UNL     1       0.168   3.578 -25.582  0.00  0.00    +0.292 HD
ENDBRANCH  15  22
BRANCH   2  24
ATOM     24  O   UNL     1      -4.820   4.431 -24.711  0.00  0.00    -0.503 OA
ATOM     25  H   UNL     1      -4.834   5.173 -25.283  0.00  0.00    +0.292 HD
ENDBRANCH   2  24
BRANCH   8  26
ATOM     26  C   UNL     1       2.777   1.576 -24.521  0.00  0.00    +0.190 C 
BRANCH  26  27
ATOM     27  O   UNL     1       3.054   0.386 -24.966  0.00  0.00    -0.392 OA
ATOM     28  H   UNL     1       2.517   0.201 -25.752  0.00  0.00    +0.210 HD
ENDBRANCH  26  27
ENDBRANCH   8  26
TORSDOF 7
ENDMDL
MODEL 2
REMARK VINA RESULT:    -8.593      1.263      5.424
REMARK INTER + INTRA:         -10.981
REMARK INTER:                 -10.915
REMARK INTRA:                  -0.066
REMARK UNBOUND:                -0.128
REMARK  Name = ZINC000036383807
REMARK  8 active torsions:
REMARK  status: ('A' for Active; 'I' for Inactive)
REMARK    1  A    between atoms: C_1  and  O_2
REMARK    2  A    between atoms: O_2  and  C_3
REMARK    3  A    between atoms: C_4  and  O_5
REMARK    4  A    between atoms: C_9  and  O_10
REMARK    5  A    between atoms: C_13  and  C_14
REMARK    6  A    between atoms: C_14  and  O_15
REMARK    7  A    between atoms: C_16  and  O_17
REMARK    8  A    between atoms: C_18  and  O_19
REMARK                            x       y       z     vdW  Elec       q    Type
REMARK                         _______ _______ _______ _____ _____    ______ ____
ROOT
ATOM      1  C   UNL     1       0.569   1.817 -22.695  0.00  0.00    +0.203 A 
ATOM      2  C   UNL     1       0.360   1.715 -21.416  0.00  0.00    +0.163 A 
ATOM      3  C   UNL     1      -0.788   2.061 -20.915  0.00  0.00    +0.064 A 
ATOM      4  C   UNL     1      -1.728   2.509 -21.693  0.00  0.00    +0.072 A 
ATOM      5  C   UNL     1      -1.520   2.611 -22.972  0.00  0.00    +0.044 A 
ATOM      6  C   UNL     1      -2.460   3.058 -23.750  0.00  0.00    +0.196 C 
ATOM      7  O   UNL     1      -2.252   3.160 -25.029  0.00  0.00    -0.360 OA
ATOM      8  C   UNL     1      -3.192   3.608 -25.808  0.00  0.00    +0.175 C 
ATOM      9  C   UNL     1      -4.340   3.954 -25.307  0.00  0.00    +0.178 C 
ATOM     10  C   UNL     1      -4.548   3.852 -24.028  0.00  0.00    +0.189 C 
ATOM     11  C   UNL     1      -3.608   3.405 -23.250  0.00  0.00    +0.241 C 
ATOM     12  O   UNL     1      -3.817   3.303 -21.970  0.00  0.00    -0.452 OA
ATOM     13  C   UNL     1      -2.877   2.855 -21.192  0.00  0.00    +0.340 C 
ATOM     14  O   UNL     1      -3.085   2.753 -19.913  0.00  0.00    -0.245 OA
ATOM     15  C   UNL     1      -0.372   2.264 -23.473  0.00  0.00    +0.169 A 
ENDROOT
BRANCH   1  17
ATOM     16  C   UNL     1       2.663   2.353 -23.323  0.00  0.00    +0.277 C 
ATOM     17  O   UNL     1       1.717   1.470 -23.196  0.00  0.00    -0.489 OA
ENDBRANCH   1  17
BRANCH  10  18
ATOM     18  O   UNL     1      -5.697   4.199 -23.527  0.00  0.00    -0.385 OA
ATOM     19  H   UNL     1      -5.997   3.517 -22.905  0.00  0.00    +0.210 HD
ENDBRANCH  10  18
BRANCH   9  20
ATOM     20  O   UNL     1      -5.280   4.402 -26.085  0.00  0.00    -0.386 OA
ATOM     21  H   UNL     1      -5.122   5.339 -26.276  0.00  0.00    +0.210 HD
ENDBRANCH   9  20
BRANCH  15  22
ATOM     22  O   UNL     1      -0.163   2.366 -24.753  0.00  0.00    -0.503 OA
ATOM     23  H   UNL     1      -0.373   3.162 -25.200  0.00  0.00    +0.292 HD
ENDBRANCH  15  22
BRANCH   2  24
ATOM     24  O   UNL     1       1.300   1.267 -20.637  0.00  0.00    -0.503 OA
ATOM     25  H   UNL     1       2.149   1.078 -20.988  0.00  0.00    +0.292 HD
ENDBRANCH   2  24
BRANCH   8  26
ATOM     26  C   UNL     1      -2.983   3.710 -27.087  0.00  0.00    +0.190 C 
BRANCH  26  27
ATOM     27  O   UNL     1      -3.791   3.131 -27.925  0.00  0.00    -0.392 OA
ATOM     28  H   UNL     1      -4.659   3.013 -27.509  0.00  0.00    +0.210 HD
ENDBRANCH  26  27
ENDBRANCH   8  26
TORSDOF 7
ENDMDL
MODEL 3
REMARK VINA RESULT:    -8.287      1.944      4.277
REMARK INTER + INTRA:         -10.595
REMARK INTER:                 -10.742
REMARK INTRA:                   0.148
REMARK UNBOUND:                -0.128
REMARK  Name = ZINC000036383807
REMARK  8 active torsions:
REMARK  status: ('A' for Active; 'I' for Inactive)
REMARK    1  A    between atoms: C_1  and  O_2
REMARK    2  A    between atoms: O_2  and  C_3
REMARK    3  A    between atoms: C_4  and  O_5
REMARK    4  A    between atoms: C_9  and  O_10
REMARK    5  A    between atoms: C_13  and  C_14
REMARK    6  A    between atoms: C_14  and  O_15
REMARK    7  A    between atoms: C_16  and  O_17
REMARK    8  A    between atoms: C_18  and  O_19
REMARK                            x       y       z     vdW  Elec       q    Type
REMARK                         _______ _______ _______ _____ _____    ______ ____
ROOT
ATOM      1  C   UNL     1      -1.150   2.447 -22.283  0.00  0.00    +0.203 A 
ATOM      2  C   UNL     1      -1.491   3.176 -23.304  0.00  0.00    +0.163 A 
ATOM      3  C   UNL     1      -0.591   3.555 -24.162  0.00  0.00    +0.064 A 
ATOM      4  C   UNL     1       0.650   3.204 -23.999  0.00  0.00    +0.072 A 
ATOM      5  C   UNL     1       0.991   2.475 -22.978  0.00  0.00    +0.044 A 
ATOM      6  C   UNL     1       2.232   2.125 -22.815  0.00  0.00    +0.196 C 
ATOM      7  O   UNL     1       2.573   1.396 -21.794  0.00  0.00    -0.360 OA
ATOM      8  C   UNL     1       3.815   1.046 -21.631  0.00  0.00    +0.175 C 
ATOM      9  C   UNL     1       4.715   1.425 -22.489  0.00  0.00    +0.178 C 
ATOM     10  C   UNL     1       4.374   2.153 -23.510  0.00  0.00    +0.189 C 
ATOM     11  C   UNL     1       3.132   2.504 -23.673  0.00  0.00    +0.241 C 
ATOM     12  O   UNL     1       2.791   3.233 -24.694  0.00  0.00    -0.452 OA
ATOM     13  C   UNL     1       1.550   3.583 -24.857  0.00  0.00    +0.340 C 
ATOM     14  O   UNL     1       1.209   4.312 -25.878  0.00  0.00    -0.245 OA
ATOM     15  C   UNL     1       0.091   2.097 -22.120  0.00  0.00    +0.169 A 
ENDROOT
BRANCH   1  17
ATOM     16  C   UNL     1      -2.596   2.939 -20.628  0.00  0.00    +0.277 C 
ATOM     17  O   UNL     1      -2.051   2.068 -21.425  0.00  0.00    -0.489 OA
ENDBRANCH   1  17
BRANCH  10  18
ATOM     18  O   UNL     1       5.274   2.532 -24.368  0.00  0.00    -0.385 OA
ATOM     19  H   UNL     1       5.428   3.486 -24.274  0.00  0.00    +0.210 HD
ENDBRANCH  10  18
BRANCH   9  20
ATOM     20  O   UNL     1       5.956   1.074 -22.326  0.00  0.00    -0.386 OA
ATOM     21  H   UNL     1       6.204   1.187 -21.395  0.00  0.00    +0.210 HD
ENDBRANCH   9  20
BRANCH  15  22
ATOM     22  O   UNL     1       0.432   1.368 -21.099  0.00  0.00    -0.503 OA
ATOM     23  H   UNL     1       0.142   1.601 -20.239  0.00  0.00    +0.292 HD
ENDBRANCH  15  22
BRANCH   2  24
ATOM     24  O   UNL     1      -2.733   3.526 -23.467  0.00  0.00    -0.503 OA
ATOM     25  H   UNL     1      -3.090   4.233 -22.966  0.00  0.00    +0.292 HD
ENDBRANCH   2  24
BRANCH   8  26
ATOM     26  C   UNL     1       4.156   0.317 -20.611  0.00  0.00    +0.190 C 
BRANCH  26  27
ATOM     27  O   UNL     1       5.152   0.679 -19.857  0.00  0.00    -0.392 OA
ATOM     28  H   UNL     1       5.124   1.639 -19.722  0.00  0.00    +0.210 HD
ENDBRANCH  26  27
ENDBRANCH   8  26
TORSDOF 7
ENDMDL
MODEL 4
REMARK VINA RESULT:    -8.264      1.351      3.764
REMARK INTER + INTRA:         -10.566
REMARK INTER:                 -10.561
REMARK INTRA:                  -0.004
REMARK UNBOUND:                -0.128
REMARK  Name = ZINC000036383807
REMARK  8 active torsions:
REMARK  status: ('A' for Active; 'I' for Inactive)
REMARK    1  A    between atoms: C_1  and  O_2
REMARK    2  A    between atoms: O_2  and  C_3
REMARK    3  A    between atoms: C_4  and  O_5
REMARK    4  A    between atoms: C_9  and  O_10
REMARK    5  A    between atoms: C_13  and  C_14
REMARK    6  A    between atoms: C_14  and  O_15
REMARK    7  A    between atoms: C_16  and  O_17
REMARK    8  A    between atoms: C_18  and  O_19
REMARK                            x       y       z     vdW  Elec       q    Type
REMARK                         _______ _______ _______ _____ _____    ______ ____
ROOT
ATOM      1  C   UNL     1      -3.370   3.031 -21.661  0.00  0.00    +0.203 A 
ATOM      2  C   UNL     1      -4.231   3.361 -22.578  0.00  0.00    +0.163 A 
ATOM      3  C   UNL     1      -3.846   3.496 -23.812  0.00  0.00    +0.064 A 
ATOM      4  C   UNL     1      -2.601   3.300 -24.129  0.00  0.00    +0.072 A 
ATOM      5  C   UNL     1      -1.740   2.969 -23.213  0.00  0.00    +0.044 A 
ATOM      6  C   UNL     1      -0.495   2.773 -23.531  0.00  0.00    +0.196 C 
ATOM      7  O   UNL     1       0.366   2.443 -22.615  0.00  0.00    -0.360 OA
ATOM      8  C   UNL     1       1.611   2.247 -22.932  0.00  0.00    +0.175 C 
ATOM      9  C   UNL     1       1.996   2.381 -24.167  0.00  0.00    +0.178 C 
ATOM     10  C   UNL     1       1.135   2.712 -25.083  0.00  0.00    +0.189 C 
ATOM     11  C   UNL     1      -0.110   2.908 -24.765  0.00  0.00    +0.241 C 
ATOM     12  O   UNL     1      -0.971   3.239 -25.682  0.00  0.00    -0.452 OA
ATOM     13  C   UNL     1      -2.216   3.435 -25.365  0.00  0.00    +0.340 C 
ATOM     14  O   UNL     1      -3.077   3.765 -26.281  0.00  0.00    -0.245 OA
ATOM     15  C   UNL     1      -2.125   2.835 -21.979  0.00  0.00    +0.169 A 
ENDROOT
BRANCH   1  17
ATOM     16  C   UNL     1      -3.402   3.776 -19.537  0.00  0.00    +0.277 C 
ATOM     17  O   UNL     1      -3.755   2.896 -20.426  0.00  0.00    -0.489 OA
ENDBRANCH   1  17
BRANCH  10  18
ATOM     18  O   UNL     1       1.519   2.847 -26.318  0.00  0.00    -0.385 OA
ATOM     19  H   UNL     1       0.918   3.453 -26.779  0.00  0.00    +0.210 HD
ENDBRANCH  10  18
BRANCH   9  20
ATOM     20  O   UNL     1       3.241   2.185 -24.484  0.00  0.00    -0.386 OA
ATOM     21  H   UNL     1       3.810   2.706 -23.896  0.00  0.00    +0.210 HD
ENDBRANCH   9  20
BRANCH  15  22
ATOM     22  O   UNL     1      -1.264   2.504 -21.062  0.00  0.00    -0.503 OA
ATOM     23  H   UNL     1      -1.366   2.823 -20.186  0.00  0.00    +0.292 HD
ENDBRANCH  15  22
BRANCH   2  24
ATOM     24  O   UNL     1      -5.476   3.557 -22.260  0.00  0.00    -0.503 OA
ATOM     25  H   UNL     1      -5.739   3.534 -21.361  0.00  0.00    +0.292 HD
ENDBRANCH   2  24
BRANCH   8  26
ATOM     26  C   UNL     1       2.471   1.916 -22.016  0.00  0.00    +0.190 C 
BRANCH  26  27
ATOM     27  O   UNL     1       3.395   2.759 -21.657  0.00  0.00    -0.392 OA
ATOM     28  H   UNL     1       4.268   2.367 -21.812  0.00  0.00    +0.210 HD
ENDBRANCH  26  27
ENDBRANCH   8  26
TORSDOF 7
ENDMDL
MODEL 5
REMARK VINA RESULT:    -8.208      1.406      6.175
REMARK INTER + INTRA:         -10.494
REMARK INTER:                 -10.439
REMARK INTRA:                  -0.055
REMARK UNBOUND:                -0.128
REMARK  Name = ZINC000036383807
REMARK  8 active torsions:
REMARK  status: ('A' for Active; 'I' for Inactive)
REMARK    1  A    between atoms: C_1  and  O_2
REMARK    2  A    between atoms: O_2  and  C_3
REMARK    3  A    between atoms: C_4  and  O_5
REMARK    4  A    between atoms: C_9  and  O_10
REMARK    5  A    between atoms: C_13  and  C_14
REMARK    6  A    between atoms: C_14  and  O_15
REMARK    7  A    between atoms: C_16  and  O_17
REMARK    8  A    between atoms: C_18  and  O_19
REMARK                            x       y       z     vdW  Elec       q    Type
REMARK                         _______ _______ _______ _____ _____    ______ ____
ROOT
ATOM      1  C   UNL     1       2.179   1.146 -22.511  0.00  0.00    +0.203 A 
ATOM      2  C   UNL     1       2.884   1.583 -23.512  0.00  0.00    +0.163 A 
ATOM      3  C   UNL     1       2.351   2.395 -24.376  0.00  0.00    +0.064 A 
ATOM      4  C   UNL     1       1.113   2.769 -24.239  0.00  0.00    +0.072 A 
ATOM      5  C   UNL     1       0.409   2.332 -23.238  0.00  0.00    +0.044 A 
ATOM      6  C   UNL     1      -0.829   2.706 -23.101  0.00  0.00    +0.196 C 
ATOM      7  O   UNL     1      -1.533   2.269 -22.100  0.00  0.00    -0.360 OA
ATOM      8  C   UNL     1      -2.771   2.643 -21.963  0.00  0.00    +0.175 C 
ATOM      9  C   UNL     1      -3.303   3.455 -22.827  0.00  0.00    +0.178 C 
ATOM     10  C   UNL     1      -2.599   3.892 -23.828  0.00  0.00    +0.189 C 
ATOM     11  C   UNL     1      -1.361   3.517 -23.965  0.00  0.00    +0.241 C 
ATOM     12  O   UNL     1      -0.657   3.955 -24.967  0.00  0.00    -0.452 OA
ATOM     13  C   UNL     1       0.581   3.581 -25.104  0.00  0.00    +0.340 C 
ATOM     14  O   UNL     1       1.285   4.018 -26.105  0.00  0.00    -0.245 OA
ATOM     15  C   UNL     1       0.942   1.520 -22.374  0.00  0.00    +0.169 A 
ENDROOT
BRANCH   1  17
ATOM     16  C   UNL     1       3.540   0.788 -20.752  0.00  0.00    +0.277 C 
ATOM     17  O   UNL     1       2.712   0.334 -21.646  0.00  0.00    -0.489 OA
ENDBRANCH   1  17
BRANCH  10  18
ATOM     18  O   UNL     1      -3.132   4.704 -24.693  0.00  0.00    -0.385 OA
ATOM     19  H   UNL     1      -4.091   4.742 -24.552  0.00  0.00    +0.210 HD
ENDBRANCH  10  18
BRANCH   9  20
ATOM     20  O   UNL     1      -4.541   3.829 -22.691  0.00  0.00    -0.386 OA
ATOM     21  H   UNL     1      -4.613   4.779 -22.870  0.00  0.00    +0.210 HD
ENDBRANCH   9  20
BRANCH  15  22
ATOM     22  O   UNL     1       0.237   1.083 -21.372  0.00  0.00    -0.503 OA
ATOM     23  H   UNL     1      -0.608   0.706 -21.522  0.00  0.00    +0.292 HD
ENDBRANCH  15  22
BRANCH   2  24
ATOM     24  O   UNL     1       4.121   1.209 -23.648  0.00  0.00    -0.503 OA
ATOM     25  H   UNL     1       4.675   1.639 -24.270  0.00  0.00    +0.292 HD
ENDBRANCH   2  24
BRANCH   8  26
ATOM     26  C   UNL     1      -3.475   2.206 -20.962  0.00  0.00    +0.190 C 
BRANCH  26  27
ATOM     27  O   UNL     1      -3.738   2.991 -19.960  0.00  0.00    -0.392 OA
ATOM     28  H   UNL     1      -4.216   2.495 -19.277  0.00  0.00    +0.210 HD
ENDBRANCH  26  27
ENDBRANCH   8  26
TORSDOF 7
ENDMDL
MODEL 6
REMARK VINA RESULT:    -7.798      1.261      5.188
REMARK INTER + INTRA:          -9.977
REMARK INTER:                  -9.863
REMARK INTRA:                  -0.114
REMARK UNBOUND:                -0.128
REMARK  Name = ZINC000036383807
REMARK  8 active torsions:
REMARK  status: ('A' for Active; 'I' for Inactive)
REMARK    1  A    between atoms: C_1  and  O_2
REMARK    2  A    between atoms: O_2  and  C_3
REMARK    3  A    between atoms: C_4  and  O_5
REMARK    4  A    between atoms: C_9  and  O_10
REMARK    5  A    between atoms: C_13  and  C_14
REMARK    6  A    between atoms: C_14  and  O_15
REMARK    7  A    between atoms: C_16  and  O_17
REMARK    8  A    between atoms: C_18  and  O_19
REMARK                            x       y       z     vdW  Elec       q    Type
REMARK                         _______ _______ _______ _____ _____    ______ ____
ROOT
ATOM      1  C   UNL     1       1.415   2.396 -24.677  0.00  0.00    +0.203 A 
ATOM      2  C   UNL     1       2.110   1.922 -23.686  0.00  0.00    +0.163 A 
ATOM      3  C   UNL     1       1.550   1.738 -22.528  0.00  0.00    +0.064 A 
ATOM      4  C   UNL     1       0.294   2.027 -22.361  0.00  0.00    +0.072 A 
ATOM      5  C   UNL     1      -0.402   2.501 -23.351  0.00  0.00    +0.044 A 
ATOM      6  C   UNL     1      -1.658   2.791 -23.183  0.00  0.00    +0.196 C 
ATOM      7  O   UNL     1      -2.354   3.265 -24.174  0.00  0.00    -0.360 OA
ATOM      8  C   UNL     1      -3.610   3.555 -24.006  0.00  0.00    +0.175 C 
ATOM      9  C   UNL     1      -4.171   3.370 -22.848  0.00  0.00    +0.178 C 
ATOM     10  C   UNL     1      -3.475   2.896 -21.858  0.00  0.00    +0.189 C 
ATOM     11  C   UNL     1      -2.219   2.607 -22.025  0.00  0.00    +0.241 C 
ATOM     12  O   UNL     1      -1.523   2.132 -21.034  0.00  0.00    -0.452 OA
ATOM     13  C   UNL     1      -0.267   1.843 -21.202  0.00  0.00    +0.340 C 
ATOM     14  O   UNL     1       0.429   1.369 -20.211  0.00  0.00    -0.245 OA
ATOM     15  C   UNL     1       0.158   2.686 -24.509  0.00  0.00    +0.169 A 
ENDROOT
BRANCH   1  17
ATOM     16  C   UNL     1       2.019   1.609 -26.698  0.00  0.00    +0.277 C 
ATOM     17  O   UNL     1       1.975   2.581 -25.836  0.00  0.00    -0.489 OA
ENDBRANCH   1  17
BRANCH  10  18
ATOM     18  O   UNL     1      -4.035   2.712 -20.699  0.00  0.00    -0.385 OA
ATOM     19  H   UNL     1      -4.078   1.761 -20.509  0.00  0.00    +0.210 HD
ENDBRANCH  10  18
BRANCH   9  20
ATOM     20  O   UNL     1      -5.427   3.660 -22.680  0.00  0.00    -0.386 OA
ATOM     21  H   UNL     1      -5.711   4.278 -23.371  0.00  0.00    +0.210 HD
ENDBRANCH   9  20
BRANCH  15  22
ATOM     22  O   UNL     1      -0.537   3.160 -25.500  0.00  0.00    -0.503 OA
ATOM     23  H   UNL     1      -1.473   3.186 -25.446  0.00  0.00    +0.292 HD
ENDBRANCH  15  22
BRANCH   2  24
ATOM     24  O   UNL     1       3.367   1.632 -23.854  0.00  0.00    -0.503 OA
ATOM     25  H   UNL     1       3.959   1.678 -23.129  0.00  0.00    +0.292 HD
ENDBRANCH   2  24
BRANCH   8  26
ATOM     26  C   UNL     1      -4.306   4.029 -24.996  0.00  0.00    +0.190 C 
BRANCH  26  27
ATOM     27  O   UNL     1      -4.530   5.307 -25.081  0.00  0.00    -0.392 OA
ATOM     28  H   UNL     1      -3.703   5.766 -25.297  0.00  0.00    +0.210 HD
ENDBRANCH  26  27
ENDBRANCH   8  26
TORSDOF 7
ENDMDL
MODEL 7
REMARK VINA RESULT:    -7.632      2.908      6.493
REMARK INTER + INTRA:          -9.767
REMARK INTER:                  -9.829
REMARK INTRA:                   0.061
REMARK UNBOUND:                -0.128
REMARK  Name = ZINC000036383807
REMARK  8 active torsions:
REMARK  status: ('A' for Active; 'I' for Inactive)
REMARK    1  A    between atoms: C_1  and  O_2
REMARK    2  A    between atoms: O_2  and  C_3
REMARK    3  A    between atoms: C_4  and  O_5
REMARK    4  A    between atoms: C_9  and  O_10
REMARK    5  A    between atoms: C_13  and  C_14
REMARK    6  A    between atoms: C_14  and  O_15
REMARK    7  A    between atoms: C_16  and  O_17
REMARK    8  A    between atoms: C_18  and  O_19
REMARK                            x       y       z     vdW  Elec       q    Type
REMARK                         _______ _______ _______ _____ _____    ______ ____
ROOT
ATOM      1  C   UNL     1       5.241   3.879 -22.763  0.00  0.00    +0.203 A 
ATOM      2  C   UNL     1       5.868   2.904 -22.175  0.00  0.00    +0.163 A 
ATOM      3  C   UNL     1       5.200   1.898 -21.695  0.00  0.00    +0.064 A 
ATOM      4  C   UNL     1       3.905   1.867 -21.803  0.00  0.00    +0.072 A 
ATOM      5  C   UNL     1       3.278   2.842 -22.390  0.00  0.00    +0.044 A 
ATOM      6  C   UNL     1       1.983   2.812 -22.498  0.00  0.00    +0.196 C 
ATOM      7  O   UNL     1       1.356   3.787 -23.085  0.00  0.00    -0.360 OA
ATOM      8  C   UNL     1       0.061   3.756 -23.193  0.00  0.00    +0.175 C 
ATOM      9  C   UNL     1      -0.608   2.750 -22.713  0.00  0.00    +0.178 C 
ATOM     10  C   UNL     1       0.019   1.775 -22.125  0.00  0.00    +0.189 C 
ATOM     11  C   UNL     1       1.314   1.806 -22.018  0.00  0.00    +0.241 C 
ATOM     12  O   UNL     1       1.941   0.829 -21.430  0.00  0.00    -0.452 OA
ATOM     13  C   UNL     1       3.236   0.860 -21.322  0.00  0.00    +0.340 C 
ATOM     14  O   UNL     1       3.863  -0.115 -20.735  0.00  0.00    -0.245 OA
ATOM     15  C   UNL     1       3.946   3.848 -22.870  0.00  0.00    +0.169 A 
ENDROOT
BRANCH   1  17
ATOM     16  C   UNL     1       6.267   5.861 -22.461  0.00  0.00    +0.277 C 
ATOM     17  O   UNL     1       5.910   4.886 -23.243  0.00  0.00    -0.489 OA
ENDBRANCH   1  17
BRANCH  10  18
ATOM     18  O   UNL     1      -0.649   0.768 -21.645  0.00  0.00    -0.385 OA
ATOM     19  H   UNL     1      -0.827   0.919 -20.703  0.00  0.00    +0.210 HD
ENDBRANCH  10  18
BRANCH   9  20
ATOM     20  O   UNL     1      -1.903   2.719 -22.820  0.00  0.00    -0.386 OA
ATOM     21  H   UNL     1      -2.302   2.768 -21.938  0.00  0.00    +0.210 HD
ENDBRANCH   9  20
BRANCH  15  22
ATOM     22  O   UNL     1       3.319   4.824 -23.458  0.00  0.00    -0.503 OA
ATOM     23  H   UNL     1       2.774   5.400 -22.959  0.00  0.00    +0.292 HD
ENDBRANCH  15  22
BRANCH   2  24
ATOM     24  O   UNL     1       7.163   2.934 -22.068  0.00  0.00    -0.503 OA
ATOM     25  H   UNL     1       7.683   3.287 -22.763  0.00  0.00    +0.292 HD
ENDBRANCH   2  24
BRANCH   8  26
ATOM     26  C   UNL     1      -0.566   4.731 -23.780  0.00  0.00    +0.190 C 
BRANCH  26  27
ATOM     27  O   UNL     1      -0.334   5.961 -23.426  0.00  0.00    -0.392 OA
ATOM     28  H   UNL     1      -1.158   6.371 -23.122  0.00  0.00    +0.210 HD
ENDBRANCH  26  27
ENDBRANCH   8  26
TORSDOF 7
ENDMDL
MODEL 8
REMARK VINA RESULT:    -7.427      3.690      5.536
REMARK INTER + INTRA:          -9.508
REMARK INTER:                  -9.425
REMARK INTRA:                  -0.083
REMARK UNBOUND:                -0.128
REMARK  Name = ZINC000036383807
REMARK  8 active torsions:
REMARK  status: ('A' for Active; 'I' for Inactive)
REMARK    1  A    between atoms: C_1  and  O_2
REMARK    2  A    between atoms: O_2  and  C_3
REMARK    3  A    between atoms: C_4  and  O_5
REMARK    4  A    between atoms: C_9  and  O_10
REMARK    5  A    between atoms: C_13  and  C_14
REMARK    6  A    between atoms: C_14  and  O_15
REMARK    7  A    between atoms: C_16  and  O_17
REMARK    8  A    between atoms: C_18  and  O_19
REMARK                            x       y       z     vdW  Elec       q    Type
REMARK                         _______ _______ _______ _____ _____    ______ ____
ROOT
ATOM      1  C   UNL     1       0.749   4.405 -23.895  0.00  0.00    +0.203 A 
ATOM      2  C   UNL     1       0.435   3.234 -24.365  0.00  0.00    +0.163 A 
ATOM      3  C   UNL     1       1.341   2.307 -24.454  0.00  0.00    +0.064 A 
ATOM      4  C   UNL     1       2.560   2.549 -24.073  0.00  0.00    +0.072 A 
ATOM      5  C   UNL     1       2.873   3.720 -23.604  0.00  0.00    +0.044 A 
ATOM      6  C   UNL     1       4.092   3.963 -23.223  0.00  0.00    +0.196 C 
ATOM      7  O   UNL     1       4.406   5.134 -22.753  0.00  0.00    -0.360 OA
ATOM      8  C   UNL     1       5.625   5.377 -22.372  0.00  0.00    +0.175 C 
ATOM      9  C   UNL     1       6.530   4.449 -22.461  0.00  0.00    +0.178 C 
ATOM     10  C   UNL     1       6.217   3.278 -22.931  0.00  0.00    +0.189 C 
ATOM     11  C   UNL     1       4.998   3.035 -23.312  0.00  0.00    +0.241 C 
ATOM     12  O   UNL     1       4.685   1.864 -23.782  0.00  0.00    -0.452 OA
ATOM     13  C   UNL     1       3.466   1.621 -24.163  0.00  0.00    +0.340 C 
ATOM     14  O   UNL     1       3.153   0.450 -24.633  0.00  0.00    -0.245 OA
ATOM     15  C   UNL     1       1.968   4.648 -23.514  0.00  0.00    +0.169 A 
ENDROOT
BRANCH   1  17
ATOM     16  C   UNL     1      -1.006   5.321 -22.821  0.00  0.00    +0.277 C 
ATOM     17  O   UNL     1      -0.157   5.334 -23.806  0.00  0.00    -0.489 OA
ENDBRANCH   1  17
BRANCH  10  18
ATOM     18  O   UNL     1       7.123   2.349 -23.020  0.00  0.00    -0.385 OA
ATOM     19  H   UNL     1       7.187   1.878 -22.174  0.00  0.00    +0.210 HD
ENDBRANCH  10  18
BRANCH   9  20
ATOM     20  O   UNL     1       7.749   4.692 -22.080  0.00  0.00    -0.386 OA
ATOM     21  H   UNL     1       7.774   4.788 -21.116  0.00  0.00    +0.210 HD
ENDBRANCH   9  20
BRANCH  15  22
ATOM     22  O   UNL     1       2.281   5.819 -23.044  0.00  0.00    -0.503 OA
ATOM     23  H   UNL     1       2.180   6.582 -23.580  0.00  0.00    +0.292 HD
ENDBRANCH  15  22
BRANCH   2  24
ATOM     24  O   UNL     1      -0.784   2.991 -24.746  0.00  0.00    -0.503 OA
ATOM     25  H   UNL     1      -1.505   3.324 -24.249  0.00  0.00    +0.292 HD
ENDBRANCH   2  24
BRANCH   8  26
ATOM     26  C   UNL     1       5.938   6.547 -21.902  0.00  0.00    +0.190 C 
BRANCH  26  27
ATOM     27  O   UNL     1       6.083   6.716 -20.621  0.00  0.00    -0.392 OA
ATOM     28  H   UNL     1       6.060   5.855 -20.177  0.00  0.00    +0.210 HD
ENDBRANCH  26  27
ENDBRANCH   8  26
TORSDOF 7
ENDMDL
MODEL 9
REMARK VINA RESULT:    -7.283      4.480      7.613
REMARK INTER + INTRA:          -9.327
REMARK INTER:                  -9.199
REMARK INTRA:                  -0.128
REMARK UNBOUND:                -0.128
REMARK  Name = ZINC000036383807
REMARK  8 active torsions:
REMARK  status: ('A' for Active; 'I' for Inactive)
REMARK    1  A    between atoms: C_1  and  O_2
REMARK    2  A    between atoms: O_2  and  C_3
REMARK    3  A    between atoms: C_4  and  O_5
REMARK    4  A    between atoms: C_9  and  O_10
REMARK    5  A    between atoms: C_13  and  C_14
REMARK    6  A    between atoms: C_14  and  O_15
REMARK    7  A    between atoms: C_16  and  O_17
REMARK    8  A    between atoms: C_18  and  O_19
REMARK                            x       y       z     vdW  Elec       q    Type
REMARK                         _______ _______ _______ _____ _____    ______ ____
ROOT
ATOM      1  C   UNL     1       7.146   3.916 -23.098  0.00  0.00    +0.203 A 
ATOM      2  C   UNL     1       7.431   4.989 -22.423  0.00  0.00    +0.163 A 
ATOM      3  C   UNL     1       6.490   5.830 -22.112  0.00  0.00    +0.064 A 
ATOM      4  C   UNL     1       5.264   5.598 -22.476  0.00  0.00    +0.072 A 
ATOM      5  C   UNL     1       4.979   4.524 -23.151  0.00  0.00    +0.044 A 
ATOM      6  C   UNL     1       3.753   4.291 -23.515  0.00  0.00    +0.196 C 
ATOM      7  O   UNL     1       3.468   3.218 -24.190  0.00  0.00    -0.360 OA
ATOM      8  C   UNL     1       2.242   2.985 -24.554  0.00  0.00    +0.175 C 
ATOM      9  C   UNL     1       1.301   3.826 -24.243  0.00  0.00    +0.178 C 
ATOM     10  C   UNL     1       1.586   4.900 -23.568  0.00  0.00    +0.189 C 
ATOM     11  C   UNL     1       2.812   5.133 -23.204  0.00  0.00    +0.241 C 
ATOM     12  O   UNL     1       3.097   6.207 -22.529  0.00  0.00    -0.452 OA
ATOM     13  C   UNL     1       4.323   6.440 -22.165  0.00  0.00    +0.340 C 
ATOM     14  O   UNL     1       4.609   7.513 -21.491  0.00  0.00    -0.245 OA
ATOM     15  C   UNL     1       5.920   3.683 -23.462  0.00  0.00    +0.169 A 
ENDROOT
BRANCH   1  17
ATOM     16  C   UNL     1       8.742   3.214 -24.523  0.00  0.00    +0.277 C 
ATOM     17  O   UNL     1       8.087   3.074 -23.409  0.00  0.00    -0.489 OA
ENDBRANCH   1  17
BRANCH  10  18
ATOM     18  O   UNL     1       0.645   5.742 -23.257  0.00  0.00    -0.385 OA
ATOM     19  H   UNL     1       0.710   5.965 -22.315  0.00  0.00    +0.210 HD
ENDBRANCH  10  18
BRANCH   9  20
ATOM     20  O   UNL     1       0.075   3.594 -24.607  0.00  0.00    -0.386 OA
ATOM     21  H   UNL     1      -0.497   4.312 -24.295  0.00  0.00    +0.210 HD
ENDBRANCH   9  20
BRANCH  15  22
ATOM     22  O   UNL     1       5.635   2.608 -24.137  0.00  0.00    -0.503 OA
ATOM     23  H   UNL     1       5.815   1.764 -23.772  0.00  0.00    +0.292 HD
ENDBRANCH  15  22
BRANCH   2  24
ATOM     24  O   UNL     1       8.657   5.222 -22.059  0.00  0.00    -0.503 OA
ATOM     25  H   UNL     1       9.137   5.926 -22.450  0.00  0.00    +0.292 HD
ENDBRANCH   2  24
BRANCH   8  26
ATOM     26  C   UNL     1       1.956   1.911 -25.228  0.00  0.00    +0.190 C 
BRANCH  26  27
ATOM     27  O   UNL     1       1.678   1.995 -26.496  0.00  0.00    -0.392 OA
ATOM     28  H   UNL     1       1.872   1.147 -26.926  0.00  0.00    +0.210 HD
ENDBRANCH  26  27
ENDBRANCH   8  26
TORSDOF 7
ENDMDL
