MODEL 1
REMARK VINA RESULT:   -10.295      0.000      0.000
REMARK INTER + INTRA:          -9.584
REMARK INTER:                 -10.901
REMARK INTRA:                   1.317
REMARK UNBOUND:                 1.313
REMARK  Name = CC(=O)O[C@@H]1CCC2=C[C@@H](OC2=O)c2c(C)coc2C=C1C                     ZINC001078928924
REMARK  5 active torsions:
REMARK  status: ('A' for Active; 'I' for Inactive)
REMARK    1  A    between atoms: C_1  and  C_2
REMARK    2  A    between atoms: C_2  and  O_4
REMARK    3  A    between atoms: O_4  and  C_5
REMARK    4  A    between atoms: C_15  and  C_16
REMARK    5  A    between atoms: C_21  and  C_22
REMARK                            x       y       z     vdW  Elec       q    Type
REMARK                         _______ _______ _______ _____ _____    ______ ____
ROOT
ATOM      1  C   UNL     1      -1.810   2.665 -22.784  0.00  0.00    +0.203 C 
ATOM      2  C   UNL     1      -2.203   3.271 -23.884  0.00  0.00    +0.054 C 
ATOM      3  C   UNL     1      -1.301   3.661 -24.760  0.00  0.00    +0.046 C 
ATOM      4  C   UNL     1      -0.059   3.428 -24.496  0.00  0.00    +0.037 C 
ATOM      5  C   UNL     1       0.225   2.825 -23.386  0.00  0.00    +0.032 C 
ATOM      6  C   UNL     1       1.510   2.690 -23.315  0.00  0.00    +0.234 C 
ATOM      7  C   UNL     1       1.982   2.073 -22.204  0.00  0.00    +0.045 A 
ATOM      8  C   UNL     1       3.169   1.763 -21.784  0.00  0.00    -0.005 A 
ATOM      9  C   UNL     1       3.047   1.172 -20.639  0.00  0.00    +0.199 A 
ATOM     10  O   UNL     1       1.785   1.116 -20.348  0.00  0.00    -0.463 OA
ATOM     11  C   UNL     1       4.281   2.004 -22.405  0.00  0.00    +0.047 C 
ATOM     12  C   UNL     1       1.128   1.672 -21.315  0.00  0.00    +0.135 A 
ATOM     13  C   UNL     1      -0.140   1.868 -21.505  0.00  0.00    +0.049 C 
ATOM     14  O   UNL     1       2.023   3.213 -24.387  0.00  0.00    -0.449 OA
ATOM     15  C   UNL     1       1.054   3.667 -25.114  0.00  0.00    +0.336 C 
ATOM     16  O   UNL     1       1.174   4.258 -26.261  0.00  0.00    -0.245 OA
ATOM     17  C   UNL     1      -0.544   2.464 -22.583  0.00  0.00    -0.029 C 
ATOM     18  C   UNL     1      -1.408   2.066 -21.700  0.00  0.00    +0.043 C 
ENDROOT
BRANCH   1  19
ATOM     19  O   UNL     1      -2.675   2.264 -21.893  0.00  0.00    -0.457 OA
BRANCH  19  21
ATOM     20  C   UNL     1      -3.032   3.770 -20.270  0.00  0.00    +0.136 C 
ATOM     21  C   UNL     1      -3.456   3.110 -21.304  0.00  0.00    +0.305 C 
ATOM     22  O   UNL     1      -4.655   3.297 -21.744  0.00  0.00    -0.251 OA
ENDBRANCH  19  21
ENDBRANCH   1  19
TORSDOF 2
ENDMDL
MODEL 2
REMARK VINA RESULT:    -9.919      1.706      5.006
REMARK INTER + INTRA:          -9.186
REMARK INTER:                 -10.449
REMARK INTRA:                   1.264
REMARK UNBOUND:                 1.313
REMARK  Name = CC(=O)O[C@@H]1CCC2=C[C@@H](OC2=O)c2c(C)coc2C=C1C                     ZINC001078928924
REMARK  5 active torsions:
REMARK  status: ('A' for Active; 'I' for Inactive)
REMARK    1  A    between atoms: C_1  and  C_2
REMARK    2  A    between atoms: C_2  and  O_4
REMARK    3  A    between atoms: O_4  and  C_5
REMARK    4  A    between atoms: C_15  and  C_16
REMARK    5  A    between atoms: C_21  and  C_22
REMARK                            x       y       z     vdW  Elec       q    Type
REMARK                         _______ _______ _______ _____ _____    ______ ____
ROOT
ATOM      1  C   UNL     1       0.357   3.151 -23.774  0.00  0.00    +0.203 C 
ATOM      2  C   UNL     1       0.555   3.293 -25.067  0.00  0.00    +0.054 C 
ATOM      3  C   UNL     1      -0.483   3.425 -25.865  0.00  0.00    +0.046 C 
ATOM      4  C   UNL     1      -1.660   3.410 -25.335  0.00  0.00    +0.037 C 
ATOM      5  C   UNL     1      -1.750   3.265 -24.052  0.00  0.00    +0.032 C 
ATOM      6  C   UNL     1      -3.002   3.276 -23.728  0.00  0.00    +0.234 C 
ATOM      7  C   UNL     1      -3.276   3.135 -22.408  0.00  0.00    +0.045 A 
ATOM      8  C   UNL     1      -4.372   3.097 -21.716  0.00  0.00    -0.005 A 
ATOM      9  C   UNL     1      -4.054   2.941 -20.471  0.00  0.00    +0.199 A 
ATOM     10  O   UNL     1      -2.763   2.881 -20.389  0.00  0.00    -0.463 OA
ATOM     11  C   UNL     1      -5.573   3.199 -22.192  0.00  0.00    +0.047 C 
ATOM     12  C   UNL     1      -2.282   3.001 -21.586  0.00  0.00    +0.135 A 
ATOM     13  C   UNL     1      -1.066   3.006 -22.038  0.00  0.00    +0.049 C 
ATOM     14  O   UNL     1      -3.691   3.429 -24.817  0.00  0.00    -0.449 OA
ATOM     15  C   UNL     1      -2.862   3.511 -25.807  0.00  0.00    +0.336 C 
ATOM     16  O   UNL     1      -3.178   3.668 -27.054  0.00  0.00    -0.245 OA
ATOM     17  C   UNL     1      -0.854   3.145 -23.310  0.00  0.00    -0.029 C 
ATOM     18  C   UNL     1       0.148   3.012 -22.496  0.00  0.00    +0.043 C 
ENDROOT
BRANCH   1  19
ATOM     19  O   UNL     1       1.362   3.017 -22.952  0.00  0.00    -0.457 OA
BRANCH  19  21
ATOM     20  C   UNL     1       3.372   2.080 -23.291  0.00  0.00    +0.136 C 
ATOM     21  C   UNL     1       2.114   1.965 -22.994  0.00  0.00    +0.305 C 
ATOM     22  O   UNL     1       1.613   0.802 -22.741  0.00  0.00    -0.251 OA
ENDBRANCH  19  21
ENDBRANCH   1  19
TORSDOF 2
ENDMDL
MODEL 3
REMARK VINA RESULT:    -9.722      1.703      5.913
REMARK INTER + INTRA:          -8.978
REMARK INTER:                 -10.319
REMARK INTRA:                   1.341
REMARK UNBOUND:                 1.313
REMARK  Name = CC(=O)O[C@@H]1CCC2=C[C@@H](OC2=O)c2c(C)coc2C=C1C                     ZINC001078928924
REMARK  5 active torsions:
REMARK  status: ('A' for Active; 'I' for Inactive)
REMARK    1  A    between atoms: C_1  and  C_2
REMARK    2  A    between atoms: C_2  and  O_4
REMARK    3  A    between atoms: O_4  and  C_5
REMARK    4  A    between atoms: C_15  and  C_16
REMARK    5  A    between atoms: C_21  and  C_22
REMARK                            x       y       z     vdW  Elec       q    Type
REMARK                         _______ _______ _______ _____ _____    ______ ____
ROOT
ATOM      1  C   UNL     1       0.183   2.450 -22.803  0.00  0.00    +0.203 C 
ATOM      2  C   UNL     1       0.093   2.164 -21.522  0.00  0.00    +0.054 C 
ATOM      3  C   UNL     1      -1.091   2.159 -20.946  0.00  0.00    +0.046 C 
ATOM      4  C   UNL     1      -2.120   2.439 -21.674  0.00  0.00    +0.037 C 
ATOM      5  C   UNL     1      -1.926   2.707 -22.926  0.00  0.00    +0.032 C 
ATOM      6  C   UNL     1      -3.073   2.958 -23.469  0.00  0.00    +0.234 C 
ATOM      7  C   UNL     1      -3.051   3.261 -24.791  0.00  0.00    +0.045 A 
ATOM      8  C   UNL     1      -3.966   3.561 -25.659  0.00  0.00    -0.005 A 
ATOM      9  C   UNL     1      -3.385   3.761 -26.799  0.00  0.00    +0.199 A 
ATOM     10  O   UNL     1      -2.112   3.585 -26.638  0.00  0.00    -0.463 OA
ATOM     11  C   UNL     1      -5.238   3.644 -25.424  0.00  0.00    +0.047 C 
ATOM     12  C   UNL     1      -1.906   3.276 -25.397  0.00  0.00    +0.135 A 
ATOM     13  C   UNL     1      -0.822   3.006 -24.737  0.00  0.00    +0.049 C 
ATOM     14  O   UNL     1      -3.981   2.843 -22.549  0.00  0.00    -0.449 OA
ATOM     15  C   UNL     1      -3.391   2.524 -21.442  0.00  0.00    +0.336 C 
ATOM     16  O   UNL     1      -3.971   2.323 -20.301  0.00  0.00    -0.245 OA
ATOM     17  C   UNL     1      -0.894   2.722 -23.474  0.00  0.00    -0.029 C 
ATOM     18  C   UNL     1       0.258   2.735 -24.071  0.00  0.00    +0.043 C 
ENDROOT
BRANCH   1  19
ATOM     19  O   UNL     1       1.339   2.464 -23.408  0.00  0.00    -0.457 OA
BRANCH  19  21
ATOM     20  C   UNL     1       2.272   4.493 -23.623  0.00  0.00    +0.136 C 
ATOM     21  C   UNL     1       2.250   3.319 -23.071  0.00  0.00    +0.305 C 
ATOM     22  O   UNL     1       3.136   3.004 -22.186  0.00  0.00    -0.251 OA
ENDBRANCH  19  21
ENDBRANCH   1  19
TORSDOF 2
ENDMDL
MODEL 4
REMARK VINA RESULT:    -9.263      1.837      2.933
REMARK INTER + INTRA:          -8.492
REMARK INTER:                  -9.946
REMARK INTRA:                   1.454
REMARK UNBOUND:                 1.313
REMARK  Name = CC(=O)O[C@@H]1CCC2=C[C@@H](OC2=O)c2c(C)coc2C=C1C                     ZINC001078928924
REMARK  5 active torsions:
REMARK  status: ('A' for Active; 'I' for Inactive)
REMARK    1  A    between atoms: C_1  and  C_2
REMARK    2  A    between atoms: C_2  and  O_4
REMARK    3  A    between atoms: O_4  and  C_5
REMARK    4  A    between atoms: C_15  and  C_16
REMARK    5  A    between atoms: C_21  and  C_22
REMARK                            x       y       z     vdW  Elec       q    Type
REMARK                         _______ _______ _______ _____ _____    ______ ____
ROOT
ATOM      1  C   UNL     1      -4.001   3.674 -22.805  0.00  0.00    +0.203 C 
ATOM      2  C   UNL     1      -4.887   3.928 -23.744  0.00  0.00    +0.054 C 
ATOM      3  C   UNL     1      -4.507   3.924 -25.004  0.00  0.00    +0.046 C 
ATOM      4  C   UNL     1      -3.268   3.669 -25.263  0.00  0.00    +0.037 C 
ATOM      5  C   UNL     1      -2.474   3.432 -24.268  0.00  0.00    +0.032 C 
ATOM      6  C   UNL     1      -1.291   3.202 -24.739  0.00  0.00    +0.234 C 
ATOM      7  C   UNL     1      -0.329   2.934 -23.823  0.00  0.00    +0.045 A 
ATOM      8  C   UNL     1       0.936   2.661 -23.902  0.00  0.00    -0.005 A 
ATOM      9  C   UNL     1       1.384   2.487 -22.700  0.00  0.00    +0.199 A 
ATOM     10  O   UNL     1       0.398   2.651 -21.875  0.00  0.00    -0.463 OA
ATOM     11  C   UNL     1       1.628   2.579 -24.995  0.00  0.00    +0.047 C 
ATOM     12  C   UNL     1      -0.660   2.927 -22.570  0.00  0.00    +0.135 A 
ATOM     13  C   UNL     1      -1.886   3.174 -22.225  0.00  0.00    +0.049 C 
ATOM     14  O   UNL     1      -1.354   3.298 -26.032  0.00  0.00    -0.449 OA
ATOM     15  C   UNL     1      -2.574   3.585 -26.353  0.00  0.00    +0.336 C 
ATOM     16  O   UNL     1      -3.024   3.760 -27.556  0.00  0.00    -0.245 OA
ATOM     17  C   UNL     1      -2.771   3.426 -23.138  0.00  0.00    -0.029 C 
ATOM     18  C   UNL     1      -3.114   3.422 -21.886  0.00  0.00    +0.043 C 
ENDROOT
BRANCH   1  19
ATOM     19  O   UNL     1      -4.340   3.669 -21.545  0.00  0.00    -0.457 OA
BRANCH  19  21
ATOM     20  C   UNL     1      -4.452   1.871 -20.208  0.00  0.00    +0.136 C 
ATOM     21  C   UNL     1      -5.016   2.685 -21.048  0.00  0.00    +0.305 C 
ATOM     22  O   UNL     1      -6.250   2.512 -21.385  0.00  0.00    -0.251 OA
ENDBRANCH  19  21
ENDBRANCH   1  19
TORSDOF 2
ENDMDL
MODEL 5
REMARK VINA RESULT:    -8.898      1.712      2.010
REMARK INTER + INTRA:          -8.105
REMARK INTER:                  -9.480
REMARK INTRA:                   1.374
REMARK UNBOUND:                 1.313
REMARK  Name = CC(=O)O[C@@H]1CCC2=C[C@@H](OC2=O)c2c(C)coc2C=C1C                     ZINC001078928924
REMARK  5 active torsions:
REMARK  status: ('A' for Active; 'I' for Inactive)
REMARK    1  A    between atoms: C_1  and  C_2
REMARK    2  A    between atoms: C_2  and  O_4
REMARK    3  A    between atoms: O_4  and  C_5
REMARK    4  A    between atoms: C_15  and  C_16
REMARK    5  A    between atoms: C_21  and  C_22
REMARK                            x       y       z     vdW  Elec       q    Type
REMARK                         _______ _______ _______ _____ _____    ______ ____
ROOT
ATOM      1  C   UNL     1      -0.494   3.154 -23.245  0.00  0.00    +0.203 C 
ATOM      2  C   UNL     1      -0.720   4.396 -23.616  0.00  0.00    +0.054 C 
ATOM      3  C   UNL     1       0.269   5.264 -23.592  0.00  0.00    +0.046 C 
ATOM      4  C   UNL     1       1.429   4.850 -23.202  0.00  0.00    +0.037 C 
ATOM      5  C   UNL     1       1.549   3.608 -22.857  0.00  0.00    +0.032 C 
ATOM      6  C   UNL     1       2.776   3.402 -22.503  0.00  0.00    +0.234 C 
ATOM      7  C   UNL     1       3.076   2.140 -22.109  0.00  0.00    +0.045 A 
ATOM      8  C   UNL     1       4.160   1.562 -21.695  0.00  0.00    -0.005 A 
ATOM      9  C   UNL     1       3.884   0.321 -21.448  0.00  0.00    +0.199 A 
ATOM     10  O   UNL     1       2.629   0.129 -21.709  0.00  0.00    -0.463 OA
ATOM     11  C   UNL     1       5.317   2.130 -21.554  0.00  0.00    +0.047 C 
ATOM     12  C   UNL     1       2.131   1.253 -22.117  0.00  0.00    +0.135 A 
ATOM     13  C   UNL     1       0.936   1.588 -22.496  0.00  0.00    +0.049 C 
ATOM     14  O   UNL     1       3.418   4.522 -22.629  0.00  0.00    -0.449 OA
ATOM     15  C   UNL     1       2.586   5.415 -23.060  0.00  0.00    +0.336 C 
ATOM     16  O   UNL     1       2.861   6.657 -23.307  0.00  0.00    -0.245 OA
ATOM     17  C   UNL     1       0.697   2.808 -22.864  0.00  0.00    -0.029 C 
ATOM     18  C   UNL     1      -0.258   1.928 -22.876  0.00  0.00    +0.043 C 
ENDROOT
BRANCH   1  19
ATOM     19  O   UNL     1      -1.450   2.266 -23.255  0.00  0.00    -0.457 OA
BRANCH  19  21
ATOM     20  C   UNL     1      -2.662   2.293 -21.368  0.00  0.00    +0.136 C 
ATOM     21  C   UNL     1      -2.569   2.494 -22.647  0.00  0.00    +0.305 C 
ATOM     22  O   UNL     1      -3.591   2.920 -23.311  0.00  0.00    -0.251 OA
ENDBRANCH  19  21
ENDBRANCH   1  19
TORSDOF 2
ENDMDL
MODEL 6
REMARK VINA RESULT:    -8.753      2.599      6.552
REMARK INTER + INTRA:          -7.952
REMARK INTER:                  -9.218
REMARK INTRA:                   1.266
REMARK UNBOUND:                 1.313
REMARK  Name = CC(=O)O[C@@H]1CCC2=C[C@@H](OC2=O)c2c(C)coc2C=C1C                     ZINC001078928924
REMARK  5 active torsions:
REMARK  status: ('A' for Active; 'I' for Inactive)
REMARK    1  A    between atoms: C_1  and  C_2
REMARK    2  A    between atoms: C_2  and  O_4
REMARK    3  A    between atoms: O_4  and  C_5
REMARK    4  A    between atoms: C_15  and  C_16
REMARK    5  A    between atoms: C_21  and  C_22
REMARK                            x       y       z     vdW  Elec       q    Type
REMARK                         _______ _______ _______ _____ _____    ______ ____
ROOT
ATOM      1  C   UNL     1       5.245   3.917 -22.654  0.00  0.00    +0.203 C 
ATOM      2  C   UNL     1       5.969   3.001 -22.048  0.00  0.00    +0.054 C 
ATOM      3  C   UNL     1       5.377   1.928 -21.568  0.00  0.00    +0.046 C 
ATOM      4  C   UNL     1       4.098   1.824 -21.716  0.00  0.00    +0.037 C 
ATOM      5  C   UNL     1       3.476   2.780 -22.328  0.00  0.00    +0.032 C 
ATOM      6  C   UNL     1       2.217   2.484 -22.370  0.00  0.00    +0.234 C 
ATOM      7  C   UNL     1       1.414   3.388 -22.982  0.00  0.00    +0.045 A 
ATOM      8  C   UNL     1       0.140   3.445 -23.216  0.00  0.00    -0.005 A 
ATOM      9  C   UNL     1      -0.102   4.549 -23.847  0.00  0.00    +0.199 A 
ATOM     10  O   UNL     1       1.020   5.177 -24.004  0.00  0.00    -0.463 OA
ATOM     11  C   UNL     1      -0.735   2.550 -22.877  0.00  0.00    +0.047 C 
ATOM     12  C   UNL     1       1.956   4.459 -23.470  0.00  0.00    +0.135 A 
ATOM     13  C   UNL     1       3.237   4.640 -23.363  0.00  0.00    +0.049 C 
ATOM     14  O   UNL     1       2.061   1.338 -21.781  0.00  0.00    -0.449 OA
ATOM     15  C   UNL     1       3.222   0.933 -21.378  0.00  0.00    +0.336 C 
ATOM     16  O   UNL     1       3.466  -0.173 -20.747  0.00  0.00    -0.245 OA
ATOM     17  C   UNL     1       3.964   3.747 -22.768  0.00  0.00    -0.029 C 
ATOM     18  C   UNL     1       4.518   4.816 -23.252  0.00  0.00    +0.043 C 
ENDROOT
BRANCH   1  19
ATOM     19  O   UNL     1       5.797   4.994 -23.143  0.00  0.00    -0.457 OA
BRANCH  19  21
ATOM     20  C   UNL     1       7.608   6.145 -22.490  0.00  0.00    +0.136 C 
ATOM     21  C   UNL     1       6.347   5.866 -22.362  0.00  0.00    +0.305 C 
ATOM     22  O   UNL     1       5.642   6.459 -21.457  0.00  0.00    -0.251 OA
ENDBRANCH  19  21
ENDBRANCH   1  19
TORSDOF 2
ENDMDL
MODEL 7
REMARK VINA RESULT:    -8.711      1.181      4.790
REMARK INTER + INTRA:          -7.907
REMARK INTER:                  -9.845
REMARK INTRA:                   1.938
REMARK UNBOUND:                 1.313
REMARK  Name = CC(=O)O[C@@H]1CCC2=C[C@@H](OC2=O)c2c(C)coc2C=C1C                     ZINC001078928924
REMARK  5 active torsions:
REMARK  status: ('A' for Active; 'I' for Inactive)
REMARK    1  A    between atoms: C_1  and  C_2
REMARK    2  A    between atoms: C_2  and  O_4
REMARK    3  A    between atoms: O_4  and  C_5
REMARK    4  A    between atoms: C_15  and  C_16
REMARK    5  A    between atoms: C_21  and  C_22
REMARK                            x       y       z     vdW  Elec       q    Type
REMARK                         _______ _______ _______ _____ _____    ______ ____
ROOT
ATOM      1  C   UNL     1       2.107   1.846 -22.385  0.00  0.00    +0.203 C 
ATOM      2  C   UNL     1       3.012   2.202 -23.273  0.00  0.00    +0.054 C 
ATOM      3  C   UNL     1       2.645   2.925 -24.309  0.00  0.00    +0.046 C 
ATOM      4  C   UNL     1       1.401   3.255 -24.408  0.00  0.00    +0.037 C 
ATOM      5  C   UNL     1       0.588   2.856 -23.482  0.00  0.00    +0.032 C 
ATOM      6  C   UNL     1      -0.597   3.289 -23.767  0.00  0.00    +0.234 C 
ATOM      7  C   UNL     1      -1.577   2.957 -22.891  0.00  0.00    +0.045 A 
ATOM      8  C   UNL     1      -2.850   3.197 -22.835  0.00  0.00    -0.005 A 
ATOM      9  C   UNL     1      -3.316   2.634 -21.766  0.00  0.00    +0.199 A 
ATOM     10  O   UNL     1      -2.334   2.045 -21.160  0.00  0.00    -0.463 OA
ATOM     11  C   UNL     1      -3.533   3.881 -23.698  0.00  0.00    +0.047 C 
ATOM     12  C   UNL     1      -1.260   2.245 -21.856  0.00  0.00    +0.135 A 
ATOM     13  C   UNL     1      -0.029   1.871 -21.683  0.00  0.00    +0.049 C 
ATOM     14  O   UNL     1      -0.517   3.960 -24.875  0.00  0.00    -0.449 OA
ATOM     15  C   UNL     1       0.715   3.938 -25.269  0.00  0.00    +0.336 C 
ATOM     16  O   UNL     1       1.183   4.502 -26.338  0.00  0.00    -0.245 OA
ATOM     17  C   UNL     1       0.874   2.214 -22.548  0.00  0.00    -0.029 C 
ATOM     18  C   UNL     1       1.203   1.500 -21.514  0.00  0.00    +0.043 C 
ENDROOT
BRANCH   1  19
ATOM     19  O   UNL     1       2.433   1.129 -21.345  0.00  0.00    -0.457 OA
BRANCH  19  21
ATOM     20  C   UNL     1       4.275   0.015 -20.713  0.00  0.00    +0.136 C 
ATOM     21  C   UNL     1       3.645   1.135 -20.892  0.00  0.00    +0.305 C 
ATOM     22  O   UNL     1       4.228   2.255 -20.620  0.00  0.00    -0.251 OA
ENDBRANCH  19  21
ENDBRANCH   1  19
TORSDOF 2
ENDMDL
MODEL 8
REMARK VINA RESULT:    -8.279      2.123      5.330
REMARK INTER + INTRA:          -7.450
REMARK INTER:                  -8.822
REMARK INTRA:                   1.372
REMARK UNBOUND:                 1.313
REMARK  Name = CC(=O)O[C@@H]1CCC2=C[C@@H](OC2=O)c2c(C)coc2C=C1C                     ZINC001078928924
REMARK  5 active torsions:
REMARK  status: ('A' for Active; 'I' for Inactive)
REMARK    1  A    between atoms: C_1  and  C_2
REMARK    2  A    between atoms: C_2  and  O_4
REMARK    3  A    between atoms: O_4  and  C_5
REMARK    4  A    between atoms: C_15  and  C_16
REMARK    5  A    between atoms: C_21  and  C_22
REMARK                            x       y       z     vdW  Elec       q    Type
REMARK                         _______ _______ _______ _____ _____    ______ ____
ROOT
ATOM      1  C   UNL     1       3.891   2.164 -22.537  0.00  0.00    +0.203 C 
ATOM      2  C   UNL     1       4.886   3.018 -22.422  0.00  0.00    +0.054 C 
ATOM      3  C   UNL     1       4.649   4.304 -22.568  0.00  0.00    +0.046 C 
ATOM      4  C   UNL     1       3.438   4.672 -22.820  0.00  0.00    +0.037 C 
ATOM      5  C   UNL     1       2.529   3.755 -22.915  0.00  0.00    +0.032 C 
ATOM      6  C   UNL     1       1.397   4.329 -23.168  0.00  0.00    +0.234 C 
ATOM      7  C   UNL     1       0.329   3.505 -23.299  0.00  0.00    +0.045 A 
ATOM      8  C   UNL     1      -0.929   3.697 -23.546  0.00  0.00    -0.005 A 
ATOM      9  C   UNL     1      -1.515   2.542 -23.562  0.00  0.00    +0.199 A 
ATOM     10  O   UNL     1      -0.621   1.634 -23.326  0.00  0.00    -0.463 OA
ATOM     11  C   UNL     1      -1.497   4.845 -23.742  0.00  0.00    +0.047 C 
ATOM     12  C   UNL     1       0.518   2.230 -23.163  0.00  0.00    +0.135 A 
ATOM     13  C   UNL     1       1.707   1.777 -22.909  0.00  0.00    +0.049 C 
ATOM     14  O   UNL     1       1.608   5.608 -23.231  0.00  0.00    -0.449 OA
ATOM     15  C   UNL     1       2.867   5.818 -23.017  0.00  0.00    +0.336 C 
ATOM     16  O   UNL     1       3.454   6.973 -23.000  0.00  0.00    -0.245 OA
ATOM     17  C   UNL     1       2.698   2.605 -22.792  0.00  0.00    -0.029 C 
ATOM     18  C   UNL     1       2.898   1.330 -22.654  0.00  0.00    +0.043 C 
ENDROOT
BRANCH   1  19
ATOM     19  O   UNL     1       4.088   0.881 -22.399  0.00  0.00    -0.457 OA
BRANCH  19  21
ATOM     20  C   UNL     1       5.364  -0.036 -20.799  0.00  0.00    +0.136 C 
ATOM     21  C   UNL     1       4.201   0.354 -21.224  0.00  0.00    +0.305 C 
ATOM     22  O   UNL     1       3.160   0.215 -20.474  0.00  0.00    -0.251 OA
ENDBRANCH  19  21
ENDBRANCH   1  19
TORSDOF 2
ENDMDL
MODEL 9
REMARK VINA RESULT:    -7.879      2.430      4.804
REMARK INTER + INTRA:          -7.027
REMARK INTER:                  -8.339
REMARK INTRA:                   1.313
REMARK UNBOUND:                 1.313
REMARK  Name = CC(=O)O[C@@H]1CCC2=C[C@@H](OC2=O)c2c(C)coc2C=C1C                     ZINC001078928924
REMARK  5 active torsions:
REMARK  status: ('A' for Active; 'I' for Inactive)
REMARK    1  A    between atoms: C_1  and  C_2
REMARK    2  A    between atoms: C_2  and  O_4
REMARK    3  A    between atoms: O_4  and  C_5
REMARK    4  A    between atoms: C_15  and  C_16
REMARK    5  A    between atoms: C_21  and  C_22
REMARK                            x       y       z     vdW  Elec       q    Type
REMARK                         _______ _______ _______ _____ _____    ______ ____
ROOT
ATOM      1  C   UNL     1       1.299   3.227 -23.127  0.00  0.00    +0.203 C 
ATOM      2  C   UNL     1       0.729   2.114 -22.717  0.00  0.00    +0.054 C 
ATOM      3  C   UNL     1       1.438   1.245 -22.028  0.00  0.00    +0.046 C 
ATOM      4  C   UNL     1       2.674   1.529 -21.785  0.00  0.00    +0.037 C 
ATOM      5  C   UNL     1       3.141   2.650 -22.232  0.00  0.00    +0.032 C 
ATOM      6  C   UNL     1       4.384   2.740 -21.883  0.00  0.00    +0.234 C 
ATOM      7  C   UNL     1       5.031   3.865 -22.275  0.00  0.00    +0.045 A 
ATOM      8  C   UNL     1       6.241   4.305 -22.122  0.00  0.00    -0.005 A 
ATOM      9  C   UNL     1       6.326   5.457 -22.708  0.00  0.00    +0.199 A 
ATOM     10  O   UNL     1       5.169   5.732 -23.224  0.00  0.00    -0.463 OA
ATOM     11  C   UNL     1       7.197   3.696 -21.493  0.00  0.00    +0.047 C 
ATOM     12  C   UNL     1       4.370   4.748 -22.956  0.00  0.00    +0.135 A 
ATOM     13  C   UNL     1       3.122   4.539 -23.243  0.00  0.00    +0.049 C 
ATOM     14  O   UNL     1       4.686   1.669 -21.217  0.00  0.00    -0.449 OA
ATOM     15  C   UNL     1       3.631   0.923 -21.157  0.00  0.00    +0.336 C 
ATOM     16  O   UNL     1       3.545  -0.230 -20.571  0.00  0.00    -0.245 OA
ATOM     17  C   UNL     1       2.546   3.447 -22.846  0.00  0.00    -0.029 C 
ATOM     18  C   UNL     1       1.874   4.324 -23.527  0.00  0.00    +0.043 C 
ENDROOT
BRANCH   1  19
ATOM     19  O   UNL     1       0.627   4.112 -23.812  0.00  0.00    -0.457 OA
BRANCH  19  21
ATOM     20  C   UNL     1      -0.885   3.612 -25.392  0.00  0.00    +0.136 C 
ATOM     21  C   UNL     1       0.335   3.902 -25.055  0.00  0.00    +0.305 C 
ATOM     22  O   UNL     1       1.254   3.980 -25.958  0.00  0.00    -0.251 OA
ENDBRANCH  19  21
ENDBRANCH   1  19
TORSDOF 2
ENDMDL
