MODEL 1
REMARK VINA RESULT:   -12.046      0.000      0.000
REMARK INTER + INTRA:         -14.648
REMARK INTER:                 -13.997
REMARK INTRA:                  -0.651
REMARK UNBOUND:                 0.215
REMARK  Name = COc1ccc2c(c1Oc1nnnn1-c1ccccc1)[C@@]13C=CC=C[C@@H]1[C@H](C2)N(C)CC3   ZINC000100393801
REMARK  6 active torsions:
REMARK  status: ('A' for Active; 'I' for Inactive)
REMARK    1  A    between atoms: C_1  and  O_2
REMARK    2  A    between atoms: O_2  and  C_3
REMARK    3  A    between atoms: C_8  and  O_9
REMARK    4  A    between atoms: O_9  and  C_10
REMARK    5  A    between atoms: N_14  and  C_15
REMARK    6  A    between atoms: N_29  and  C_30
REMARK                            x       y       z     vdW  Elec       q    Type
REMARK                         _______ _______ _______ _____ _____    ______ ____
ROOT
ATOM      1  C   UNL     1      -1.506   3.324 -25.416  0.00  0.00    +0.163 A 
ATOM      2  C   UNL     1      -2.486   3.455 -26.202  0.00  0.00    +0.050 A 
ATOM      3  C   UNL     1      -3.645   3.573 -25.715  0.00  0.00    +0.008 A 
ATOM      4  C   UNL     1      -3.812   3.554 -24.262  0.00  0.00    -0.034 A 
ATOM      5  C   UNL     1      -2.941   3.441 -23.666  0.00  0.00    +0.013 A 
ATOM      6  C   UNL     1      -2.822   3.403 -22.729  0.00  0.00    +0.034 C 
ATOM      7  C   UNL     1      -1.788   3.269 -22.020  0.00  0.00    -0.014 C 
ATOM      8  C   UNL     1      -1.889   3.247 -20.729  0.00  0.00    -0.004 C 
ATOM      9  C   UNL     1      -3.060   3.363 -20.143  0.00  0.00    -0.004 C 
ATOM     10  C   UNL     1      -4.149   3.504 -20.834  0.00  0.00    -0.017 C 
ATOM     11  C   UNL     1      -2.827   3.447 -24.405  0.00  0.00    +0.067 C 
ATOM     12  C   UNL     1      -4.102   3.609 -25.117  0.00  0.00    +0.132 C 
ATOM     13  N   UNL     1      -5.094   3.704 -24.505  0.00  0.00    +0.236 N 
ATOM     14  H   UNL     1      -5.742   3.757 -23.717  0.00  0.00    +0.203 HD
ATOM     15  C   UNL     1      -5.797   3.812 -25.614  0.00  0.00    +0.190 C 
ATOM     16  C   UNL     1      -5.116   3.666 -22.920  0.00  0.00    +0.076 C 
ATOM     17  C   UNL     1      -4.090   3.529 -22.091  0.00  0.00    +0.075 C 
ATOM     18  C   UNL     1      -4.973   3.672 -23.773  0.00  0.00    +0.090 C 
ATOM     19  C   UNL     1      -1.720   3.316 -24.147  0.00  0.00    +0.178 A 
ENDROOT
BRANCH   1  21
ATOM     20  C   UNL     1       0.647   4.110 -25.897  0.00  0.00    +0.277 C 
ATOM     21  O   UNL     1      -0.192   3.185 -25.731  0.00  0.00    -0.491 OA
ENDBRANCH   1  21
BRANCH  19  22
ATOM     22  O   UNL     1      -0.727   3.173 -22.942  0.00  0.00    -0.418 OA
BRANCH  22  23
ATOM     23  C   UNL     1       0.244   2.237 -22.589  0.00  0.00    +0.347 A 
ATOM     24  N   UNL     1      -0.042   1.023 -22.289  0.00  0.00    -0.070 NA
ATOM     25  N   UNL     1       1.047   0.414 -22.013  0.00  0.00    -0.019 NA
ATOM     26  N   UNL     1       2.013   1.247 -22.140  0.00  0.00    -0.036 NA
ATOM     27  N   UNL     1       1.517   2.374 -22.497  0.00  0.00    -0.162 N 
BRANCH  27  28
ATOM     28  C   UNL     1       2.221   3.435 -22.712  0.00  0.00    +0.072 A 
ATOM     29  C   UNL     1       1.665   4.588 -22.800  0.00  0.00    +0.028 A 
ATOM     30  C   UNL     1       2.381   5.629 -23.014  0.00  0.00    +0.002 A 
ATOM     31  C   UNL     1       3.653   5.519 -23.142  0.00  0.00    +0.000 A 
ATOM     32  C   UNL     1       4.208   4.366 -23.054  0.00  0.00    +0.002 A 
ATOM     33  C   UNL     1       3.492   3.325 -22.839  0.00  0.00    +0.028 A 
ENDBRANCH  27  28
ENDBRANCH  22  23
ENDBRANCH  19  22
TORSDOF 4
ENDMDL
MODEL 2
REMARK VINA RESULT:   -11.887      1.668      3.690
REMARK INTER + INTRA:         -14.452
REMARK INTER:                 -13.793
REMARK INTRA:                  -0.659
REMARK UNBOUND:                 0.215
REMARK  Name = COc1ccc2c(c1Oc1nnnn1-c1ccccc1)[C@@]13C=CC=C[C@@H]1[C@H](C2)N(C)CC3   ZINC000100393801
REMARK  6 active torsions:
REMARK  status: ('A' for Active; 'I' for Inactive)
REMARK    1  A    between atoms: C_1  and  O_2
REMARK    2  A    between atoms: O_2  and  C_3
REMARK    3  A    between atoms: C_8  and  O_9
REMARK    4  A    between atoms: O_9  and  C_10
REMARK    5  A    between atoms: N_14  and  C_15
REMARK    6  A    between atoms: N_29  and  C_30
REMARK                            x       y       z     vdW  Elec       q    Type
REMARK                         _______ _______ _______ _____ _____    ______ ____
ROOT
ATOM      1  C   UNL     1      -1.987   2.746 -21.252  0.00  0.00    +0.163 A 
ATOM      2  C   UNL     1      -3.117   2.747 -20.689  0.00  0.00    +0.050 A 
ATOM      3  C   UNL     1      -4.145   2.975 -21.388  0.00  0.00    +0.008 A 
ATOM      4  C   UNL     1      -3.989   3.231 -22.821  0.00  0.00    -0.034 A 
ATOM      5  C   UNL     1      -3.006   3.214 -23.221  0.00  0.00    +0.013 A 
ATOM      6  C   UNL     1      -2.684   3.349 -24.100  0.00  0.00    +0.034 C 
ATOM      7  C   UNL     1      -1.517   3.329 -24.577  0.00  0.00    -0.014 C 
ATOM      8  C   UNL     1      -1.332   3.549 -25.840  0.00  0.00    -0.004 C 
ATOM      9  C   UNL     1      -2.349   3.795 -26.636  0.00  0.00    -0.004 C 
ATOM     10  C   UNL     1      -3.566   3.825 -26.187  0.00  0.00    -0.017 C 
ATOM     11  C   UNL     1      -3.056   3.080 -22.487  0.00  0.00    +0.067 C 
ATOM     12  C   UNL     1      -4.460   3.131 -22.055  0.00  0.00    +0.132 C 
ATOM     13  N   UNL     1      -5.296   3.358 -22.841  0.00  0.00    +0.236 N 
ATOM     14  H   UNL     1      -5.756   3.568 -23.728  0.00  0.00    +0.203 HD
ATOM     15  C   UNL     1      -6.227   3.271 -21.913  0.00  0.00    +0.190 C 
ATOM     16  C   UNL     1      -4.970   3.616 -24.371  0.00  0.00    +0.076 C 
ATOM     17  C   UNL     1      -3.783   3.616 -24.966  0.00  0.00    +0.075 C 
ATOM     18  C   UNL     1      -5.017   3.460 -23.522  0.00  0.00    +0.090 C 
ATOM     19  C   UNL     1      -1.918   2.978 -22.516  0.00  0.00    +0.178 A 
ENDROOT
BRANCH   1  21
ATOM     20  C   UNL     1      -0.132   1.439 -20.673  0.00  0.00    +0.277 C 
ATOM     21  O   UNL     1      -0.771   2.525 -20.688  0.00  0.00    -0.491 OA
ENDBRANCH   1  21
BRANCH  19  22
ATOM     22  O   UNL     1      -0.682   3.043 -23.479  0.00  0.00    -0.418 OA
BRANCH  22  23
ATOM     23  C   UNL     1       0.425   3.884 -23.584  0.00  0.00    +0.347 A 
ATOM     24  N   UNL     1       0.330   5.110 -23.949  0.00  0.00    -0.070 NA
ATOM     25  N   UNL     1       1.502   5.617 -23.949  0.00  0.00    -0.019 NA
ATOM     26  N   UNL     1       2.330   4.709 -23.584  0.00  0.00    -0.036 NA
ATOM     27  N   UNL     1       1.664   3.638 -23.358  0.00  0.00    -0.162 N 
BRANCH  27  28
ATOM     28  C   UNL     1       2.197   2.527 -22.971  0.00  0.00    +0.072 A 
ATOM     29  C   UNL     1       2.063   1.455 -23.664  0.00  0.00    +0.028 A 
ATOM     30  C   UNL     1       2.599   0.363 -23.263  0.00  0.00    +0.002 A 
ATOM     31  C   UNL     1       3.271   0.340 -22.170  0.00  0.00    +0.000 A 
ATOM     32  C   UNL     1       3.405   1.411 -21.478  0.00  0.00    +0.002 A 
ATOM     33  C   UNL     1       2.868   2.503 -21.879  0.00  0.00    +0.028 A 
ENDBRANCH  27  28
ENDBRANCH  22  23
ENDBRANCH  19  22
TORSDOF 4
ENDMDL
MODEL 3
REMARK VINA RESULT:   -10.627      1.664      3.534
REMARK INTER + INTRA:         -12.897
REMARK INTER:                 -12.082
REMARK INTRA:                  -0.815
REMARK UNBOUND:                 0.215
REMARK  Name = COc1ccc2c(c1Oc1nnnn1-c1ccccc1)[C@@]13C=CC=C[C@@H]1[C@H](C2)N(C)CC3   ZINC000100393801
REMARK  6 active torsions:
REMARK  status: ('A' for Active; 'I' for Inactive)
REMARK    1  A    between atoms: C_1  and  O_2
REMARK    2  A    between atoms: O_2  and  C_3
REMARK    3  A    between atoms: C_8  and  O_9
REMARK    4  A    between atoms: O_9  and  C_10
REMARK    5  A    between atoms: N_14  and  C_15
REMARK    6  A    between atoms: N_29  and  C_30
REMARK                            x       y       z     vdW  Elec       q    Type
REMARK                         _______ _______ _______ _____ _____    ______ ____
ROOT
ATOM      1  C   UNL     1      -0.036   1.799 -21.492  0.00  0.00    +0.163 A 
ATOM      2  C   UNL     1      -0.986   1.722 -20.664  0.00  0.00    +0.050 A 
ATOM      3  C   UNL     1      -2.137   2.104 -21.021  0.00  0.00    +0.008 A 
ATOM      4  C   UNL     1      -2.327   2.620 -22.376  0.00  0.00    -0.034 A 
ATOM      5  C   UNL     1      -1.480   2.654 -23.015  0.00  0.00    +0.013 A 
ATOM      6  C   UNL     1      -1.379   2.944 -23.909  0.00  0.00    +0.034 C 
ATOM      7  C   UNL     1      -0.374   2.985 -24.670  0.00  0.00    -0.014 C 
ATOM      8  C   UNL     1      -0.497   3.434 -25.878  0.00  0.00    -0.004 C 
ATOM      9  C   UNL     1      -1.659   3.851 -26.327  0.00  0.00    -0.004 C 
ATOM     10  C   UNL     1      -2.719   3.826 -25.579  0.00  0.00    -0.017 C 
ATOM     11  C   UNL     1      -1.354   2.386 -22.328  0.00  0.00    +0.067 C 
ATOM     12  C   UNL     1      -2.597   2.389 -21.544  0.00  0.00    +0.132 C 
ATOM     13  N   UNL     1      -3.585   2.781 -22.034  0.00  0.00    +0.236 N 
ATOM     14  H   UNL     1      -4.236   3.166 -22.719  0.00  0.00    +0.203 HD
ATOM     15  C   UNL     1      -4.257   2.544 -20.926  0.00  0.00    +0.190 C 
ATOM     16  C   UNL     1      -3.635   3.314 -23.526  0.00  0.00    +0.076 C 
ATOM     17  C   UNL     1      -2.639   3.396 -24.399  0.00  0.00    +0.075 C 
ATOM     18  C   UNL     1      -3.478   3.002 -22.735  0.00  0.00    +0.090 C 
ATOM     19  C   UNL     1      -0.270   2.263 -22.670  0.00  0.00    +0.178 A 
ENDROOT
BRANCH   1  21
ATOM     20  C   UNL     1       1.905   1.460 -20.227  0.00  0.00    +0.277 C 
ATOM     21  O   UNL     1       1.263   1.446 -21.311  0.00  0.00    -0.491 OA
ENDBRANCH   1  21
BRANCH  19  22
ATOM     22  O   UNL     1       0.687   2.477 -23.894  0.00  0.00    -0.418 OA
BRANCH  22  23
ATOM     23  C   UNL     1       2.001   2.106 -24.176  0.00  0.00    +0.347 A 
ATOM     24  N   UNL     1       2.306   0.963 -24.672  0.00  0.00    -0.070 NA
ATOM     25  N   UNL     1       3.574   0.918 -24.817  0.00  0.00    -0.019 NA
ATOM     26  N   UNL     1       4.062   2.033 -24.413  0.00  0.00    -0.036 NA
ATOM     27  N   UNL     1       3.090   2.767 -24.017  0.00  0.00    -0.162 N 
BRANCH  27  28
ATOM     28  C   UNL     1       3.234   3.961 -23.546  0.00  0.00    +0.072 A 
ATOM     29  C   UNL     1       2.237   4.765 -23.471  0.00  0.00    +0.028 A 
ATOM     30  C   UNL     1       2.401   5.946 -23.001  0.00  0.00    +0.002 A 
ATOM     31  C   UNL     1       3.561   6.324 -22.605  0.00  0.00    +0.000 A 
ATOM     32  C   UNL     1       4.557   5.521 -22.680  0.00  0.00    +0.002 A 
ATOM     33  C   UNL     1       4.393   4.340 -23.151  0.00  0.00    +0.028 A 
ENDBRANCH  27  28
ENDBRANCH  22  23
ENDBRANCH  19  22
TORSDOF 4
ENDMDL
MODEL 4
REMARK VINA RESULT:   -10.475      1.523      2.275
REMARK INTER + INTRA:         -12.710
REMARK INTER:                 -11.643
REMARK INTRA:                  -1.067
REMARK UNBOUND:                 0.215
REMARK  Name = COc1ccc2c(c1Oc1nnnn1-c1ccccc1)[C@@]13C=CC=C[C@@H]1[C@H](C2)N(C)CC3   ZINC000100393801
REMARK  6 active torsions:
REMARK  status: ('A' for Active; 'I' for Inactive)
REMARK    1  A    between atoms: C_1  and  O_2
REMARK    2  A    between atoms: O_2  and  C_3
REMARK    3  A    between atoms: C_8  and  O_9
REMARK    4  A    between atoms: O_9  and  C_10
REMARK    5  A    between atoms: N_14  and  C_15
REMARK    6  A    between atoms: N_29  and  C_30
REMARK                            x       y       z     vdW  Elec       q    Type
REMARK                         _______ _______ _______ _____ _____    ______ ____
ROOT
ATOM      1  C   UNL     1      -1.260   3.637 -25.704  0.00  0.00    +0.163 A 
ATOM      2  C   UNL     1      -2.274   3.543 -26.451  0.00  0.00    +0.050 A 
ATOM      3  C   UNL     1      -3.419   3.490 -25.920  0.00  0.00    +0.008 A 
ATOM      4  C   UNL     1      -3.530   3.539 -24.462  0.00  0.00    -0.034 A 
ATOM      5  C   UNL     1      -2.633   3.618 -23.901  0.00  0.00    +0.013 A 
ATOM      6  C   UNL     1      -2.477   3.664 -22.969  0.00  0.00    +0.034 C 
ATOM      7  C   UNL     1      -1.412   3.758 -22.300  0.00  0.00    -0.014 C 
ATOM      8  C   UNL     1      -1.463   3.804 -21.007  0.00  0.00    -0.004 C 
ATOM      9  C   UNL     1      -2.615   3.754 -20.377  0.00  0.00    -0.004 C 
ATOM     10  C   UNL     1      -3.735   3.658 -21.025  0.00  0.00    -0.017 C 
ATOM     11  C   UNL     1      -2.547   3.595 -24.643  0.00  0.00    +0.067 C 
ATOM     12  C   UNL     1      -3.854   3.486 -25.304  0.00  0.00    +0.132 C 
ATOM     13  N   UNL     1      -4.826   3.448 -24.654  0.00  0.00    +0.236 N 
ATOM     14  H   UNL     1      -5.446   3.440 -23.843  0.00  0.00    +0.203 HD
ATOM     15  C   UNL     1      -5.574   3.359 -25.735  0.00  0.00    +0.190 C 
ATOM     16  C   UNL     1      -4.787   3.512 -23.071  0.00  0.00    +0.076 C 
ATOM     17  C   UNL     1      -3.724   3.610 -22.283  0.00  0.00    +0.075 C 
ATOM     18  C   UNL     1      -4.676   3.486 -23.928  0.00  0.00    +0.090 C 
ATOM     19  C   UNL     1      -1.426   3.675 -24.427  0.00  0.00    +0.178 A 
ENDROOT
BRANCH   1  21
ATOM     20  C   UNL     1       0.875   2.757 -26.094  0.00  0.00    +0.277 C 
ATOM     21  O   UNL     1       0.046   3.707 -26.069  0.00  0.00    -0.491 OA
ENDBRANCH   1  21
BRANCH  19  22
ATOM     22  O   UNL     1      -0.383   3.787 -23.263  0.00  0.00    -0.418 OA
BRANCH  22  23
ATOM     23  C   UNL     1       0.851   4.420 -23.121  0.00  0.00    +0.347 A 
ATOM     24  N   UNL     1       0.994   5.690 -23.234  0.00  0.00    -0.070 NA
ATOM     25  N   UNL     1       2.228   5.969 -23.055  0.00  0.00    -0.019 NA
ATOM     26  N   UNL     1       2.856   4.875 -22.829  0.00  0.00    -0.036 NA
ATOM     27  N   UNL     1       2.005   3.917 -22.870  0.00  0.00    -0.162 N 
BRANCH  27  28
ATOM     28  C   UNL     1       2.309   2.676 -22.684  0.00  0.00    +0.072 A 
ATOM     29  C   UNL     1       1.889   2.043 -21.649  0.00  0.00    +0.028 A 
ATOM     30  C   UNL     1       2.201   0.811 -21.483  0.00  0.00    +0.002 A 
ATOM     31  C   UNL     1       2.933   0.211 -22.348  0.00  0.00    +0.000 A 
ATOM     32  C   UNL     1       3.352   0.844 -23.382  0.00  0.00    +0.002 A 
ATOM     33  C   UNL     1       3.040   2.075 -23.549  0.00  0.00    +0.028 A 
ENDBRANCH  27  28
ENDBRANCH  22  23
ENDBRANCH  19  22
TORSDOF 4
ENDMDL
MODEL 5
REMARK VINA RESULT:   -10.278      3.711      6.557
REMARK INTER + INTRA:         -12.467
REMARK INTER:                 -11.075
REMARK INTRA:                  -1.392
REMARK UNBOUND:                 0.215
REMARK  Name = COc1ccc2c(c1Oc1nnnn1-c1ccccc1)[C@@]13C=CC=C[C@@H]1[C@H](C2)N(C)CC3   ZINC000100393801
REMARK  6 active torsions:
REMARK  status: ('A' for Active; 'I' for Inactive)
REMARK    1  A    between atoms: C_1  and  O_2
REMARK    2  A    between atoms: O_2  and  C_3
REMARK    3  A    between atoms: C_8  and  O_9
REMARK    4  A    between atoms: O_9  and  C_10
REMARK    5  A    between atoms: N_14  and  C_15
REMARK    6  A    between atoms: N_29  and  C_30
REMARK                            x       y       z     vdW  Elec       q    Type
REMARK                         _______ _______ _______ _____ _____    ______ ____
ROOT
ATOM      1  C   UNL     1       3.734   5.699 -22.751  0.00  0.00    +0.163 A 
ATOM      2  C   UNL     1       2.595   6.031 -23.183  0.00  0.00    +0.050 A 
ATOM      3  C   UNL     1       1.742   5.126 -23.408  0.00  0.00    +0.008 A 
ATOM      4  C   UNL     1       2.104   3.730 -23.162  0.00  0.00    -0.034 A 
ATOM      5  C   UNL     1       3.080   3.530 -22.799  0.00  0.00    +0.013 A 
ATOM      6  C   UNL     1       3.514   2.719 -22.577  0.00  0.00    +0.034 C 
ATOM      7  C   UNL     1       4.674   2.479 -22.146  0.00  0.00    -0.014 C 
ATOM      8  C   UNL     1       5.037   1.257 -21.914  0.00  0.00    -0.004 C 
ATOM      9  C   UNL     1       4.209   0.258 -22.122  0.00  0.00    -0.004 C 
ATOM     10  C   UNL     1       3.006   0.460 -22.565  0.00  0.00    -0.017 C 
ATOM     11  C   UNL     1       2.923   4.251 -22.916  0.00  0.00    +0.067 C 
ATOM     12  C   UNL     1       1.549   4.398 -23.415  0.00  0.00    +0.132 C 
ATOM     13  N   UNL     1       0.888   3.445 -23.569  0.00  0.00    +0.236 N 
ATOM     14  H   UNL     1       0.592   2.469 -23.591  0.00  0.00    +0.203 HD
ATOM     15  C   UNL     1      -0.121   4.183 -23.988  0.00  0.00    +0.190 C 
ATOM     16  C   UNL     1       1.423   1.986 -23.256  0.00  0.00    +0.076 C 
ATOM     17  C   UNL     1       2.619   1.633 -22.802  0.00  0.00    +0.075 C 
ATOM     18  C   UNL     1       1.251   2.823 -23.387  0.00  0.00    +0.090 C 
ATOM     19  C   UNL     1       3.989   4.452 -22.555  0.00  0.00    +0.178 A 
ENDROOT
BRANCH   1  21
ATOM     20  C   UNL     1       4.753   7.550 -21.740  0.00  0.00    +0.277 C 
ATOM     21  O   UNL     1       4.783   6.507 -22.448  0.00  0.00    -0.491 OA
ENDBRANCH   1  21
BRANCH  19  22
ATOM     22  O   UNL     1       5.287   3.743 -22.035  0.00  0.00    -0.418 OA
BRANCH  22  23
ATOM     23  C   UNL     1       6.468   4.189 -21.443  0.00  0.00    +0.347 A 
ATOM     24  N   UNL     1       6.580   4.376 -20.179  0.00  0.00    -0.070 NA
ATOM     25  N   UNL     1       7.767   4.782 -19.940  0.00  0.00    -0.019 NA
ATOM     26  N   UNL     1       8.398   4.850 -21.055  0.00  0.00    -0.036 NA
ATOM     27  N   UNL     1       7.594   4.483 -21.983  0.00  0.00    -0.162 N 
BRANCH  27  28
ATOM     28  C   UNL     1       7.914   4.436 -23.234  0.00  0.00    +0.072 A 
ATOM     29  C   UNL     1       8.134   3.313 -23.815  0.00  0.00    +0.028 A 
ATOM     30  C   UNL     1       8.450   3.286 -25.057  0.00  0.00    +0.002 A 
ATOM     31  C   UNL     1       8.546   4.381 -25.719  0.00  0.00    +0.000 A 
ATOM     32  C   UNL     1       8.326   5.503 -25.137  0.00  0.00    +0.002 A 
ATOM     33  C   UNL     1       8.010   5.529 -23.896  0.00  0.00    +0.028 A 
ENDBRANCH  27  28
ENDBRANCH  22  23
ENDBRANCH  19  22
TORSDOF 4
ENDMDL
MODEL 6
REMARK VINA RESULT:   -10.021      3.411      6.015
REMARK INTER + INTRA:         -12.150
REMARK INTER:                 -11.048
REMARK INTRA:                  -1.102
REMARK UNBOUND:                 0.215
REMARK  Name = COc1ccc2c(c1Oc1nnnn1-c1ccccc1)[C@@]13C=CC=C[C@@H]1[C@H](C2)N(C)CC3   ZINC000100393801
REMARK  6 active torsions:
REMARK  status: ('A' for Active; 'I' for Inactive)
REMARK    1  A    between atoms: C_1  and  O_2
REMARK    2  A    between atoms: O_2  and  C_3
REMARK    3  A    between atoms: C_8  and  O_9
REMARK    4  A    between atoms: O_9  and  C_10
REMARK    5  A    between atoms: N_14  and  C_15
REMARK    6  A    between atoms: N_29  and  C_30
REMARK                            x       y       z     vdW  Elec       q    Type
REMARK                         _______ _______ _______ _____ _____    ______ ____
ROOT
ATOM      1  C   UNL     1       2.398   5.137 -23.215  0.00  0.00    +0.163 A 
ATOM      2  C   UNL     1       1.175   4.980 -23.490  0.00  0.00    +0.050 A 
ATOM      3  C   UNL     1       0.646   3.851 -23.286  0.00  0.00    +0.008 A 
ATOM      4  C   UNL     1       1.466   2.768 -22.742  0.00  0.00    -0.034 A 
ATOM      5  C   UNL     1       2.485   2.976 -22.537  0.00  0.00    +0.013 A 
ATOM      6  C   UNL     1       3.179   2.436 -22.190  0.00  0.00    +0.034 C 
ATOM      7  C   UNL     1       4.392   2.681 -21.945  0.00  0.00    -0.014 C 
ATOM      8  C   UNL     1       5.154   1.752 -21.462  0.00  0.00    -0.004 C 
ATOM      9  C   UNL     1       4.681   0.550 -21.222  0.00  0.00    -0.004 C 
ATOM     10  C   UNL     1       3.440   0.254 -21.459  0.00  0.00    -0.017 C 
ATOM     11  C   UNL     1       2.091   3.547 -22.814  0.00  0.00    +0.067 C 
ATOM     12  C   UNL     1       0.701   3.135 -23.055  0.00  0.00    +0.132 C 
ATOM     13  N   UNL     1       0.375   2.039 -22.809  0.00  0.00    +0.236 N 
ATOM     14  H   UNL     1       0.413   1.066 -22.503  0.00  0.00    +0.203 HD
ATOM     15  C   UNL     1      -0.855   2.290 -23.209  0.00  0.00    +0.190 C 
ATOM     16  C   UNL     1       1.385   0.970 -22.218  0.00  0.00    +0.076 C 
ATOM     17  C   UNL     1       2.670   1.131 -21.928  0.00  0.00    +0.075 C 
ATOM     18  C   UNL     1       0.937   1.637 -22.538  0.00  0.00    +0.090 C 
ATOM     19  C   UNL     1       3.064   4.144 -22.738  0.00  0.00    +0.178 A 
ENDROOT
BRANCH   1  21
ATOM     20  C   UNL     1       3.527   7.036 -22.439  0.00  0.00    +0.277 C 
ATOM     21  O   UNL     1       3.150   6.258 -23.357  0.00  0.00    -0.491 OA
ENDBRANCH   1  21
BRANCH  19  22
ATOM     22  O   UNL     1       4.567   4.032 -22.308  0.00  0.00    -0.418 OA
BRANCH  22  23
ATOM     23  C   UNL     1       5.777   4.017 -23.000  0.00  0.00    +0.347 A 
ATOM     24  N   UNL     1       5.936   3.383 -24.104  0.00  0.00    -0.070 NA
ATOM     25  N   UNL     1       7.140   3.555 -24.493  0.00  0.00    -0.019 NA
ATOM     26  N   UNL     1       7.735   4.298 -23.634  0.00  0.00    -0.036 NA
ATOM     27  N   UNL     1       6.892   4.583 -22.711  0.00  0.00    -0.162 N 
BRANCH  27  28
ATOM     28  C   UNL     1       7.169   5.319 -21.686  0.00  0.00    +0.072 A 
ATOM     29  C   UNL     1       6.894   6.573 -21.682  0.00  0.00    +0.028 A 
ATOM     30  C   UNL     1       7.177   7.286 -20.655  0.00  0.00    +0.002 A 
ATOM     31  C   UNL     1       7.734   6.748 -19.633  0.00  0.00    +0.000 A 
ATOM     32  C   UNL     1       8.008   5.495 -19.638  0.00  0.00    +0.002 A 
ATOM     33  C   UNL     1       7.726   4.782 -20.664  0.00  0.00    +0.028 A 
ENDBRANCH  27  28
ENDBRANCH  22  23
ENDBRANCH  19  22
TORSDOF 4
ENDMDL
