MODEL 1
REMARK VINA RESULT:    -9.334      0.000      0.000
REMARK INTER + INTRA:         -11.382
REMARK INTER:                 -11.149
REMARK INTRA:                  -0.234
REMARK UNBOUND:                -0.139
REMARK  Name = ZINC000000119983
REMARK  6 active torsions:
REMARK  status: ('A' for Active; 'I' for Inactive)
REMARK    1  A    between atoms: O_1  and  C_2
REMARK    2  A    between atoms: C_4  and  O_5
REMARK    3  A    between atoms: C_10  and  C_11
REMARK    4  A    between atoms: C_14  and  O_15
REMARK    5  A    between atoms: C_16  and  O_17
REMARK    6  A    between atoms: C_19  and  O_20
REMARK                            x       y       z     vdW  Elec       q    Type
REMARK                         _______ _______ _______ _____ _____    ______ ____
ROOT
ATOM      1  C   UNL     1      -3.948   4.222 -24.647  0.00  0.00    +0.124 A 
ATOM      2  C   UNL     1      -4.473   3.701 -23.578  0.00  0.00    +0.091 A 
ATOM      3  C   UNL     1      -3.714   3.110 -22.703  0.00  0.00    +0.127 A 
ATOM      4  C   UNL     1      -2.430   3.040 -22.897  0.00  0.00    +0.038 A 
ATOM      5  C   UNL     1      -1.906   3.562 -23.966  0.00  0.00    +0.132 A 
ATOM      6  O   UNL     1      -0.622   3.493 -24.161  0.00  0.00    -0.481 OA
ATOM      7  C   UNL     1       0.137   2.902 -23.286  0.00  0.00    +0.232 C 
ATOM      8  C   UNL     1      -0.388   2.380 -22.216  0.00  0.00    +0.164 C 
ATOM      9  C   UNL     1      -1.672   2.450 -22.022  0.00  0.00    +0.078 C 
ATOM     10  C   UNL     1      -2.664   4.152 -24.841  0.00  0.00    +0.091 A 
ENDROOT
BRANCH   7  11
ATOM     11  C   UNL     1       1.420   2.832 -23.480  0.00  0.00    -0.001 A 
ATOM     12  C   UNL     1       2.190   3.804 -23.089  0.00  0.00    +0.011 A 
ATOM     13  C   UNL     1       3.474   3.735 -23.283  0.00  0.00    +0.049 A 
ATOM     14  C   UNL     1       3.988   2.693 -23.868  0.00  0.00    +0.158 A 
ATOM     15  C   UNL     1       3.218   1.721 -24.259  0.00  0.00    +0.159 A 
ATOM     16  C   UNL     1       1.934   1.791 -24.065  0.00  0.00    +0.056 A 
BRANCH  15  17
ATOM     17  O   UNL     1       3.731   0.680 -24.844  0.00  0.00    -0.503 OA
ATOM     18  H   UNL     1       3.848  -0.116 -24.364  0.00  0.00    +0.292 HD
ENDBRANCH  15  17
BRANCH  14  19
ATOM     19  O   UNL     1       5.271   2.624 -24.062  0.00  0.00    -0.503 OA
ATOM     20  H   UNL     1       5.831   2.299 -23.385  0.00  0.00    +0.292 HD
ENDBRANCH  14  19
ENDBRANCH   7  11
BRANCH   8  21
ATOM     21  O   UNL     1       0.371   1.790 -21.342  0.00  0.00    -0.387 OA
ATOM     22  H   UNL     1       0.617   0.910 -21.668  0.00  0.00    +0.210 HD
ENDBRANCH   8  21
BRANCH   1  23
ATOM     23  O   UNL     1      -4.706   4.813 -25.522  0.00  0.00    -0.507 OA
ATOM     24  H   UNL     1      -4.437   4.862 -26.418  0.00  0.00    +0.292 HD
ENDBRANCH   1  23
BRANCH   3  25
ATOM     25  O   UNL     1      -4.238   2.589 -21.634  0.00  0.00    -0.506 OA
ATOM     26  H   UNL     1      -5.086   2.190 -21.674  0.00  0.00    +0.292 HD
ENDBRANCH   3  25
TORSDOF 6
ENDMDL
MODEL 2
REMARK VINA RESULT:    -9.243      1.244      6.575
REMARK INTER + INTRA:         -11.272
REMARK INTER:                 -11.035
REMARK INTRA:                  -0.237
REMARK UNBOUND:                -0.139
REMARK  Name = ZINC000000119983
REMARK  6 active torsions:
REMARK  status: ('A' for Active; 'I' for Inactive)
REMARK    1  A    between atoms: O_1  and  C_2
REMARK    2  A    between atoms: C_4  and  O_5
REMARK    3  A    between atoms: C_10  and  C_11
REMARK    4  A    between atoms: C_14  and  O_15
REMARK    5  A    between atoms: C_16  and  O_17
REMARK    6  A    between atoms: C_19  and  O_20
REMARK                            x       y       z     vdW  Elec       q    Type
REMARK                         _______ _______ _______ _____ _____    ______ ____
ROOT
ATOM      1  C   UNL     1       3.181   1.656 -24.378  0.00  0.00    +0.124 A 
ATOM      2  C   UNL     1       3.837   2.713 -24.000  0.00  0.00    +0.091 A 
ATOM      3  C   UNL     1       3.193   3.771 -23.605  0.00  0.00    +0.127 A 
ATOM      4  C   UNL     1       1.894   3.773 -23.588  0.00  0.00    +0.038 A 
ATOM      5  C   UNL     1       1.237   2.716 -23.966  0.00  0.00    +0.132 A 
ATOM      6  O   UNL     1      -0.063   2.716 -23.949  0.00  0.00    -0.481 OA
ATOM      7  C   UNL     1      -0.707   3.775 -23.554  0.00  0.00    +0.232 C 
ATOM      8  C   UNL     1      -0.050   4.833 -23.176  0.00  0.00    +0.164 C 
ATOM      9  C   UNL     1       1.250   4.831 -23.193  0.00  0.00    +0.078 C 
ATOM     10  C   UNL     1       1.881   1.658 -24.361  0.00  0.00    +0.091 A 
ENDROOT
BRANCH   7  11
ATOM     11  C   UNL     1      -2.006   3.776 -23.537  0.00  0.00    -0.001 A 
ATOM     12  C   UNL     1      -2.643   3.388 -22.472  0.00  0.00    +0.011 A 
ATOM     13  C   UNL     1      -3.942   3.390 -22.455  0.00  0.00    +0.049 A 
ATOM     14  C   UNL     1      -4.606   3.779 -23.503  0.00  0.00    +0.158 A 
ATOM     15  C   UNL     1      -3.970   4.167 -24.568  0.00  0.00    +0.159 A 
ATOM     16  C   UNL     1      -2.669   4.166 -24.585  0.00  0.00    +0.056 A 
BRANCH  15  17
ATOM     17  O   UNL     1      -4.633   4.557 -25.616  0.00  0.00    -0.503 OA
ATOM     18  H   UNL     1      -4.184   4.705 -26.426  0.00  0.00    +0.292 HD
ENDBRANCH  15  17
BRANCH  14  19
ATOM     19  O   UNL     1      -5.906   3.780 -23.486  0.00  0.00    -0.503 OA
ATOM     20  H   UNL     1      -6.382   3.148 -23.988  0.00  0.00    +0.292 HD
ENDBRANCH  14  19
ENDBRANCH   7  11
BRANCH   8  21
ATOM     21  O   UNL     1      -0.694   5.890 -22.781  0.00  0.00    -0.387 OA
ATOM     22  H   UNL     1      -1.255   5.664 -22.023  0.00  0.00    +0.210 HD
ENDBRANCH   8  21
BRANCH   1  23
ATOM     23  O   UNL     1       3.825   0.598 -24.773  0.00  0.00    -0.507 OA
ATOM     24  H   UNL     1       4.113   0.530 -25.661  0.00  0.00    +0.292 HD
ENDBRANCH   1  23
BRANCH   3  25
ATOM     25  O   UNL     1       3.849   4.828 -23.227  0.00  0.00    -0.506 OA
ATOM     26  H   UNL     1       3.387   5.572 -22.893  0.00  0.00    +0.292 HD
ENDBRANCH   3  25
TORSDOF 6
ENDMDL
MODEL 3
REMARK VINA RESULT:    -9.187      1.370      2.490
REMARK INTER + INTRA:         -11.205
REMARK INTER:                 -11.025
REMARK INTRA:                  -0.180
REMARK UNBOUND:                -0.139
REMARK  Name = ZINC000000119983
REMARK  6 active torsions:
REMARK  status: ('A' for Active; 'I' for Inactive)
REMARK    1  A    between atoms: O_1  and  C_2
REMARK    2  A    between atoms: C_4  and  O_5
REMARK    3  A    between atoms: C_10  and  C_11
REMARK    4  A    between atoms: C_14  and  O_15
REMARK    5  A    between atoms: C_16  and  O_17
REMARK    6  A    between atoms: C_19  and  O_20
REMARK                            x       y       z     vdW  Elec       q    Type
REMARK                         _______ _______ _______ _____ _____    ______ ____
ROOT
ATOM      1  C   UNL     1      -4.942   3.468 -22.648  0.00  0.00    +0.124 A 
ATOM      2  C   UNL     1      -5.246   3.823 -23.861  0.00  0.00    +0.091 A 
ATOM      3  C   UNL     1      -4.313   3.927 -24.762  0.00  0.00    +0.127 A 
ATOM      4  C   UNL     1      -3.077   3.676 -24.449  0.00  0.00    +0.038 A 
ATOM      5  C   UNL     1      -2.773   3.321 -23.236  0.00  0.00    +0.132 A 
ATOM      6  O   UNL     1      -1.536   3.069 -22.922  0.00  0.00    -0.481 OA
ATOM      7  C   UNL     1      -0.603   3.174 -23.822  0.00  0.00    +0.232 C 
ATOM      8  C   UNL     1      -0.908   3.529 -25.036  0.00  0.00    +0.164 C 
ATOM      9  C   UNL     1      -2.145   3.781 -25.349  0.00  0.00    +0.078 C 
ATOM     10  C   UNL     1      -3.705   3.216 -22.336  0.00  0.00    +0.091 A 
ENDROOT
BRANCH   7  11
ATOM     11  C   UNL     1       0.633   2.922 -23.509  0.00  0.00    -0.001 A 
ATOM     12  C   UNL     1       1.468   3.901 -23.324  0.00  0.00    +0.011 A 
ATOM     13  C   UNL     1       2.705   3.650 -23.011  0.00  0.00    +0.049 A 
ATOM     14  C   UNL     1       3.106   2.419 -22.883  0.00  0.00    +0.158 A 
ATOM     15  C   UNL     1       2.271   1.441 -23.068  0.00  0.00    +0.159 A 
ATOM     16  C   UNL     1       1.034   1.693 -23.381  0.00  0.00    +0.056 A 
BRANCH  15  17
ATOM     17  O   UNL     1       2.671   0.211 -22.940  0.00  0.00    -0.503 OA
ATOM     18  H   UNL     1       2.277  -0.346 -22.297  0.00  0.00    +0.292 HD
ENDBRANCH  15  17
BRANCH  14  19
ATOM     19  O   UNL     1       4.342   2.168 -22.570  0.00  0.00    -0.503 OA
ATOM     20  H   UNL     1       5.014   2.242 -23.219  0.00  0.00    +0.292 HD
ENDBRANCH  14  19
ENDBRANCH   7  11
BRANCH   8  21
ATOM     21  O   UNL     1       0.025   3.633 -25.935  0.00  0.00    -0.387 OA
ATOM     22  H   UNL     1       0.734   3.001 -25.742  0.00  0.00    +0.210 HD
ENDBRANCH   8  21
BRANCH   1  23
ATOM     23  O   UNL     1      -5.874   3.363 -21.749  0.00  0.00    -0.507 OA
ATOM     24  H   UNL     1      -6.727   3.713 -21.915  0.00  0.00    +0.292 HD
ENDBRANCH   1  23
BRANCH   3  25
ATOM     25  O   UNL     1      -4.617   4.283 -25.974  0.00  0.00    -0.506 OA
ATOM     26  H   UNL     1      -5.220   4.986 -26.120  0.00  0.00    +0.292 HD
ENDBRANCH   3  25
TORSDOF 6
ENDMDL
MODEL 4
REMARK VINA RESULT:    -8.931      0.579      1.388
REMARK INTER + INTRA:         -10.897
REMARK INTER:                 -10.661
REMARK INTRA:                  -0.236
REMARK UNBOUND:                -0.139
REMARK  Name = ZINC000000119983
REMARK  6 active torsions:
REMARK  status: ('A' for Active; 'I' for Inactive)
REMARK    1  A    between atoms: O_1  and  C_2
REMARK    2  A    between atoms: C_4  and  O_5
REMARK    3  A    between atoms: C_10  and  C_11
REMARK    4  A    between atoms: C_14  and  O_15
REMARK    5  A    between atoms: C_16  and  O_17
REMARK    6  A    between atoms: C_19  and  O_20
REMARK                            x       y       z     vdW  Elec       q    Type
REMARK                         _______ _______ _______ _____ _____    ______ ____
ROOT
ATOM      1  C   UNL     1      -4.036   4.235 -24.641  0.00  0.00    +0.124 A 
ATOM      2  C   UNL     1      -4.551   3.707 -23.570  0.00  0.00    +0.091 A 
ATOM      3  C   UNL     1      -3.782   3.113 -22.704  0.00  0.00    +0.127 A 
ATOM      4  C   UNL     1      -2.501   3.048 -22.910  0.00  0.00    +0.038 A 
ATOM      5  C   UNL     1      -1.986   3.577 -23.981  0.00  0.00    +0.132 A 
ATOM      6  O   UNL     1      -0.704   3.512 -24.187  0.00  0.00    -0.481 OA
ATOM      7  C   UNL     1       0.064   2.918 -23.322  0.00  0.00    +0.232 C 
ATOM      8  C   UNL     1      -0.451   2.389 -22.250  0.00  0.00    +0.164 C 
ATOM      9  C   UNL     1      -1.733   2.455 -22.045  0.00  0.00    +0.078 C 
ATOM     10  C   UNL     1      -2.754   4.170 -24.846  0.00  0.00    +0.091 A 
ENDROOT
BRANCH   7  11
ATOM     11  C   UNL     1       1.346   2.853 -23.528  0.00  0.00    -0.001 A 
ATOM     12  C   UNL     1       1.845   1.867 -24.212  0.00  0.00    +0.011 A 
ATOM     13  C   UNL     1       3.126   1.802 -24.418  0.00  0.00    +0.049 A 
ATOM     14  C   UNL     1       3.910   2.723 -23.939  0.00  0.00    +0.158 A 
ATOM     15  C   UNL     1       3.410   3.709 -23.255  0.00  0.00    +0.159 A 
ATOM     16  C   UNL     1       2.128   3.774 -23.049  0.00  0.00    +0.056 A 
BRANCH  15  17
ATOM     17  O   UNL     1       4.193   4.630 -22.776  0.00  0.00    -0.503 OA
ATOM     18  H   UNL     1       5.095   4.438 -22.608  0.00  0.00    +0.292 HD
ENDBRANCH  15  17
BRANCH  14  19
ATOM     19  O   UNL     1       5.191   2.658 -24.145  0.00  0.00    -0.503 OA
ATOM     20  H   UNL     1       5.603   3.262 -24.731  0.00  0.00    +0.292 HD
ENDBRANCH  14  19
ENDBRANCH   7  11
BRANCH   8  21
ATOM     21  O   UNL     1       0.317   1.796 -21.386  0.00  0.00    -0.387 OA
ATOM     22  H   UNL     1       0.983   2.422 -21.061  0.00  0.00    +0.210 HD
ENDBRANCH   8  21
BRANCH   1  23
ATOM     23  O   UNL     1      -4.804   4.829 -25.506  0.00  0.00    -0.507 OA
ATOM     24  H   UNL     1      -5.689   5.037 -25.281  0.00  0.00    +0.292 HD
ENDBRANCH   1  23
BRANCH   3  25
ATOM     25  O   UNL     1      -4.296   2.585 -21.634  0.00  0.00    -0.506 OA
ATOM     26  H   UNL     1      -5.226   2.492 -21.557  0.00  0.00    +0.292 HD
ENDBRANCH   3  25
TORSDOF 6
ENDMDL
MODEL 5
REMARK VINA RESULT:    -8.441      1.503      6.457
REMARK INTER + INTRA:         -10.307
REMARK INTER:                 -10.107
REMARK INTRA:                  -0.200
REMARK UNBOUND:                -0.139
REMARK  Name = ZINC000000119983
REMARK  6 active torsions:
REMARK  status: ('A' for Active; 'I' for Inactive)
REMARK    1  A    between atoms: O_1  and  C_2
REMARK    2  A    between atoms: C_4  and  O_5
REMARK    3  A    between atoms: C_10  and  C_11
REMARK    4  A    between atoms: C_14  and  O_15
REMARK    5  A    between atoms: C_16  and  O_17
REMARK    6  A    between atoms: C_19  and  O_20
REMARK                            x       y       z     vdW  Elec       q    Type
REMARK                         _______ _______ _______ _____ _____    ______ ____
ROOT
ATOM      1  C   UNL     1       3.367   5.525 -22.884  0.00  0.00    +0.124 A 
ATOM      2  C   UNL     1       3.916   4.350 -22.981  0.00  0.00    +0.091 A 
ATOM      3  C   UNL     1       3.173   3.298 -23.158  0.00  0.00    +0.127 A 
ATOM      4  C   UNL     1       1.881   3.420 -23.238  0.00  0.00    +0.038 A 
ATOM      5  C   UNL     1       1.332   4.595 -23.142  0.00  0.00    +0.132 A 
ATOM      6  O   UNL     1       0.041   4.718 -23.222  0.00  0.00    -0.481 OA
ATOM      7  C   UNL     1      -0.703   3.665 -23.400  0.00  0.00    +0.232 C 
ATOM      8  C   UNL     1      -0.153   2.490 -23.496  0.00  0.00    +0.164 C 
ATOM      9  C   UNL     1       1.139   2.368 -23.415  0.00  0.00    +0.078 C 
ATOM     10  C   UNL     1       2.075   5.647 -22.965  0.00  0.00    +0.091 A 
ENDROOT
BRANCH   7  11
ATOM     11  C   UNL     1      -1.994   3.788 -23.480  0.00  0.00    -0.001 A 
ATOM     12  C   UNL     1      -2.738   3.526 -22.446  0.00  0.00    +0.011 A 
ATOM     13  C   UNL     1      -4.029   3.648 -22.527  0.00  0.00    +0.049 A 
ATOM     14  C   UNL     1      -4.578   4.033 -23.642  0.00  0.00    +0.158 A 
ATOM     15  C   UNL     1      -3.834   4.295 -24.675  0.00  0.00    +0.159 A 
ATOM     16  C   UNL     1      -2.542   4.173 -24.594  0.00  0.00    +0.056 A 
BRANCH  15  17
ATOM     17  O   UNL     1      -4.382   4.680 -25.789  0.00  0.00    -0.503 OA
ATOM     18  H   UNL     1      -4.284   5.566 -26.078  0.00  0.00    +0.292 HD
ENDBRANCH  15  17
BRANCH  14  19
ATOM     19  O   UNL     1      -5.869   4.155 -23.722  0.00  0.00    -0.503 OA
ATOM     20  H   UNL     1      -6.244   4.831 -24.252  0.00  0.00    +0.292 HD
ENDBRANCH  14  19
ENDBRANCH   7  11
BRANCH   8  21
ATOM     21  O   UNL     1      -0.896   1.439 -23.673  0.00  0.00    -0.387 OA
ATOM     22  H   UNL     1      -0.334   0.672 -23.863  0.00  0.00    +0.210 HD
ENDBRANCH   8  21
BRANCH   1  23
ATOM     23  O   UNL     1       4.110   6.577 -22.707  0.00  0.00    -0.507 OA
ATOM     24  H   UNL     1       3.713   7.400 -22.500  0.00  0.00    +0.292 HD
ENDBRANCH   1  23
BRANCH   3  25
ATOM     25  O   UNL     1       3.722   2.123 -23.254  0.00  0.00    -0.506 OA
ATOM     26  H   UNL     1       4.078   1.838 -24.073  0.00  0.00    +0.292 HD
ENDBRANCH   3  25
TORSDOF 6
ENDMDL
MODEL 6
REMARK VINA RESULT:    -8.305      1.545      6.502
REMARK INTER + INTRA:         -10.142
REMARK INTER:                  -9.946
REMARK INTRA:                  -0.196
REMARK UNBOUND:                -0.139
REMARK  Name = ZINC000000119983
REMARK  6 active torsions:
REMARK  status: ('A' for Active; 'I' for Inactive)
REMARK    1  A    between atoms: O_1  and  C_2
REMARK    2  A    between atoms: C_4  and  O_5
REMARK    3  A    between atoms: C_10  and  C_11
REMARK    4  A    between atoms: C_14  and  O_15
REMARK    5  A    between atoms: C_16  and  O_17
REMARK    6  A    between atoms: C_19  and  O_20
REMARK                            x       y       z     vdW  Elec       q    Type
REMARK                         _______ _______ _______ _____ _____    ______ ____
ROOT
ATOM      1  C   UNL     1       4.346   4.339 -23.034  0.00  0.00    +0.124 A 
ATOM      2  C   UNL     1       4.766   3.169 -22.651  0.00  0.00    +0.091 A 
ATOM      3  C   UNL     1       3.911   2.223 -22.396  0.00  0.00    +0.127 A 
ATOM      4  C   UNL     1       2.637   2.446 -22.525  0.00  0.00    +0.038 A 
ATOM      5  C   UNL     1       2.217   3.616 -22.908  0.00  0.00    +0.132 A 
ATOM      6  O   UNL     1       0.943   3.840 -23.037  0.00  0.00    -0.481 OA
ATOM      7  C   UNL     1       0.088   2.893 -22.782  0.00  0.00    +0.232 C 
ATOM      8  C   UNL     1       0.508   1.723 -22.398  0.00  0.00    +0.164 C 
ATOM      9  C   UNL     1       1.782   1.501 -22.270  0.00  0.00    +0.078 C 
ATOM     10  C   UNL     1       3.071   4.561 -23.163  0.00  0.00    +0.091 A 
ENDROOT
BRANCH   7  11
ATOM     11  C   UNL     1      -1.186   3.117 -22.911  0.00  0.00    -0.001 A 
ATOM     12  C   UNL     1      -1.733   3.101 -24.090  0.00  0.00    +0.011 A 
ATOM     13  C   UNL     1      -3.007   3.324 -24.219  0.00  0.00    +0.049 A 
ATOM     14  C   UNL     1      -3.735   3.563 -23.168  0.00  0.00    +0.158 A 
ATOM     15  C   UNL     1      -3.188   3.579 -21.989  0.00  0.00    +0.159 A 
ATOM     16  C   UNL     1      -1.913   3.355 -21.860  0.00  0.00    +0.056 A 
BRANCH  15  17
ATOM     17  O   UNL     1      -3.915   3.817 -20.938  0.00  0.00    -0.503 OA
ATOM     18  H   UNL     1      -3.926   3.206 -20.227  0.00  0.00    +0.292 HD
ENDBRANCH  15  17
BRANCH  14  19
ATOM     19  O   UNL     1      -5.008   3.787 -23.297  0.00  0.00    -0.503 OA
ATOM     20  H   UNL     1      -5.582   3.663 -22.566  0.00  0.00    +0.292 HD
ENDBRANCH  14  19
ENDBRANCH   7  11
BRANCH   8  21
ATOM     21  O   UNL     1      -0.347   0.778 -22.144  0.00  0.00    -0.387 OA
ATOM     22  H   UNL     1      -1.241   1.083 -22.361  0.00  0.00    +0.210 HD
ENDBRANCH   8  21
BRANCH   1  23
ATOM     23  O   UNL     1       5.200   5.284 -23.289  0.00  0.00    -0.507 OA
ATOM     24  H   UNL     1       5.906   5.451 -22.695  0.00  0.00    +0.292 HD
ENDBRANCH   1  23
BRANCH   3  25
ATOM     25  O   UNL     1       4.330   1.054 -22.012  0.00  0.00    -0.506 OA
ATOM     26  H   UNL     1       5.162   0.736 -22.304  0.00  0.00    +0.292 HD
ENDBRANCH   3  25
TORSDOF 6
ENDMDL
MODEL 7
REMARK VINA RESULT:    -8.239      1.461      6.323
REMARK INTER + INTRA:         -10.064
REMARK INTER:                 -10.907
REMARK INTRA:                   0.843
REMARK UNBOUND:                -0.139
REMARK  Name = ZINC000000119983
REMARK  6 active torsions:
REMARK  status: ('A' for Active; 'I' for Inactive)
REMARK    1  A    between atoms: O_1  and  C_2
REMARK    2  A    between atoms: C_4  and  O_5
REMARK    3  A    between atoms: C_10  and  C_11
REMARK    4  A    between atoms: C_14  and  O_15
REMARK    5  A    between atoms: C_16  and  O_17
REMARK    6  A    between atoms: C_19  and  O_20
REMARK                            x       y       z     vdW  Elec       q    Type
REMARK                         _______ _______ _______ _____ _____    ______ ____
ROOT
ATOM      1  C   UNL     1       3.395   1.877 -23.127  0.00  0.00    +0.124 A 
ATOM      2  C   UNL     1       3.296   1.503 -21.886  0.00  0.00    +0.091 A 
ATOM      3  C   UNL     1       2.134   1.492 -21.302  0.00  0.00    +0.127 A 
ATOM      4  C   UNL     1       1.073   1.855 -21.958  0.00  0.00    +0.038 A 
ATOM      5  C   UNL     1       1.172   2.229 -23.199  0.00  0.00    +0.132 A 
ATOM      6  O   UNL     1       0.110   2.593 -23.856  0.00  0.00    -0.481 OA
ATOM      7  C   UNL     1      -1.051   2.581 -23.271  0.00  0.00    +0.232 C 
ATOM      8  C   UNL     1      -1.151   2.207 -22.029  0.00  0.00    +0.164 C 
ATOM      9  C   UNL     1      -0.088   1.843 -21.373  0.00  0.00    +0.078 C 
ATOM     10  C   UNL     1       2.333   2.241 -23.783  0.00  0.00    +0.091 A 
ENDROOT
BRANCH   7  11
ATOM     11  C   UNL     1      -2.113   2.944 -23.927  0.00  0.00    -0.001 A 
ATOM     12  C   UNL     1      -2.103   2.950 -25.227  0.00  0.00    +0.011 A 
ATOM     13  C   UNL     1      -3.165   3.313 -25.883  0.00  0.00    +0.049 A 
ATOM     14  C   UNL     1      -4.237   3.671 -25.239  0.00  0.00    +0.158 A 
ATOM     15  C   UNL     1      -4.246   3.666 -23.939  0.00  0.00    +0.159 A 
ATOM     16  C   UNL     1      -3.184   3.302 -23.283  0.00  0.00    +0.056 A 
BRANCH  15  17
ATOM     17  O   UNL     1      -5.317   4.024 -23.295  0.00  0.00    -0.503 OA
ATOM     18  H   UNL     1      -5.565   4.927 -23.263  0.00  0.00    +0.292 HD
ENDBRANCH  15  17
BRANCH  14  19
ATOM     19  O   UNL     1      -5.298   4.034 -25.895  0.00  0.00    -0.503 OA
ATOM     20  H   UNL     1      -5.975   4.516 -25.462  0.00  0.00    +0.292 HD
ENDBRANCH  14  19
ENDBRANCH   7  11
BRANCH   8  21
ATOM     21  O   UNL     1      -2.311   2.195 -21.445  0.00  0.00    -0.387 OA
ATOM     22  H   UNL     1      -2.952   1.730 -22.005  0.00  0.00    +0.210 HD
ENDBRANCH   8  21
BRANCH   1  23
ATOM     23  O   UNL     1       4.556   1.889 -23.712  0.00  0.00    -0.507 OA
ATOM     24  H   UNL     1       5.339   1.863 -23.199  0.00  0.00    +0.292 HD
ENDBRANCH   1  23
BRANCH   3  25
ATOM     25  O   UNL     1       2.035   1.117 -20.061  0.00  0.00    -0.506 OA
ATOM     26  H   UNL     1       1.535   1.629 -19.455  0.00  0.00    +0.292 HD
ENDBRANCH   3  25
TORSDOF 6
ENDMDL
MODEL 8
REMARK VINA RESULT:    -8.001      1.802      6.444
REMARK INTER + INTRA:          -9.777
REMARK INTER:                  -9.559
REMARK INTRA:                  -0.218
REMARK UNBOUND:                -0.139
REMARK  Name = ZINC000000119983
REMARK  6 active torsions:
REMARK  status: ('A' for Active; 'I' for Inactive)
REMARK    1  A    between atoms: O_1  and  C_2
REMARK    2  A    between atoms: C_4  and  O_5
REMARK    3  A    between atoms: C_10  and  C_11
REMARK    4  A    between atoms: C_14  and  O_15
REMARK    5  A    between atoms: C_16  and  O_17
REMARK    6  A    between atoms: C_19  and  O_20
REMARK                            x       y       z     vdW  Elec       q    Type
REMARK                         _______ _______ _______ _____ _____    ______ ____
ROOT
ATOM      1  C   UNL     1       5.179   4.496 -22.902  0.00  0.00    +0.124 A 
ATOM      2  C   UNL     1       5.476   3.344 -22.378  0.00  0.00    +0.091 A 
ATOM      3  C   UNL     1       4.550   2.445 -22.217  0.00  0.00    +0.127 A 
ATOM      4  C   UNL     1       3.328   2.698 -22.581  0.00  0.00    +0.038 A 
ATOM      5  C   UNL     1       3.031   3.850 -23.105  0.00  0.00    +0.132 A 
ATOM      6  O   UNL     1       1.809   4.104 -23.469  0.00  0.00    -0.481 OA
ATOM      7  C   UNL     1       0.883   3.205 -23.309  0.00  0.00    +0.232 C 
ATOM      8  C   UNL     1       1.180   2.052 -22.784  0.00  0.00    +0.164 C 
ATOM      9  C   UNL     1       2.403   1.799 -22.420  0.00  0.00    +0.078 C 
ATOM     10  C   UNL     1       3.956   4.749 -23.266  0.00  0.00    +0.091 A 
ENDROOT
BRANCH   7  11
ATOM     11  C   UNL     1      -0.339   3.458 -23.672  0.00  0.00    -0.001 A 
ATOM     12  C   UNL     1      -1.210   3.853 -22.792  0.00  0.00    +0.011 A 
ATOM     13  C   UNL     1      -2.432   4.106 -23.156  0.00  0.00    +0.049 A 
ATOM     14  C   UNL     1      -2.783   3.963 -24.400  0.00  0.00    +0.158 A 
ATOM     15  C   UNL     1      -1.911   3.568 -25.280  0.00  0.00    +0.159 A 
ATOM     16  C   UNL     1      -0.689   3.315 -24.916  0.00  0.00    +0.056 A 
BRANCH  15  17
ATOM     17  O   UNL     1      -2.262   3.426 -26.524  0.00  0.00    -0.503 OA
ATOM     18  H   UNL     1      -2.101   2.616 -26.966  0.00  0.00    +0.292 HD
ENDBRANCH  15  17
BRANCH  14  19
ATOM     19  O   UNL     1      -4.005   4.216 -24.764  0.00  0.00    -0.503 OA
ATOM     20  H   UNL     1      -4.384   5.054 -24.584  0.00  0.00    +0.292 HD
ENDBRANCH  14  19
ENDBRANCH   7  11
BRANCH   8  21
ATOM     21  O   UNL     1       0.255   1.154 -22.623  0.00  0.00    -0.387 OA
ATOM     22  H   UNL     1       0.331   0.482 -23.318  0.00  0.00    +0.210 HD
ENDBRANCH   8  21
BRANCH   1  23
ATOM     23  O   UNL     1       6.104   5.395 -23.063  0.00  0.00    -0.507 OA
ATOM     24  H   UNL     1       6.724   5.556 -22.380  0.00  0.00    +0.292 HD
ENDBRANCH   1  23
BRANCH   3  25
ATOM     25  O   UNL     1       4.846   1.293 -21.692  0.00  0.00    -0.506 OA
ATOM     26  H   UNL     1       4.990   1.222 -20.769  0.00  0.00    +0.292 HD
ENDBRANCH   3  25
TORSDOF 6
ENDMDL
MODEL 9
REMARK VINA RESULT:    -7.554      2.525      7.235
REMARK INTER + INTRA:          -9.239
REMARK INTER:                  -9.100
REMARK INTRA:                  -0.139
REMARK UNBOUND:                -0.139
REMARK  Name = ZINC000000119983
REMARK  6 active torsions:
REMARK  status: ('A' for Active; 'I' for Inactive)
REMARK    1  A    between atoms: O_1  and  C_2
REMARK    2  A    between atoms: C_4  and  O_5
REMARK    3  A    between atoms: C_10  and  C_11
REMARK    4  A    between atoms: C_14  and  O_15
REMARK    5  A    between atoms: C_16  and  O_17
REMARK    6  A    between atoms: C_19  and  O_20
REMARK                            x       y       z     vdW  Elec       q    Type
REMARK                         _______ _______ _______ _____ _____    ______ ____
ROOT
ATOM      1  C   UNL     1       6.486   5.164 -22.919  0.00  0.00    +0.124 A 
ATOM      2  C   UNL     1       7.291   4.147 -23.005  0.00  0.00    +0.091 A 
ATOM      3  C   UNL     1       6.819   2.937 -22.931  0.00  0.00    +0.127 A 
ATOM      4  C   UNL     1       5.543   2.745 -22.771  0.00  0.00    +0.038 A 
ATOM      5  C   UNL     1       4.739   3.763 -22.686  0.00  0.00    +0.132 A 
ATOM      6  O   UNL     1       3.463   3.572 -22.527  0.00  0.00    -0.481 OA
ATOM      7  C   UNL     1       2.991   2.363 -22.453  0.00  0.00    +0.232 C 
ATOM      8  C   UNL     1       3.796   1.344 -22.538  0.00  0.00    +0.164 C 
ATOM      9  C   UNL     1       5.072   1.536 -22.698  0.00  0.00    +0.078 C 
ATOM     10  C   UNL     1       5.210   4.972 -22.760  0.00  0.00    +0.091 A 
ENDROOT
BRANCH   7  11
ATOM     11  C   UNL     1       1.715   2.171 -22.294  0.00  0.00    -0.001 A 
ATOM     12  C   UNL     1       1.257   1.768 -21.146  0.00  0.00    +0.011 A 
ATOM     13  C   UNL     1      -0.019   1.577 -20.986  0.00  0.00    +0.049 A 
ATOM     14  C   UNL     1      -0.837   1.788 -21.975  0.00  0.00    +0.158 A 
ATOM     15  C   UNL     1      -0.378   2.191 -23.123  0.00  0.00    +0.159 A 
ATOM     16  C   UNL     1       0.898   2.382 -23.282  0.00  0.00    +0.056 A 
BRANCH  15  17
ATOM     17  O   UNL     1      -1.195   2.402 -24.112  0.00  0.00    -0.503 OA
ATOM     18  H   UNL     1      -0.906   2.273 -24.994  0.00  0.00    +0.292 HD
ENDBRANCH  15  17
BRANCH  14  19
ATOM     19  O   UNL     1      -2.112   1.597 -21.816  0.00  0.00    -0.503 OA
ATOM     20  H   UNL     1      -2.710   2.311 -21.920  0.00  0.00    +0.292 HD
ENDBRANCH  14  19
ENDBRANCH   7  11
BRANCH   8  21
ATOM     21  O   UNL     1       3.324   0.136 -22.465  0.00  0.00    -0.387 OA
ATOM     22  H   UNL     1       3.153  -0.089 -21.537  0.00  0.00    +0.210 HD
ENDBRANCH   8  21
BRANCH   1  23
ATOM     23  O   UNL     1       6.958   6.373 -22.993  0.00  0.00    -0.507 OA
ATOM     24  H   UNL     1       7.738   6.601 -22.528  0.00  0.00    +0.292 HD
ENDBRANCH   1  23
BRANCH   3  25
ATOM     25  O   UNL     1       7.623   1.919 -23.016  0.00  0.00    -0.506 OA
ATOM     26  H   UNL     1       7.503   1.282 -23.693  0.00  0.00    +0.292 HD
ENDBRANCH   3  25
TORSDOF 6
ENDMDL
