MODEL 1
REMARK VINA RESULT:   -10.939      0.000      0.000
REMARK INTER + INTRA:         -11.721
REMARK INTER:                 -11.600
REMARK INTRA:                  -0.121
REMARK UNBOUND:                -0.142
REMARK  Name = ZINC000096316250
REMARK  3 active torsions:
REMARK  status: ('A' for Active; 'I' for Inactive)
REMARK    1  A    between atoms: C_1  and  O_2
REMARK    2  A    between atoms: O_2  and  C_3
REMARK    3  A    between atoms: N_18  and  C_19
REMARK                            x       y       z     vdW  Elec       q    Type
REMARK                         _______ _______ _______ _____ _____    ______ ____
ROOT
ATOM      1  C   UNL     1       1.136   1.870 -21.970  0.00  0.00    +0.163 A 
ATOM      2  C   UNL     1       1.937   2.031 -22.944  0.00  0.00    +0.065 A 
ATOM      3  C   UNL     1       1.518   2.445 -24.054  0.00  0.00    +0.025 A 
ATOM      4  C   UNL     1       0.295   2.703 -24.203  0.00  0.00    -0.021 A 
ATOM      5  C   UNL     1      -0.522   2.551 -23.249  0.00  0.00    +0.013 A 
ATOM      6  C   UNL     1      -1.742   2.809 -23.399  0.00  0.00    +0.054 C 
ATOM      7  C   UNL     1      -3.149   3.071 -23.455  0.00  0.00    +0.067 C 
ATOM      8  C   UNL     1      -3.652   3.540 -24.697  0.00  0.00    +0.132 C 
ATOM      9  N   UNL     1      -2.727   3.706 -25.759  0.00  0.00    +0.236 N 
ATOM     10  H   UNL     1      -3.026   4.040 -26.675  0.00  0.00    +0.203 HD
ATOM     11  C   UNL     1      -3.092   4.118 -26.890  0.00  0.00    +0.190 C 
ATOM     12  C   UNL     1      -1.360   3.384 -25.482  0.00  0.00    +0.073 C 
ATOM     13  C   UNL     1      -2.162   3.224 -24.511  0.00  0.00    +0.053 C 
ATOM     14  C   UNL     1      -3.398   3.485 -24.662  0.00  0.00    +0.015 C 
ATOM     15  C   UNL     1      -4.199   3.330 -23.705  0.00  0.00    +0.069 C 
ATOM     16  C   UNL     1      -3.780   2.911 -22.581  0.00  0.00    +0.208 C 
ATOM     17  O   UNL     1      -3.475   2.504 -21.432  0.00  0.00    -0.343 OA
ATOM     18  C   UNL     1      -4.523   2.472 -20.738  0.00  0.00    +0.191 C 
ATOM     19  C   UNL     1      -5.477   2.860 -21.461  0.00  0.00    +0.191 C 
ATOM     20  O   UNL     1      -5.018   3.131 -22.599  0.00  0.00    -0.343 OA
ATOM     21  C   UNL     1      -2.560   2.653 -22.430  0.00  0.00    +0.244 C 
ATOM     22  O   UNL     1      -1.466   2.173 -21.488  0.00  0.00    -0.479 OA
ATOM     23  C   UNL     1      -0.139   3.126 -25.332  0.00  0.00    +0.091 C 
ATOM     24 BR   UNL     1       2.316   2.602 -25.010  0.00  0.00    -0.050 Br
ATOM     25  C   UNL     1      -0.100   2.132 -22.125  0.00  0.00    +0.167 A 
ENDROOT
BRANCH   1  27
ATOM     26  C   UNL     1       2.797   1.442 -20.627  0.00  0.00    +0.277 C 
ATOM     27  O   UNL     1       1.562   1.455 -20.863  0.00  0.00    -0.491 OA
ENDBRANCH   1  27
TORSDOF 1
ENDMDL
MODEL 2
REMARK VINA RESULT:   -10.408      2.074      3.479
REMARK INTER + INTRA:         -11.159
REMARK INTER:                 -11.038
REMARK INTRA:                  -0.121
REMARK UNBOUND:                -0.142
REMARK  Name = ZINC000096316250
REMARK  3 active torsions:
REMARK  status: ('A' for Active; 'I' for Inactive)
REMARK    1  A    between atoms: C_1  and  O_2
REMARK    2  A    between atoms: O_2  and  C_3
REMARK    3  A    between atoms: N_18  and  C_19
REMARK                            x       y       z     vdW  Elec       q    Type
REMARK                         _______ _______ _______ _____ _____    ______ ____
ROOT
ATOM      1  C   UNL     1       1.767   2.212 -23.770  0.00  0.00    +0.163 A 
ATOM      2  C   UNL     1       2.064   1.901 -22.573  0.00  0.00    +0.065 A 
ATOM      3  C   UNL     1       1.177   1.868 -21.684  0.00  0.00    +0.025 A 
ATOM      4  C   UNL     1      -0.014   2.145 -21.979  0.00  0.00    -0.021 A 
ATOM      5  C   UNL     1      -0.334   2.458 -23.163  0.00  0.00    +0.013 A 
ATOM      6  C   UNL     1      -1.524   2.735 -23.456  0.00  0.00    +0.054 C 
ATOM      7  C   UNL     1      -2.844   3.068 -23.903  0.00  0.00    +0.067 C 
ATOM      8  C   UNL     1      -3.867   3.039 -22.920  0.00  0.00    +0.132 C 
ATOM      9  N   UNL     1      -3.496   2.687 -21.598  0.00  0.00    +0.236 N 
ATOM     10  H   UNL     1      -4.185   2.648 -20.846  0.00  0.00    +0.203 HD
ATOM     11  C   UNL     1      -4.342   2.638 -20.669  0.00  0.00    +0.190 C 
ATOM     12  C   UNL     1      -2.114   2.390 -21.370  0.00  0.00    +0.073 C 
ATOM     13  C   UNL     1      -2.413   2.701 -22.564  0.00  0.00    +0.053 C 
ATOM     14  C   UNL     1      -3.618   2.982 -22.862  0.00  0.00    +0.015 C 
ATOM     15  C   UNL     1      -3.922   3.291 -24.043  0.00  0.00    +0.069 C 
ATOM     16  C   UNL     1      -3.028   3.326 -24.946  0.00  0.00    +0.208 C 
ATOM     17  O   UNL     1      -2.228   3.391 -25.913  0.00  0.00    -0.343 OA
ATOM     18  C   UNL     1      -2.879   3.728 -26.935  0.00  0.00    +0.191 C 
ATOM     19  C   UNL     1      -4.082   3.871 -26.598  0.00  0.00    +0.191 C 
ATOM     20  O   UNL     1      -4.175   3.623 -25.369  0.00  0.00    -0.343 OA
ATOM     21  C   UNL     1      -1.838   3.049 -24.654  0.00  0.00    +0.244 C 
ATOM     22  O   UNL     1      -0.407   2.899 -25.147  0.00  0.00    -0.479 OA
ATOM     23  C   UNL     1      -0.924   2.113 -21.076  0.00  0.00    +0.091 C 
ATOM     24 BR   UNL     1       1.478   1.559 -20.505  0.00  0.00    -0.050 Br
ATOM     25  C   UNL     1       0.561   2.492 -24.064  0.00  0.00    +0.167 A 
ENDROOT
BRANCH   1  27
ATOM     26  C   UNL     1       3.850   1.964 -24.360  0.00  0.00    +0.277 C 
ATOM     27  O   UNL     1       2.659   2.243 -24.655  0.00  0.00    -0.491 OA
ENDBRANCH   1  27
TORSDOF 1
ENDMDL
MODEL 3
REMARK VINA RESULT:    -9.847      1.823      4.892
REMARK INTER + INTRA:         -10.564
REMARK INTER:                 -10.443
REMARK INTRA:                  -0.121
REMARK UNBOUND:                -0.142
REMARK  Name = ZINC000096316250
REMARK  3 active torsions:
REMARK  status: ('A' for Active; 'I' for Inactive)
REMARK    1  A    between atoms: C_1  and  O_2
REMARK    2  A    between atoms: O_2  and  C_3
REMARK    3  A    between atoms: N_18  and  C_19
REMARK                            x       y       z     vdW  Elec       q    Type
REMARK                         _______ _______ _______ _____ _____    ______ ____
ROOT
ATOM      1  C   UNL     1      -4.355   2.902 -22.247  0.00  0.00    +0.163 A 
ATOM      2  C   UNL     1      -4.876   3.461 -23.263  0.00  0.00    +0.065 A 
ATOM      3  C   UNL     1      -4.158   3.839 -24.221  0.00  0.00    +0.025 A 
ATOM      4  C   UNL     1      -2.913   3.663 -24.177  0.00  0.00    -0.021 A 
ATOM      5  C   UNL     1      -2.371   3.108 -23.177  0.00  0.00    +0.013 A 
ATOM      6  C   UNL     1      -1.128   2.932 -23.134  0.00  0.00    +0.054 C 
ATOM      7  C   UNL     1       0.274   2.681 -22.977  0.00  0.00    +0.067 C 
ATOM      8  C   UNL     1       1.111   3.098 -24.045  0.00  0.00    +0.132 C 
ATOM      9  N   UNL     1       0.492   3.718 -25.160  0.00  0.00    +0.236 N 
ATOM     10  H   UNL     1       1.038   4.039 -25.959  0.00  0.00    +0.203 HD
ATOM     11  C   UNL     1       1.162   4.115 -26.147  0.00  0.00    +0.190 C 
ATOM     12  C   UNL     1      -0.931   3.870 -25.109  0.00  0.00    +0.073 C 
ATOM     13  C   UNL     1      -0.408   3.311 -24.096  0.00  0.00    +0.053 C 
ATOM     14  C   UNL     1       0.851   3.133 -24.051  0.00  0.00    +0.015 C 
ATOM     15  C   UNL     1       1.377   2.580 -23.051  0.00  0.00    +0.069 C 
ATOM     16  C   UNL     1       0.654   2.196 -22.078  0.00  0.00    +0.208 C 
ATOM     17  O   UNL     1       0.037   1.779 -21.066  0.00  0.00    -0.343 OA
ATOM     18  C   UNL     1       0.879   1.288 -20.271  0.00  0.00    +0.191 C 
ATOM     19  C   UNL     1       2.017   1.401 -20.795  0.00  0.00    +0.191 C 
ATOM     20  O   UNL     1       1.878   1.962 -21.911  0.00  0.00    -0.343 OA
ATOM     21  C   UNL     1      -0.589   2.371 -22.120  0.00  0.00    +0.244 C 
ATOM     22  O   UNL     1      -1.925   2.194 -21.416  0.00  0.00    -0.479 OA
ATOM     23  C   UNL     1      -2.175   4.046 -25.152  0.00  0.00    +0.091 C 
ATOM     24 BR   UNL     1      -4.680   4.391 -25.221  0.00  0.00    -0.050 Br
ATOM     25  C   UNL     1      -3.095   2.725 -22.206  0.00  0.00    +0.167 A 
ENDROOT
BRANCH   1  27
ATOM     26  C   UNL     1      -6.329   2.478 -21.427  0.00  0.00    +0.277 C 
ATOM     27  O   UNL     1      -5.080   2.526 -21.291  0.00  0.00    -0.491 OA
ENDBRANCH   1  27
TORSDOF 1
ENDMDL
MODEL 4
REMARK VINA RESULT:    -8.782      3.969      5.580
REMARK INTER + INTRA:          -9.437
REMARK INTER:                  -9.311
REMARK INTRA:                  -0.126
REMARK UNBOUND:                -0.142
REMARK  Name = ZINC000096316250
REMARK  3 active torsions:
REMARK  status: ('A' for Active; 'I' for Inactive)
REMARK    1  A    between atoms: C_1  and  O_2
REMARK    2  A    between atoms: O_2  and  C_3
REMARK    3  A    between atoms: N_18  and  C_19
REMARK                            x       y       z     vdW  Elec       q    Type
REMARK                         _______ _______ _______ _____ _____    ______ ____
ROOT
ATOM      1  C   UNL     1       4.682   6.706 -22.233  0.00  0.00    +0.163 A 
ATOM      2  C   UNL     1       5.843   6.194 -22.317  0.00  0.00    +0.065 A 
ATOM      3  C   UNL     1       5.997   5.032 -22.766  0.00  0.00    +0.025 A 
ATOM      4  C   UNL     1       4.995   4.368 -23.138  0.00  0.00    -0.021 A 
ATOM      5  C   UNL     1       3.830   4.855 -23.064  0.00  0.00    +0.013 A 
ATOM      6  C   UNL     1       2.830   4.191 -23.435  0.00  0.00    +0.054 C 
ATOM      7  C   UNL     1       1.622   3.528 -23.828  0.00  0.00    +0.067 C 
ATOM      8  C   UNL     1       1.765   2.212 -24.340  0.00  0.00    +0.132 C 
ATOM      9  N   UNL     1       3.076   1.676 -24.417  0.00  0.00    +0.236 N 
ATOM     10  H   UNL     1       3.245   0.737 -24.776  0.00  0.00    +0.203 HD
ATOM     11  C   UNL     1       3.288   0.519 -24.859  0.00  0.00    +0.190 C 
ATOM     12  C   UNL     1       4.145   2.516 -23.969  0.00  0.00    +0.073 C 
ATOM     13  C   UNL     1       2.985   3.025 -23.887  0.00  0.00    +0.053 C 
ATOM     14  C   UNL     1       1.972   2.353 -24.262  0.00  0.00    +0.015 C 
ATOM     15  C   UNL     1       0.819   2.850 -24.183  0.00  0.00    +0.069 C 
ATOM     16  C   UNL     1       0.658   4.025 -23.729  0.00  0.00    +0.208 C 
ATOM     17  O   UNL     1       0.385   5.174 -23.297  0.00  0.00    -0.343 OA
ATOM     18  C   UNL     1      -0.861   5.330 -23.365  0.00  0.00    +0.191 C 
ATOM     19  C   UNL     1      -1.357   4.276 -23.839  0.00  0.00    +0.191 C 
ATOM     20  O   UNL     1      -0.420   3.470 -24.064  0.00  0.00    -0.343 OA
ATOM     21  C   UNL     1       1.657   4.690 -23.358  0.00  0.00    +0.244 C 
ATOM     22  O   UNL     1       2.173   5.999 -22.779  0.00  0.00    -0.479 OA
ATOM     23  C   UNL     1       5.146   3.181 -23.598  0.00  0.00    +0.091 C 
ATOM     24 BR   UNL     1       7.147   4.534 -22.846  0.00  0.00    -0.050 Br
ATOM     25  C   UNL     1       3.671   6.031 -22.609  0.00  0.00    +0.167 A 
ENDROOT
BRANCH   1  27
ATOM     26  C   UNL     1       5.121   8.215 -20.724  0.00  0.00    +0.277 C 
ATOM     27  O   UNL     1       4.535   7.870 -21.782  0.00  0.00    -0.491 OA
ENDBRANCH   1  27
TORSDOF 1
ENDMDL
MODEL 5
REMARK VINA RESULT:    -8.521      5.122      8.139
REMARK INTER + INTRA:          -9.162
REMARK INTER:                  -9.029
REMARK INTRA:                  -0.133
REMARK UNBOUND:                -0.142
REMARK  Name = ZINC000096316250
REMARK  3 active torsions:
REMARK  status: ('A' for Active; 'I' for Inactive)
REMARK    1  A    between atoms: C_1  and  O_2
REMARK    2  A    between atoms: O_2  and  C_3
REMARK    3  A    between atoms: N_18  and  C_19
REMARK                            x       y       z     vdW  Elec       q    Type
REMARK                         _______ _______ _______ _____ _____    ______ ____
ROOT
ATOM      1  C   UNL     1       1.266   4.776 -23.625  0.00  0.00    +0.163 A 
ATOM      2  C   UNL     1       1.239   3.639 -24.193  0.00  0.00    +0.065 A 
ATOM      3  C   UNL     1       2.293   2.972 -24.338  0.00  0.00    +0.025 A 
ATOM      4  C   UNL     1       3.386   3.432 -23.917  0.00  0.00    -0.021 A 
ATOM      5  C   UNL     1       3.439   4.560 -23.348  0.00  0.00    +0.013 A 
ATOM      6  C   UNL     1       4.531   5.019 -22.929  0.00  0.00    +0.054 C 
ATOM      7  C   UNL     1       5.716   5.638 -22.413  0.00  0.00    +0.067 C 
ATOM      8  C   UNL     1       6.923   4.907 -22.562  0.00  0.00    +0.132 C 
ATOM      9  N   UNL     1       6.851   3.643 -23.201  0.00  0.00    +0.236 N 
ATOM     10  H   UNL     1       7.683   3.070 -23.339  0.00  0.00    +0.203 HD
ATOM     11  C   UNL     1       7.875   2.934 -23.373  0.00  0.00    +0.190 C 
ATOM     12  C   UNL     1       5.558   3.215 -23.642  0.00  0.00    +0.073 C 
ATOM     13  C   UNL     1       5.589   4.350 -23.074  0.00  0.00    +0.053 C 
ATOM     14  C   UNL     1       6.694   4.814 -22.649  0.00  0.00    +0.015 C 
ATOM     15  C   UNL     1       6.733   5.938 -22.085  0.00  0.00    +0.069 C 
ATOM     16  C   UNL     1       5.668   6.617 -21.936  0.00  0.00    +0.208 C 
ATOM     17  O   UNL     1       4.681   7.369 -21.737  0.00  0.00    -0.343 OA
ATOM     18  C   UNL     1       5.091   8.403 -21.152  0.00  0.00    +0.191 C 
ATOM     19  C   UNL     1       6.333   8.290 -20.990  0.00  0.00    +0.191 C 
ATOM     20  O   UNL     1       6.690   7.186 -21.474  0.00  0.00    -0.343 OA
ATOM     21  C   UNL     1       4.576   6.160 -22.355  0.00  0.00    +0.244 C 
ATOM     22  O   UNL     1       3.079   6.379 -22.511  0.00  0.00    -0.479 OA
ATOM     23  C   UNL     1       4.466   2.756 -24.062  0.00  0.00    +0.091 C 
ATOM     24 BR   UNL     1       2.257   1.850 -24.901  0.00  0.00    -0.050 Br
ATOM     25  C   UNL     1       2.374   5.238 -23.201  0.00  0.00    +0.167 A 
ENDROOT
BRANCH   1  27
ATOM     26  C   UNL     1      -0.781   4.929 -22.895  0.00  0.00    +0.277 C 
ATOM     27  O   UNL     1       0.207   5.438 -23.483  0.00  0.00    -0.491 OA
ENDBRANCH   1  27
TORSDOF 1
ENDMDL
MODEL 6
REMARK VINA RESULT:    -8.239      3.837      7.756
REMARK INTER + INTRA:          -8.862
REMARK INTER:                  -8.741
REMARK INTRA:                  -0.122
REMARK UNBOUND:                -0.142
REMARK  Name = ZINC000096316250
REMARK  3 active torsions:
REMARK  status: ('A' for Active; 'I' for Inactive)
REMARK    1  A    between atoms: C_1  and  O_2
REMARK    2  A    between atoms: O_2  and  C_3
REMARK    3  A    between atoms: N_18  and  C_19
REMARK                            x       y       z     vdW  Elec       q    Type
REMARK                         _______ _______ _______ _____ _____    ______ ____
ROOT
ATOM      1  C   UNL     1       0.687   4.139 -23.297  0.00  0.00    +0.163 A 
ATOM      2  C   UNL     1      -0.076   3.213 -22.878  0.00  0.00    +0.065 A 
ATOM      3  C   UNL     1       0.402   2.204 -22.301  0.00  0.00    +0.025 A 
ATOM      4  C   UNL     1       1.646   2.109 -22.137  0.00  0.00    -0.021 A 
ATOM      5  C   UNL     1       2.426   3.018 -22.546  0.00  0.00    +0.013 A 
ATOM      6  C   UNL     1       3.668   2.922 -22.382  0.00  0.00    +0.054 C 
ATOM      7  C   UNL     1       5.094   2.919 -22.249  0.00  0.00    +0.067 C 
ATOM      8  C   UNL     1       5.663   1.791 -21.601  0.00  0.00    +0.132 C 
ATOM      9  N   UNL     1       4.779   0.780 -21.148  0.00  0.00    +0.236 N 
ATOM     10  H   UNL     1       5.126  -0.055 -20.675  0.00  0.00    +0.203 HD
ATOM     11  C   UNL     1       5.203  -0.250 -20.565  0.00  0.00    +0.190 C 
ATOM     12  C   UNL     1       3.383   0.987 -21.385  0.00  0.00    +0.073 C 
ATOM     13  C   UNL     1       4.147   1.911 -21.803  0.00  0.00    +0.053 C 
ATOM     14  C   UNL     1       5.405   1.814 -21.637  0.00  0.00    +0.015 C 
ATOM     15  C   UNL     1       6.169   2.725 -22.048  0.00  0.00    +0.069 C 
ATOM     16  C   UNL     1       5.690   3.747 -22.633  0.00  0.00    +0.208 C 
ATOM     17  O   UNL     1       5.325   4.797 -23.220  0.00  0.00    -0.343 OA
ATOM     18  C   UNL     1       6.352   5.473 -23.484  0.00  0.00    +0.191 C 
ATOM     19  C   UNL     1       7.352   4.840 -23.058  0.00  0.00    +0.191 C 
ATOM     20  O   UNL     1       6.943   3.774 -22.532  0.00  0.00    -0.343 OA
ATOM     21  C   UNL     1       4.448   3.844 -22.797  0.00  0.00    +0.244 C 
ATOM     22  O   UNL     1       3.296   4.675 -23.342  0.00  0.00    -0.479 OA
ATOM     23  C   UNL     1       2.140   1.083 -21.549  0.00  0.00    +0.091 C 
ATOM     24 BR   UNL     1      -0.359   1.294 -21.890  0.00  0.00    -0.050 Br
ATOM     25  C   UNL     1       1.945   4.039 -23.130  0.00  0.00    +0.167 A 
ENDROOT
BRANCH   1  27
ATOM     26  C   UNL     1      -0.992   5.477 -23.664  0.00  0.00    +0.277 C 
ATOM     27  O   UNL     1       0.203   5.146 -23.874  0.00  0.00    -0.491 OA
ENDBRANCH   1  27
TORSDOF 1
ENDMDL
MODEL 7
REMARK VINA RESULT:    -7.961      2.290      4.707
REMARK INTER + INTRA:          -8.569
REMARK INTER:                  -8.427
REMARK INTRA:                  -0.142
REMARK UNBOUND:                -0.142
REMARK  Name = ZINC000096316250
REMARK  3 active torsions:
REMARK  status: ('A' for Active; 'I' for Inactive)
REMARK    1  A    between atoms: C_1  and  O_2
REMARK    2  A    between atoms: O_2  and  C_3
REMARK    3  A    between atoms: N_18  and  C_19
REMARK                            x       y       z     vdW  Elec       q    Type
REMARK                         _______ _______ _______ _____ _____    ______ ____
ROOT
ATOM      1  C   UNL     1      -3.923   2.991 -20.828  0.00  0.00    +0.163 A 
ATOM      2  C   UNL     1      -5.134   3.104 -21.197  0.00  0.00    +0.065 A 
ATOM      3  C   UNL     1      -5.420   3.262 -22.410  0.00  0.00    +0.025 A 
ATOM      4  C   UNL     1      -4.500   3.308 -23.267  0.00  0.00    -0.021 A 
ATOM      5  C   UNL     1      -3.287   3.198 -22.925  0.00  0.00    +0.013 A 
ATOM      6  C   UNL     1      -2.369   3.244 -23.782  0.00  0.00    +0.054 C 
ATOM      7  C   UNL     1      -1.245   3.281 -24.669  0.00  0.00    +0.067 C 
ATOM      8  C   UNL     1      -1.537   3.458 -26.047  0.00  0.00    +0.132 C 
ATOM      9  N   UNL     1      -2.900   3.580 -26.419  0.00  0.00    +0.236 N 
ATOM     10  H   UNL     1      -3.175   3.709 -27.392  0.00  0.00    +0.203 HD
ATOM     11  C   UNL     1      -3.243   3.739 -27.618  0.00  0.00    +0.190 C 
ATOM     12  C   UNL     1      -3.866   3.514 -25.364  0.00  0.00    +0.073 C 
ATOM     13  C   UNL     1      -2.656   3.401 -24.999  0.00  0.00    +0.053 C 
ATOM     14  C   UNL     1      -1.726   3.448 -25.866  0.00  0.00    +0.015 C 
ATOM     15  C   UNL     1      -0.524   3.337 -25.511  0.00  0.00    +0.069 C 
ATOM     16  C   UNL     1      -0.231   3.178 -24.285  0.00  0.00    +0.208 C 
ATOM     17  O   UNL     1       0.171   3.018 -23.105  0.00  0.00    -0.343 OA
ATOM     18  C   UNL     1       1.427   2.947 -23.127  0.00  0.00    +0.191 C 
ATOM     19  C   UNL     1       1.800   3.064 -24.322  0.00  0.00    +0.191 C 
ATOM     20  O   UNL     1       0.776   3.207 -25.038  0.00  0.00    -0.343 OA
ATOM     21  C   UNL     1      -1.147   3.132 -23.427  0.00  0.00    +0.244 C 
ATOM     22  O   UNL     1      -1.511   2.982 -21.958  0.00  0.00    -0.479 OA
ATOM     23  C   UNL     1      -4.785   3.468 -24.507  0.00  0.00    +0.091 C 
ATOM     24 BR   UNL     1      -6.619   3.372 -22.766  0.00  0.00    -0.050 Br
ATOM     25  C   UNL     1      -2.995   3.038 -21.698  0.00  0.00    +0.167 A 
ENDROOT
BRANCH   1  27
ATOM     26  C   UNL     1      -3.087   3.761 -18.968  0.00  0.00    +0.277 C 
ATOM     27  O   UNL     1      -3.644   2.834 -19.612  0.00  0.00    -0.491 OA
ENDBRANCH   1  27
TORSDOF 1
ENDMDL
