MODEL 1
REMARK VINA RESULT:    -8.491      0.000      0.000
REMARK INTER + INTRA:         -11.668
REMARK INTER:                 -11.279
REMARK INTRA:                  -0.390
REMARK UNBOUND:                -0.695
REMARK  Name = O=C1c2cc3c(cc2[C@@H]2C[C@@H](OCc4ccccc4)CC[C@H]2N1Cc1ccccc1)OCO3     ZINC000247798826
REMARK  5 active torsions:
REMARK  status: ('A' for Active; 'I' for Inactive)
REMARK    1  A    between atoms: C_11  and  O_12
REMARK    2  A    between atoms: O_12  and  C_13
REMARK    3  A    between atoms: C_13  and  C_14
REMARK    4  A    between atoms: N_23  and  C_24
REMARK    5  A    between atoms: C_24  and  C_25
REMARK                            x       y       z     vdW  Elec       q    Type
REMARK                         _______ _______ _______ _____ _____    ______ ____
ROOT
ATOM      1  O   UNL     1       7.982   6.093 -21.696  0.00  0.00    -0.270 OA
ATOM      2  C   UNL     1       6.717   6.088 -21.995  0.00  0.00    +0.248 C 
ATOM      3  C   UNL     1       5.995   7.149 -21.787  0.00  0.00    +0.044 A 
ATOM      4  C   UNL     1       6.539   8.215 -21.280  0.00  0.00    +0.063 A 
ATOM      5  C   UNL     1       5.817   9.276 -21.072  0.00  0.00    +0.167 A 
ATOM      6  C   UNL     1       4.551   9.270 -21.371  0.00  0.00    +0.167 A 
ATOM      7  O   UNL     1       4.063  10.437 -21.071  0.00  0.00    -0.453 OA
ATOM      8  C   UNL     1       5.026  11.164 -20.585  0.00  0.00    +0.466 C 
ATOM      9  C   UNL     1       4.009   8.204 -21.878  0.00  0.00    +0.054 A 
ATOM     10  O   UNL     1       6.110  10.446 -20.586  0.00  0.00    -0.453 OA
ATOM     11  C   UNL     1       4.730   7.143 -22.087  0.00  0.00    -0.027 A 
ATOM     12  C   UNL     1       4.187   6.076 -22.594  0.00  0.00    +0.043 C 
ATOM     13  C   UNL     1       2.922   6.072 -22.893  0.00  0.00    +0.041 C 
ATOM     14  C   UNL     1       2.379   5.005 -23.400  0.00  0.00    +0.119 C 
ATOM     15  C   UNL     1       3.100   3.944 -23.609  0.00  0.00    +0.033 C 
ATOM     16  C   UNL     1       4.366   3.949 -23.309  0.00  0.00    +0.025 C 
ATOM     17  C   UNL     1       4.909   5.016 -22.802  0.00  0.00    +0.084 C 
ATOM     18  N   UNL     1       6.174   5.021 -22.503  0.00  0.00    -0.290 N 
ENDROOT
BRANCH  14  19
ATOM     19  O   UNL     1       1.114   4.999 -23.700  0.00  0.00    -0.372 OA
BRANCH  19  20
ATOM     20  C   UNL     1       0.488   3.871 -23.855  0.00  0.00    +0.195 C 
BRANCH  20  21
ATOM     21  C   UNL     1      -0.390   3.488 -22.976  0.00  0.00    -0.022 A 
ATOM     22  C   UNL     1      -1.418   4.240 -22.714  0.00  0.00    +0.006 A 
ATOM     23  C   UNL     1      -2.296   3.857 -21.834  0.00  0.00    +0.000 A 
ATOM     24  C   UNL     1      -2.146   2.722 -21.218  0.00  0.00    +0.000 A 
ATOM     25  C   UNL     1      -1.118   1.970 -21.480  0.00  0.00    +0.000 A 
ATOM     26  C   UNL     1      -0.240   2.353 -22.360  0.00  0.00    +0.006 A 
ENDBRANCH  20  21
ENDBRANCH  19  20
ENDBRANCH  14  19
BRANCH  18  27
ATOM     27  C   UNL     1       6.896   3.960 -22.711  0.00  0.00    +0.143 C 
BRANCH  27  28
ATOM     28  C   UNL     1       7.618   3.866 -23.787  0.00  0.00    -0.030 A 
ATOM     29  C   UNL     1       7.648   4.849 -24.637  0.00  0.00    +0.005 A 
ATOM     30  C   UNL     1       8.371   4.754 -25.714  0.00  0.00    +0.000 A 
ATOM     31  C   UNL     1       9.062   3.678 -25.941  0.00  0.00    +0.000 A 
ATOM     32  C   UNL     1       9.032   2.694 -25.091  0.00  0.00    +0.000 A 
ATOM     33  C   UNL     1       8.309   2.789 -24.013  0.00  0.00    +0.005 A 
ENDBRANCH  27  28
ENDBRANCH  18  27
TORSDOF 5
ENDMDL
MODEL 2
REMARK VINA RESULT:    -8.423      1.788      2.757
REMARK INTER + INTRA:         -11.580
REMARK INTER:                 -11.292
REMARK INTRA:                  -0.288
REMARK UNBOUND:                -0.695
REMARK  Name = O=C1c2cc3c(cc2[C@@H]2C[C@@H](OCc4ccccc4)CC[C@H]2N1Cc1ccccc1)OCO3     ZINC000247798826
REMARK  5 active torsions:
REMARK  status: ('A' for Active; 'I' for Inactive)
REMARK    1  A    between atoms: C_11  and  O_12
REMARK    2  A    between atoms: O_12  and  C_13
REMARK    3  A    between atoms: C_13  and  C_14
REMARK    4  A    between atoms: N_23  and  C_24
REMARK    5  A    between atoms: C_24  and  C_25
REMARK                            x       y       z     vdW  Elec       q    Type
REMARK                         _______ _______ _______ _____ _____    ______ ____
ROOT
ATOM      1  O   UNL     1       7.319   5.096 -21.970  0.00  0.00    -0.270 OA
ATOM      2  C   UNL     1       6.070   5.333 -22.245  0.00  0.00    +0.248 C 
ATOM      3  C   UNL     1       5.575   6.520 -22.051  0.00  0.00    +0.044 A 
ATOM      4  C   UNL     1       6.330   7.469 -21.583  0.00  0.00    +0.063 A 
ATOM      5  C   UNL     1       5.836   8.655 -21.390  0.00  0.00    +0.167 A 
ATOM      6  C   UNL     1       4.586   8.893 -21.665  0.00  0.00    +0.167 A 
ATOM      7  O   UNL     1       4.344  10.139 -21.386  0.00  0.00    -0.453 OA
ATOM      8  C   UNL     1       5.442  10.673 -20.939  0.00  0.00    +0.466 C 
ATOM      9  C   UNL     1       3.833   7.943 -22.132  0.00  0.00    +0.054 A 
ATOM     10  O   UNL     1       6.364   9.756 -20.941  0.00  0.00    -0.453 OA
ATOM     11  C   UNL     1       4.327   6.756 -22.326  0.00  0.00    -0.027 A 
ATOM     12  C   UNL     1       3.573   5.806 -22.794  0.00  0.00    +0.043 C 
ATOM     13  C   UNL     1       2.325   6.044 -23.069  0.00  0.00    +0.041 C 
ATOM     14  C   UNL     1       1.571   5.094 -23.537  0.00  0.00    +0.119 C 
ATOM     15  C   UNL     1       2.065   3.907 -23.731  0.00  0.00    +0.033 C 
ATOM     16  C   UNL     1       3.314   3.670 -23.456  0.00  0.00    +0.025 C 
ATOM     17  C   UNL     1       4.067   4.620 -22.988  0.00  0.00    +0.084 C 
ATOM     18  N   UNL     1       5.316   4.383 -22.713  0.00  0.00    -0.290 N 
ENDROOT
BRANCH  14  19
ATOM     19  O   UNL     1       0.323   5.330 -23.812  0.00  0.00    -0.372 OA
BRANCH  19  20
ATOM     20  C   UNL     1      -0.567   5.308 -22.864  0.00  0.00    +0.195 C 
BRANCH  20  21
ATOM     21  C   UNL     1      -1.626   4.563 -22.983  0.00  0.00    -0.022 A 
ATOM     22  C   UNL     1      -2.248   4.495 -24.123  0.00  0.00    +0.006 A 
ATOM     23  C   UNL     1      -3.307   3.749 -24.242  0.00  0.00    +0.000 A 
ATOM     24  C   UNL     1      -3.742   3.072 -23.221  0.00  0.00    +0.000 A 
ATOM     25  C   UNL     1      -3.120   3.139 -22.082  0.00  0.00    +0.000 A 
ATOM     26  C   UNL     1      -2.061   3.885 -21.963  0.00  0.00    +0.006 A 
ENDBRANCH  20  21
ENDBRANCH  19  20
ENDBRANCH  14  19
BRANCH  18  27
ATOM     27  C   UNL     1       5.811   3.197 -22.906  0.00  0.00    +0.143 C 
BRANCH  27  28
ATOM     28  C   UNL     1       5.432   2.204 -22.159  0.00  0.00    -0.030 A 
ATOM     29  C   UNL     1       5.676   2.222 -20.882  0.00  0.00    +0.005 A 
ATOM     30  C   UNL     1       5.297   1.229 -20.133  0.00  0.00    +0.000 A 
ATOM     31  C   UNL     1       4.674   0.218 -20.661  0.00  0.00    +0.000 A 
ATOM     32  C   UNL     1       4.429   0.199 -21.938  0.00  0.00    +0.000 A 
ATOM     33  C   UNL     1       4.808   1.193 -22.686  0.00  0.00    +0.005 A 
ENDBRANCH  27  28
ENDBRANCH  18  27
TORSDOF 5
ENDMDL
MODEL 3
REMARK VINA RESULT:    -7.632      1.680      6.314
REMARK INTER + INTRA:         -10.558
REMARK INTER:                 -10.272
REMARK INTRA:                  -0.286
REMARK UNBOUND:                -0.695
REMARK  Name = O=C1c2cc3c(cc2[C@@H]2C[C@@H](OCc4ccccc4)CC[C@H]2N1Cc1ccccc1)OCO3     ZINC000247798826
REMARK  5 active torsions:
REMARK  status: ('A' for Active; 'I' for Inactive)
REMARK    1  A    between atoms: C_11  and  O_12
REMARK    2  A    between atoms: O_12  and  C_13
REMARK    3  A    between atoms: C_13  and  C_14
REMARK    4  A    between atoms: N_23  and  C_24
REMARK    5  A    between atoms: C_24  and  C_25
REMARK                            x       y       z     vdW  Elec       q    Type
REMARK                         _______ _______ _______ _____ _____    ______ ____
ROOT
ATOM      1  O   UNL     1       4.860   2.124 -24.019  0.00  0.00    -0.270 OA
ATOM      2  C   UNL     1       4.579   3.314 -23.579  0.00  0.00    +0.248 C 
ATOM      3  C   UNL     1       3.356   3.753 -23.623  0.00  0.00    +0.044 A 
ATOM      4  C   UNL     1       2.413   2.999 -24.107  0.00  0.00    +0.063 A 
ATOM      5  C   UNL     1       1.191   3.437 -24.151  0.00  0.00    +0.167 A 
ATOM      6  C   UNL     1       0.910   4.628 -23.711  0.00  0.00    +0.167 A 
ATOM      7  O   UNL     1      -0.366   4.822 -23.865  0.00  0.00    -0.453 OA
ATOM      8  C   UNL     1      -0.875   3.752 -24.400  0.00  0.00    +0.466 C 
ATOM      9  C   UNL     1       1.852   5.380 -23.227  0.00  0.00    +0.054 A 
ATOM     10  O   UNL     1       0.087   2.895 -24.578  0.00  0.00    -0.453 OA
ATOM     11  C   UNL     1       3.075   4.943 -23.183  0.00  0.00    -0.027 A 
ATOM     12  C   UNL     1       4.019   5.696 -22.699  0.00  0.00    +0.043 C 
ATOM     13  C   UNL     1       3.737   6.886 -22.258  0.00  0.00    +0.041 C 
ATOM     14  C   UNL     1       4.680   7.639 -21.774  0.00  0.00    +0.119 C 
ATOM     15  C   UNL     1       5.903   7.202 -21.730  0.00  0.00    +0.033 C 
ATOM     16  C   UNL     1       6.184   6.011 -22.170  0.00  0.00    +0.025 C 
ATOM     17  C   UNL     1       5.241   5.258 -22.655  0.00  0.00    +0.084 C 
ATOM     18  N   UNL     1       5.522   4.068 -23.095  0.00  0.00    -0.290 N 
ENDROOT
BRANCH  14  19
ATOM     19  O   UNL     1       4.399   8.829 -21.334  0.00  0.00    -0.372 OA
BRANCH  19  20
ATOM     20  C   UNL     1       4.139   9.788 -22.173  0.00  0.00    +0.195 C 
BRANCH  20  21
ATOM     21  C   UNL     1       3.747  10.948 -21.734  0.00  0.00    -0.022 A 
ATOM     22  C   UNL     1       3.820  11.220 -20.465  0.00  0.00    +0.006 A 
ATOM     23  C   UNL     1       3.428  12.380 -20.026  0.00  0.00    +0.000 A 
ATOM     24  C   UNL     1       2.963  13.266 -20.857  0.00  0.00    +0.000 A 
ATOM     25  C   UNL     1       2.891  12.993 -22.126  0.00  0.00    +0.000 A 
ATOM     26  C   UNL     1       3.283  11.833 -22.565  0.00  0.00    +0.006 A 
ENDBRANCH  20  21
ENDBRANCH  19  20
ENDBRANCH  14  19
BRANCH  18  27
ATOM     27  C   UNL     1       6.745   3.629 -23.051  0.00  0.00    +0.143 C 
BRANCH  27  28
ATOM     28  C   UNL     1       7.517   3.750 -24.089  0.00  0.00    -0.030 A 
ATOM     29  C   UNL     1       8.250   2.748 -24.473  0.00  0.00    +0.005 A 
ATOM     30  C   UNL     1       9.023   2.868 -25.513  0.00  0.00    +0.000 A 
ATOM     31  C   UNL     1       9.062   3.991 -26.167  0.00  0.00    +0.000 A 
ATOM     32  C   UNL     1       8.329   4.993 -25.783  0.00  0.00    +0.000 A 
ATOM     33  C   UNL     1       7.556   4.873 -24.743  0.00  0.00    +0.005 A 
ENDBRANCH  27  28
ENDBRANCH  18  27
TORSDOF 5
ENDMDL
MODEL 4
REMARK VINA RESULT:    -7.541      2.709      7.289
REMARK INTER + INTRA:         -10.441
REMARK INTER:                 -10.132
REMARK INTRA:                  -0.309
REMARK UNBOUND:                -0.695
REMARK  Name = O=C1c2cc3c(cc2[C@@H]2C[C@@H](OCc4ccccc4)CC[C@H]2N1Cc1ccccc1)OCO3     ZINC000247798826
REMARK  5 active torsions:
REMARK  status: ('A' for Active; 'I' for Inactive)
REMARK    1  A    between atoms: C_11  and  O_12
REMARK    2  A    between atoms: O_12  and  C_13
REMARK    3  A    between atoms: C_13  and  C_14
REMARK    4  A    between atoms: N_23  and  C_24
REMARK    5  A    between atoms: C_24  and  C_25
REMARK                            x       y       z     vdW  Elec       q    Type
REMARK                         _______ _______ _______ _____ _____    ______ ____
ROOT
ATOM      1  O   UNL     1       1.938   1.051 -24.423  0.00  0.00    -0.270 OA
ATOM      2  C   UNL     1       2.070   2.291 -24.055  0.00  0.00    +0.248 C 
ATOM      3  C   UNL     1       1.039   3.084 -24.061  0.00  0.00    +0.044 A 
ATOM      4  C   UNL     1      -0.123   2.636 -24.434  0.00  0.00    +0.063 A 
ATOM      5  C   UNL     1      -1.153   3.428 -24.440  0.00  0.00    +0.167 A 
ATOM      6  C   UNL     1      -1.022   4.669 -24.073  0.00  0.00    +0.167 A 
ATOM      7  O   UNL     1      -2.185   5.241 -24.168  0.00  0.00    -0.453 OA
ATOM      8  C   UNL     1      -3.036   4.355 -24.594  0.00  0.00    +0.466 C 
ATOM      9  C   UNL     1       0.140   5.116 -23.700  0.00  0.00    +0.054 A 
ATOM     10  O   UNL     1      -2.398   3.234 -24.762  0.00  0.00    -0.453 OA
ATOM     11  C   UNL     1       1.171   4.324 -23.694  0.00  0.00    -0.027 A 
ATOM     12  C   UNL     1       2.333   4.771 -23.321  0.00  0.00    +0.043 C 
ATOM     13  C   UNL     1       2.463   6.012 -22.954  0.00  0.00    +0.041 C 
ATOM     14  C   UNL     1       3.626   6.459 -22.580  0.00  0.00    +0.119 C 
ATOM     15  C   UNL     1       4.657   5.667 -22.574  0.00  0.00    +0.033 C 
ATOM     16  C   UNL     1       4.525   4.426 -22.942  0.00  0.00    +0.025 C 
ATOM     17  C   UNL     1       3.363   3.979 -23.315  0.00  0.00    +0.084 C 
ATOM     18  N   UNL     1       3.231   2.739 -23.682  0.00  0.00    -0.290 N 
ENDROOT
BRANCH  14  19
ATOM     19  O   UNL     1       3.757   7.699 -22.213  0.00  0.00    -0.372 OA
BRANCH  19  20
ATOM     20  C   UNL     1       4.904   8.130 -21.776  0.00  0.00    +0.195 C 
BRANCH  20  21
ATOM     21  C   UNL     1       5.069   9.393 -21.519  0.00  0.00    -0.022 A 
ATOM     22  C   UNL     1       6.131  10.010 -21.944  0.00  0.00    +0.006 A 
ATOM     23  C   UNL     1       6.296  11.274 -21.686  0.00  0.00    +0.000 A 
ATOM     24  C   UNL     1       5.398  11.920 -21.004  0.00  0.00    +0.000 A 
ATOM     25  C   UNL     1       4.335  11.303 -20.578  0.00  0.00    +0.000 A 
ATOM     26  C   UNL     1       4.171  10.039 -20.836  0.00  0.00    +0.006 A 
ENDBRANCH  20  21
ENDBRANCH  19  20
ENDBRANCH  14  19
BRANCH  18  27
ATOM     27  C   UNL     1       4.262   1.946 -23.676  0.00  0.00    +0.143 C 
BRANCH  27  28
ATOM     28  C   UNL     1       4.547   1.258 -22.611  0.00  0.00    -0.030 A 
ATOM     29  C   UNL     1       5.770   0.870 -22.398  0.00  0.00    +0.005 A 
ATOM     30  C   UNL     1       6.056   0.181 -21.332  0.00  0.00    +0.000 A 
ATOM     31  C   UNL     1       5.120  -0.118 -20.481  0.00  0.00    +0.000 A 
ATOM     32  C   UNL     1       3.898   0.270 -20.695  0.00  0.00    +0.000 A 
ATOM     33  C   UNL     1       3.612   0.959 -21.760  0.00  0.00    +0.005 A 
ENDBRANCH  27  28
ENDBRANCH  18  27
TORSDOF 5
ENDMDL
MODEL 5
REMARK VINA RESULT:    -7.446      3.358      8.343
REMARK INTER + INTRA:         -10.317
REMARK INTER:                  -9.858
REMARK INTRA:                  -0.460
REMARK UNBOUND:                -0.695
REMARK  Name = O=C1c2cc3c(cc2[C@@H]2C[C@@H](OCc4ccccc4)CC[C@H]2N1Cc1ccccc1)OCO3     ZINC000247798826
REMARK  5 active torsions:
REMARK  status: ('A' for Active; 'I' for Inactive)
REMARK    1  A    between atoms: C_11  and  O_12
REMARK    2  A    between atoms: O_12  and  C_13
REMARK    3  A    between atoms: C_13  and  C_14
REMARK    4  A    between atoms: N_23  and  C_24
REMARK    5  A    between atoms: C_24  and  C_25
REMARK                            x       y       z     vdW  Elec       q    Type
REMARK                         _______ _______ _______ _____ _____    ______ ____
ROOT
ATOM      1  O   UNL     1       0.063   0.380 -22.480  0.00  0.00    -0.270 OA
ATOM      2  C   UNL     1       0.761   1.474 -22.540  0.00  0.00    +0.248 C 
ATOM      3  C   UNL     1       1.987   1.488 -22.107  0.00  0.00    +0.044 A 
ATOM      4  C   UNL     1       2.513   0.407 -21.613  0.00  0.00    +0.063 A 
ATOM      5  C   UNL     1       3.739   0.420 -21.180  0.00  0.00    +0.167 A 
ATOM      6  C   UNL     1       4.438   1.515 -21.241  0.00  0.00    +0.167 A 
ATOM      7  O   UNL     1       5.616   1.266 -20.750  0.00  0.00    -0.453 OA
ATOM      8  C   UNL     1       5.645   0.018 -20.386  0.00  0.00    +0.466 C 
ATOM      9  C   UNL     1       3.912   2.595 -21.734  0.00  0.00    +0.054 A 
ATOM     10  O   UNL     1       4.485  -0.506 -20.652  0.00  0.00    -0.453 OA
ATOM     11  C   UNL     1       2.686   2.582 -22.168  0.00  0.00    -0.027 A 
ATOM     12  C   UNL     1       2.159   3.663 -22.662  0.00  0.00    +0.043 C 
ATOM     13  C   UNL     1       2.860   4.757 -22.722  0.00  0.00    +0.041 C 
ATOM     14  C   UNL     1       2.333   5.838 -23.216  0.00  0.00    +0.119 C 
ATOM     15  C   UNL     1       1.107   5.826 -23.650  0.00  0.00    +0.033 C 
ATOM     16  C   UNL     1       0.407   4.731 -23.589  0.00  0.00    +0.025 C 
ATOM     17  C   UNL     1       0.934   3.650 -23.095  0.00  0.00    +0.084 C 
ATOM     18  N   UNL     1       0.235   2.556 -23.034  0.00  0.00    -0.290 N 
ENDROOT
BRANCH  14  19
ATOM     19  O   UNL     1       3.032   6.933 -23.277  0.00  0.00    -0.372 OA
BRANCH  19  20
ATOM     20  C   UNL     1       3.938   7.176 -22.377  0.00  0.00    +0.195 C 
BRANCH  20  21
ATOM     21  C   UNL     1       3.999   8.348 -21.817  0.00  0.00    -0.022 A 
ATOM     22  C   UNL     1       4.054   8.447 -20.522  0.00  0.00    +0.006 A 
ATOM     23  C   UNL     1       4.116   9.620 -19.962  0.00  0.00    +0.000 A 
ATOM     24  C   UNL     1       4.122  10.691 -20.699  0.00  0.00    +0.000 A 
ATOM     25  C   UNL     1       4.068  10.592 -21.994  0.00  0.00    +0.000 A 
ATOM     26  C   UNL     1       4.006   9.419 -22.553  0.00  0.00    +0.006 A 
ENDBRANCH  20  21
ENDBRANCH  19  20
ENDBRANCH  14  19
BRANCH  18  27
ATOM     27  C   UNL     1      -0.991   2.542 -23.468  0.00  0.00    +0.143 C 
BRANCH  27  28
ATOM     28  C   UNL     1      -1.966   2.863 -22.671  0.00  0.00    -0.030 A 
ATOM     29  C   UNL     1      -3.166   3.020 -23.145  0.00  0.00    +0.005 A 
ATOM     30  C   UNL     1      -4.142   3.341 -22.348  0.00  0.00    +0.000 A 
ATOM     31  C   UNL     1      -3.918   3.504 -21.078  0.00  0.00    +0.000 A 
ATOM     32  C   UNL     1      -2.718   3.347 -20.604  0.00  0.00    +0.000 A 
ATOM     33  C   UNL     1      -1.741   3.026 -21.401  0.00  0.00    +0.005 A 
ENDBRANCH  27  28
ENDBRANCH  18  27
TORSDOF 5
ENDMDL
MODEL 6
REMARK VINA RESULT:    -6.659      1.432      6.806
REMARK INTER + INTRA:          -9.301
REMARK INTER:                  -8.949
REMARK INTRA:                  -0.352
REMARK UNBOUND:                -0.695
REMARK  Name = O=C1c2cc3c(cc2[C@@H]2C[C@@H](OCc4ccccc4)CC[C@H]2N1Cc1ccccc1)OCO3     ZINC000247798826
REMARK  5 active torsions:
REMARK  status: ('A' for Active; 'I' for Inactive)
REMARK    1  A    between atoms: C_11  and  O_12
REMARK    2  A    between atoms: O_12  and  C_13
REMARK    3  A    between atoms: C_13  and  C_14
REMARK    4  A    between atoms: N_23  and  C_24
REMARK    5  A    between atoms: C_24  and  C_25
REMARK                            x       y       z     vdW  Elec       q    Type
REMARK                         _______ _______ _______ _____ _____    ______ ____
ROOT
ATOM      1  O   UNL     1       1.485   5.810 -23.087  0.00  0.00    -0.270 OA
ATOM      2  C   UNL     1       2.728   5.433 -23.057  0.00  0.00    +0.248 C 
ATOM      3  C   UNL     1       3.640   6.234 -22.590  0.00  0.00    +0.044 A 
ATOM      4  C   UNL     1       3.307   7.412 -22.153  0.00  0.00    +0.063 A 
ATOM      5  C   UNL     1       4.218   8.213 -21.687  0.00  0.00    +0.167 A 
ATOM      6  C   UNL     1       5.463   7.835 -21.657  0.00  0.00    +0.167 A 
ATOM      7  O   UNL     1       6.165   8.806 -21.152  0.00  0.00    -0.453 OA
ATOM      8  C   UNL     1       5.355   9.783 -20.869  0.00  0.00    +0.466 C 
ATOM      9  C   UNL     1       5.794   6.658 -22.094  0.00  0.00    +0.054 A 
ATOM     10  O   UNL     1       4.152   9.417 -21.199  0.00  0.00    -0.453 OA
ATOM     11  C   UNL     1       4.884   5.856 -22.561  0.00  0.00    -0.027 A 
ATOM     12  C   UNL     1       5.215   4.678 -22.998  0.00  0.00    +0.043 C 
ATOM     13  C   UNL     1       6.460   4.301 -22.968  0.00  0.00    +0.041 C 
ATOM     14  C   UNL     1       6.791   3.122 -23.405  0.00  0.00    +0.119 C 
ATOM     15  C   UNL     1       5.881   2.321 -23.872  0.00  0.00    +0.033 C 
ATOM     16  C   UNL     1       4.636   2.698 -23.902  0.00  0.00    +0.025 C 
ATOM     17  C   UNL     1       4.304   3.877 -23.465  0.00  0.00    +0.084 C 
ATOM     18  N   UNL     1       3.061   4.254 -23.494  0.00  0.00    -0.290 N 
ENDROOT
BRANCH  14  19
ATOM     19  O   UNL     1       8.035   2.745 -23.376  0.00  0.00    -0.372 OA
BRANCH  19  20
ATOM     20  C   UNL     1       8.975   3.576 -23.718  0.00  0.00    +0.195 C 
BRANCH  20  21
ATOM     21  C   UNL     1       8.948   4.143 -24.887  0.00  0.00    -0.022 A 
ATOM     22  C   UNL     1       8.808   5.432 -24.981  0.00  0.00    +0.006 A 
ATOM     23  C   UNL     1       8.781   5.999 -26.151  0.00  0.00    +0.000 A 
ATOM     24  C   UNL     1       8.894   5.276 -27.226  0.00  0.00    +0.000 A 
ATOM     25  C   UNL     1       9.033   3.987 -27.132  0.00  0.00    +0.000 A 
ATOM     26  C   UNL     1       9.061   3.420 -25.962  0.00  0.00    +0.006 A 
ENDBRANCH  20  21
ENDBRANCH  19  20
ENDBRANCH  14  19
BRANCH  18  27
ATOM     27  C   UNL     1       2.149   3.454 -23.961  0.00  0.00    +0.143 C 
BRANCH  27  28
ATOM     28  C   UNL     1       1.373   2.805 -23.145  0.00  0.00    -0.030 A 
ATOM     29  C   UNL     1       1.886   2.127 -22.162  0.00  0.00    +0.005 A 
ATOM     30  C   UNL     1       1.110   1.478 -21.345  0.00  0.00    +0.000 A 
ATOM     31  C   UNL     1      -0.179   1.508 -21.511  0.00  0.00    +0.000 A 
ATOM     32  C   UNL     1      -0.692   2.186 -22.494  0.00  0.00    +0.000 A 
ATOM     33  C   UNL     1       0.084   2.835 -23.311  0.00  0.00    +0.005 A 
ENDBRANCH  27  28
ENDBRANCH  18  27
TORSDOF 5
ENDMDL
MODEL 7
REMARK VINA RESULT:    -5.522      3.794      6.631
REMARK INTER + INTRA:          -7.831
REMARK INTER:                  -7.048
REMARK INTRA:                  -0.783
REMARK UNBOUND:                -0.695
REMARK  Name = O=C1c2cc3c(cc2[C@@H]2C[C@@H](OCc4ccccc4)CC[C@H]2N1Cc1ccccc1)OCO3     ZINC000247798826
REMARK  5 active torsions:
REMARK  status: ('A' for Active; 'I' for Inactive)
REMARK    1  A    between atoms: C_11  and  O_12
REMARK    2  A    between atoms: O_12  and  C_13
REMARK    3  A    between atoms: C_13  and  C_14
REMARK    4  A    between atoms: N_23  and  C_24
REMARK    5  A    between atoms: C_24  and  C_25
REMARK                            x       y       z     vdW  Elec       q    Type
REMARK                         _______ _______ _______ _____ _____    ______ ____
ROOT
ATOM      1  O   UNL     1       5.688   7.126 -20.087  0.00  0.00    -0.270 OA
ATOM      2  C   UNL     1       6.176   7.798 -21.087  0.00  0.00    +0.248 C 
ATOM      3  C   UNL     1       5.732   8.992 -21.347  0.00  0.00    +0.044 A 
ATOM      4  C   UNL     1       4.799   9.513 -20.606  0.00  0.00    +0.063 A 
ATOM      5  C   UNL     1       4.355  10.706 -20.866  0.00  0.00    +0.167 A 
ATOM      6  C   UNL     1       4.843  11.379 -21.866  0.00  0.00    +0.167 A 
ATOM      7  O   UNL     1       4.238  12.528 -21.911  0.00  0.00    -0.453 OA
ATOM      8  C   UNL     1       3.375  12.567 -20.939  0.00  0.00    +0.466 C 
ATOM      9  C   UNL     1       5.776  10.857 -22.606  0.00  0.00    +0.054 A 
ATOM     10  O   UNL     1       3.447  11.441 -20.293  0.00  0.00    -0.453 OA
ATOM     11  C   UNL     1       6.221   9.664 -22.347  0.00  0.00    -0.027 A 
ATOM     12  C   UNL     1       7.153   9.141 -23.087  0.00  0.00    +0.043 C 
ATOM     13  C   UNL     1       7.641   9.815 -24.086  0.00  0.00    +0.041 C 
ATOM     14  C   UNL     1       8.574   9.293 -24.826  0.00  0.00    +0.119 C 
ATOM     15  C   UNL     1       9.019   8.099 -24.567  0.00  0.00    +0.033 C 
ATOM     16  C   UNL     1       8.530   7.426 -23.567  0.00  0.00    +0.025 C 
ATOM     17  C   UNL     1       7.598   7.948 -22.827  0.00  0.00    +0.084 C 
ATOM     18  N   UNL     1       7.109   7.276 -21.827  0.00  0.00    -0.290 N 
ENDROOT
BRANCH  14  19
ATOM     19  O   UNL     1       9.062   9.965 -25.826  0.00  0.00    -0.372 OA
BRANCH  19  20
ATOM     20  C   UNL     1       9.045   9.455 -27.022  0.00  0.00    +0.195 C 
BRANCH  20  21
ATOM     21  C   UNL     1       7.914   9.275 -27.636  0.00  0.00    -0.022 A 
ATOM     22  C   UNL     1       7.625   8.111 -28.138  0.00  0.00    +0.006 A 
ATOM     23  C   UNL     1       6.492   7.931 -28.752  0.00  0.00    +0.000 A 
ATOM     24  C   UNL     1       5.650   8.915 -28.863  0.00  0.00    +0.000 A 
ATOM     25  C   UNL     1       5.939  10.079 -28.361  0.00  0.00    +0.000 A 
ATOM     26  C   UNL     1       7.072  10.259 -27.747  0.00  0.00    +0.006 A 
ENDBRANCH  20  21
ENDBRANCH  19  20
ENDBRANCH  14  19
BRANCH  18  27
ATOM     27  C   UNL     1       7.553   6.082 -21.567  0.00  0.00    +0.143 C 
BRANCH  27  28
ATOM     28  C   UNL     1       6.812   5.044 -21.814  0.00  0.00    -0.030 A 
ATOM     29  C   UNL     1       6.079   5.011 -22.887  0.00  0.00    +0.005 A 
ATOM     30  C   UNL     1       5.336   3.971 -23.135  0.00  0.00    +0.000 A 
ATOM     31  C   UNL     1       5.328   2.967 -22.310  0.00  0.00    +0.000 A 
ATOM     32  C   UNL     1       6.061   3.001 -21.237  0.00  0.00    +0.000 A 
ATOM     33  C   UNL     1       6.803   4.040 -20.989  0.00  0.00    +0.005 A 
ENDBRANCH  27  28
ENDBRANCH  18  27
TORSDOF 5
ENDMDL
