MODEL 1
REMARK VINA RESULT:    -8.056      0.000      0.000
REMARK INTER + INTRA:         -11.455
REMARK INTER:                 -10.628
REMARK INTRA:                  -0.828
REMARK UNBOUND:                -0.574
REMARK  Name = ZINC000001640064
REMARK  7 active torsions:
REMARK  status: ('A' for Active; 'I' for Inactive)
REMARK    1  A    between atoms: C_1  and  O_2
REMARK    2  A    between atoms: O_2  and  C_3
REMARK    3  A    between atoms: C_3  and  C_5
REMARK    4  A    between atoms: C_5  and  C_6
REMARK    5  A    between atoms: C_5  and  N_12
REMARK    6  A    between atoms: C_6  and  C_7
REMARK    7  A    between atoms: C_13  and  C_15
REMARK                            x       y       z     vdW  Elec       q    Type
REMARK                         _______ _______ _______ _____ _____    ______ ____
ROOT
ATOM      1  C   UNL     1       1.586   2.044 -22.617  0.00  0.00    +0.188 C 
ENDROOT
BRANCH   1   2
ATOM      2  N   UNL     1       0.475   2.454 -22.082  0.00  0.00    -0.298 N 
ATOM      3  H   UNL     1       0.479   2.849 -21.181  0.00  0.00    +0.150 HD
ATOM      4  C   UNL     1      -0.642   2.344 -22.738  0.00  0.00    +0.245 C 
ATOM      5  O   UNL     1      -0.648   1.823 -23.929  0.00  0.00    -0.270 OA
BRANCH   4   6
ATOM      6  C   UNL     1      -1.754   2.755 -22.204  0.00  0.00    +0.037 A 
ATOM      7  C   UNL     1      -1.806   3.030 -20.936  0.00  0.00    +0.013 A 
ATOM      8  C   UNL     1      -2.916   3.440 -20.401  0.00  0.00    +0.001 A 
ATOM      9  C   UNL     1      -3.981   3.576 -21.139  0.00  0.00    +0.000 A 
ATOM     10  C   UNL     1      -3.928   3.300 -22.407  0.00  0.00    +0.001 A 
ATOM     11  C   UNL     1      -2.818   2.890 -22.943  0.00  0.00    +0.013 A 
ENDBRANCH   4   6
ENDBRANCH   1   2
BRANCH   1  12
ATOM     12  C   UNL     1       2.142   0.945 -22.199  0.00  0.00    +0.328 C 
ATOM     13  O   UNL     1       2.243  -0.076 -22.997  0.00  0.00    -0.249 OA
BRANCH  12  15
ATOM     14  C   UNL     1       3.801   0.430 -20.767  0.00  0.00    +0.280 C 
ATOM     15  O   UNL     1       2.597   0.869 -20.984  0.00  0.00    -0.467 OA
ENDBRANCH  12  15
ENDBRANCH   1  12
BRANCH   1  16
ATOM     16  C   UNL     1       2.142   2.730 -23.571  0.00  0.00    +0.090 C 
BRANCH  16  17
ATOM     17  C   UNL     1       2.717   3.864 -23.305  0.00  0.00    +0.061 A 
ATOM     18  C   UNL     1       3.991   4.055 -23.137  0.00  0.00    +0.107 A 
ATOM     19  N   UNL     1       4.182   5.316 -22.889  0.00  0.00    -0.351 N 
ATOM     20  H   UNL     1       5.050   5.749 -22.720  0.00  0.00    +0.166 HD
ATOM     21  C   UNL     1       3.022   5.907 -22.904  0.00  0.00    +0.196 A 
ATOM     22  N   UNL     1       2.118   5.009 -23.161  0.00  0.00    -0.241 NA
ENDBRANCH  16  17
ENDBRANCH   1  16
TORSDOF 6
ENDMDL
MODEL 2
REMARK VINA RESULT:    -7.885      2.208      3.325
REMARK INTER + INTRA:         -11.225
REMARK INTER:                 -10.351
REMARK INTRA:                  -0.874
REMARK UNBOUND:                -0.574
REMARK  Name = ZINC000001640064
REMARK  7 active torsions:
REMARK  status: ('A' for Active; 'I' for Inactive)
REMARK    1  A    between atoms: C_1  and  O_2
REMARK    2  A    between atoms: O_2  and  C_3
REMARK    3  A    between atoms: C_3  and  C_5
REMARK    4  A    between atoms: C_5  and  C_6
REMARK    5  A    between atoms: C_5  and  N_12
REMARK    6  A    between atoms: C_6  and  C_7
REMARK    7  A    between atoms: C_13  and  C_15
REMARK                            x       y       z     vdW  Elec       q    Type
REMARK                         _______ _______ _______ _____ _____    ______ ____
ROOT
ATOM      1  C   UNL     1       0.872   3.178 -23.760  0.00  0.00    +0.188 C 
ENDROOT
BRANCH   1   2
ATOM      2  N   UNL     1      -0.168   3.247 -22.984  0.00  0.00    -0.298 N 
ATOM      3  H   UNL     1      -0.052   3.377 -22.015  0.00  0.00    +0.150 HD
ATOM      4  C   UNL     1      -1.362   3.144 -23.487  0.00  0.00    +0.245 C 
ATOM      5  O   UNL     1      -1.516   2.973 -24.767  0.00  0.00    -0.270 OA
BRANCH   4   6
ATOM      6  C   UNL     1      -2.403   3.213 -22.712  0.00  0.00    +0.037 A 
ATOM      7  C   UNL     1      -3.596   3.249 -23.223  0.00  0.00    +0.013 A 
ATOM      8  C   UNL     1      -4.638   3.318 -22.450  0.00  0.00    +0.001 A 
ATOM      9  C   UNL     1      -4.484   3.351 -21.157  0.00  0.00    +0.000 A 
ATOM     10  C   UNL     1      -3.291   3.316 -20.645  0.00  0.00    +0.001 A 
ATOM     11  C   UNL     1      -2.249   3.247 -21.419  0.00  0.00    +0.013 A 
ENDBRANCH   4   6
ENDBRANCH   1   2
BRANCH   1  12
ATOM     12  C   UNL     1       1.239   4.218 -24.449  0.00  0.00    +0.328 C 
ATOM     13  O   UNL     1       1.414   4.116 -25.734  0.00  0.00    -0.249 OA
BRANCH  12  15
ATOM     14  C   UNL     1       2.539   5.575 -23.209  0.00  0.00    +0.280 C 
ATOM     15  O   UNL     1       1.431   5.357 -23.854  0.00  0.00    -0.467 OA
ENDBRANCH  12  15
ENDBRANCH   1  12
BRANCH   1  16
ATOM     16  C   UNL     1       1.546   2.070 -23.848  0.00  0.00    +0.090 C 
BRANCH  16  17
ATOM     17  C   UNL     1       2.190   1.617 -22.815  0.00  0.00    +0.061 A 
ATOM     18  C   UNL     1       2.593   0.393 -22.640  0.00  0.00    +0.107 A 
ATOM     19  N   UNL     1       3.197   0.327 -21.491  0.00  0.00    -0.351 N 
ATOM     20  H   UNL     1       3.604  -0.477 -21.097  0.00  0.00    +0.166 HD
ATOM     21  C   UNL     1       3.168   1.512 -20.955  0.00  0.00    +0.196 A 
ATOM     22  N   UNL     1       2.546   2.308 -21.773  0.00  0.00    -0.241 NA
ENDBRANCH  16  17
ENDBRANCH   1  16
TORSDOF 6
ENDMDL
MODEL 3
REMARK VINA RESULT:    -7.303      2.669      3.571
REMARK INTER + INTRA:         -10.439
REMARK INTER:                 -10.311
REMARK INTRA:                  -0.128
REMARK UNBOUND:                -0.574
REMARK  Name = ZINC000001640064
REMARK  7 active torsions:
REMARK  status: ('A' for Active; 'I' for Inactive)
REMARK    1  A    between atoms: C_1  and  O_2
REMARK    2  A    between atoms: O_2  and  C_3
REMARK    3  A    between atoms: C_3  and  C_5
REMARK    4  A    between atoms: C_5  and  C_6
REMARK    5  A    between atoms: C_5  and  N_12
REMARK    6  A    between atoms: C_6  and  C_7
REMARK    7  A    between atoms: C_13  and  C_15
REMARK                            x       y       z     vdW  Elec       q    Type
REMARK                         _______ _______ _______ _____ _____    ______ ____
ROOT
ATOM      1  C   UNL     1       0.434   3.551 -23.697  0.00  0.00    +0.188 C 
ENDROOT
BRANCH   1   2
ATOM      2  N   UNL     1      -0.843   3.445 -23.916  0.00  0.00    -0.298 N 
ATOM      3  H   UNL     1      -1.171   2.899 -24.666  0.00  0.00    +0.150 HD
ATOM      4  C   UNL     1      -1.687   4.061 -23.142  0.00  0.00    +0.245 C 
ATOM      5  O   UNL     1      -1.255   4.782 -22.151  0.00  0.00    -0.270 OA
BRANCH   4   6
ATOM      6  C   UNL     1      -2.965   3.956 -23.359  0.00  0.00    +0.037 A 
ATOM      7  C   UNL     1      -3.749   3.500 -22.431  0.00  0.00    +0.013 A 
ATOM      8  C   UNL     1      -5.026   3.395 -22.646  0.00  0.00    +0.001 A 
ATOM      9  C   UNL     1      -5.521   3.747 -23.798  0.00  0.00    +0.000 A 
ATOM     10  C   UNL     1      -4.735   4.203 -24.728  0.00  0.00    +0.001 A 
ATOM     11  C   UNL     1      -3.459   4.309 -24.512  0.00  0.00    +0.013 A 
ENDBRANCH   4   6
ENDBRANCH   1   2
BRANCH   1  12
ATOM     12  C   UNL     1       1.116   4.497 -24.273  0.00  0.00    +0.328 C 
ATOM     13  O   UNL     1       1.342   4.449 -25.552  0.00  0.00    -0.249 OA
BRANCH  12  15
ATOM     14  C   UNL     1       2.800   5.480 -23.149  0.00  0.00    +0.280 C 
ATOM     15  O   UNL     1       1.570   5.491 -23.569  0.00  0.00    -0.467 OA
ENDBRANCH  12  15
ENDBRANCH   1  12
BRANCH   1  16
ATOM     16  C   UNL     1       1.031   2.711 -22.905  0.00  0.00    +0.090 C 
BRANCH  16  17
ATOM     17  C   UNL     1       1.968   1.938 -23.363  0.00  0.00    +0.061 A 
ATOM     18  C   UNL     1       2.990   1.494 -22.694  0.00  0.00    +0.107 A 
ATOM     19  N   UNL     1       3.703   0.754 -23.489  0.00  0.00    -0.351 N 
ATOM     20  H   UNL     1       4.536   0.286 -23.252  0.00  0.00    +0.166 HD
ATOM     21  C   UNL     1       3.121   0.739 -24.652  0.00  0.00    +0.196 A 
ATOM     22  N   UNL     1       2.050   1.471 -24.574  0.00  0.00    -0.241 NA
ENDBRANCH  16  17
ENDBRANCH   1  16
TORSDOF 6
ENDMDL
MODEL 4
REMARK VINA RESULT:    -7.248      2.858      6.279
REMARK INTER + INTRA:         -10.364
REMARK INTER:                  -9.593
REMARK INTRA:                  -0.771
REMARK UNBOUND:                -0.574
REMARK  Name = ZINC000001640064
REMARK  7 active torsions:
REMARK  status: ('A' for Active; 'I' for Inactive)
REMARK    1  A    between atoms: C_1  and  O_2
REMARK    2  A    between atoms: O_2  and  C_3
REMARK    3  A    between atoms: C_3  and  C_5
REMARK    4  A    between atoms: C_5  and  C_6
REMARK    5  A    between atoms: C_5  and  N_12
REMARK    6  A    between atoms: C_6  and  C_7
REMARK    7  A    between atoms: C_13  and  C_15
REMARK                            x       y       z     vdW  Elec       q    Type
REMARK                         _______ _______ _______ _____ _____    ______ ____
ROOT
ATOM      1  C   UNL     1      -2.126   3.563 -22.963  0.00  0.00    +0.188 C 
ENDROOT
BRANCH   1   2
ATOM      2  N   UNL     1      -1.091   2.792 -23.113  0.00  0.00    -0.298 N 
ATOM      3  H   UNL     1      -1.213   1.828 -23.265  0.00  0.00    +0.150 HD
ATOM      4  C   UNL     1       0.107   3.295 -23.062  0.00  0.00    +0.245 C 
ATOM      5  O   UNL     1       0.269   4.569 -22.862  0.00  0.00    -0.270 OA
BRANCH   4   6
ATOM      6  C   UNL     1       1.143   2.525 -23.212  0.00  0.00    +0.037 A 
ATOM      7  C   UNL     1       1.919   2.668 -24.243  0.00  0.00    +0.013 A 
ATOM      8  C   UNL     1       2.955   1.900 -24.395  0.00  0.00    +0.001 A 
ATOM      9  C   UNL     1       3.216   0.981 -23.508  0.00  0.00    +0.000 A 
ATOM     10  C   UNL     1       2.439   0.838 -22.477  0.00  0.00    +0.001 A 
ATOM     11  C   UNL     1       1.403   1.607 -22.325  0.00  0.00    +0.013 A 
ENDBRANCH   4   6
ENDBRANCH   1   2
BRANCH   1  12
ATOM     12  C   UNL     1      -2.820   3.514 -21.864  0.00  0.00    +0.328 C 
ATOM     13  O   UNL     1      -2.581   4.360 -20.907  0.00  0.00    -0.249 OA
BRANCH  12  15
ATOM     14  C   UNL     1      -4.997   2.985 -21.646  0.00  0.00    +0.280 C 
ATOM     15  O   UNL     1      -3.753   2.619 -21.724  0.00  0.00    -0.467 OA
ENDBRANCH  12  15
ENDBRANCH   1  12
BRANCH   1  16
ATOM     16  C   UNL     1      -2.469   4.385 -23.911  0.00  0.00    +0.090 C 
BRANCH  16  17
ATOM     17  C   UNL     1      -3.163   3.958 -24.921  0.00  0.00    +0.061 A 
ATOM     18  C   UNL     1      -4.443   4.112 -25.091  0.00  0.00    +0.107 A 
ATOM     19  N   UNL     1      -4.773   3.550 -26.215  0.00  0.00    -0.351 N 
ATOM     20  H   UNL     1      -5.678   3.512 -26.600  0.00  0.00    +0.166 HD
ATOM     21  C   UNL     1      -3.695   3.048 -26.742  0.00  0.00    +0.196 A 
ATOM     22  N   UNL     1      -2.702   3.299 -25.943  0.00  0.00    -0.241 NA
ENDBRANCH  16  17
ENDBRANCH   1  16
TORSDOF 6
ENDMDL
MODEL 5
REMARK VINA RESULT:    -7.121      2.486      3.668
REMARK INTER + INTRA:         -10.192
REMARK INTER:                 -10.100
REMARK INTRA:                  -0.093
REMARK UNBOUND:                -0.574
REMARK  Name = ZINC000001640064
REMARK  7 active torsions:
REMARK  status: ('A' for Active; 'I' for Inactive)
REMARK    1  A    between atoms: C_1  and  O_2
REMARK    2  A    between atoms: O_2  and  C_3
REMARK    3  A    between atoms: C_3  and  C_5
REMARK    4  A    between atoms: C_5  and  C_6
REMARK    5  A    between atoms: C_5  and  N_12
REMARK    6  A    between atoms: C_6  and  C_7
REMARK    7  A    between atoms: C_13  and  C_15
REMARK                            x       y       z     vdW  Elec       q    Type
REMARK                         _______ _______ _______ _____ _____    ______ ____
ROOT
ATOM      1  C   UNL     1       0.492   2.532 -23.393  0.00  0.00    +0.188 C 
ENDROOT
BRANCH   1   2
ATOM      2  N   UNL     1      -0.620   2.564 -24.063  0.00  0.00    -0.298 N 
ATOM      3  H   UNL     1      -0.771   1.927 -24.798  0.00  0.00    +0.150 HD
ATOM      4  C   UNL     1      -1.535   3.438 -23.764  0.00  0.00    +0.245 C 
ATOM      5  O   UNL     1      -1.336   4.280 -22.793  0.00  0.00    -0.270 OA
BRANCH   4   6
ATOM      6  C   UNL     1      -2.648   3.470 -24.433  0.00  0.00    +0.037 A 
ATOM      7  C   UNL     1      -3.761   3.772 -23.836  0.00  0.00    +0.013 A 
ATOM      8  C   UNL     1      -4.874   3.805 -24.504  0.00  0.00    +0.001 A 
ATOM      9  C   UNL     1      -4.875   3.534 -25.778  0.00  0.00    +0.000 A 
ATOM     10  C   UNL     1      -3.761   3.233 -26.376  0.00  0.00    +0.001 A 
ATOM     11  C   UNL     1      -2.648   3.200 -25.708  0.00  0.00    +0.013 A 
ENDBRANCH   4   6
ENDBRANCH   1   2
BRANCH   1  12
ATOM     12  C   UNL     1       1.535   3.174 -23.832  0.00  0.00    +0.328 C 
ATOM     13  O   UNL     1       2.167   2.742 -24.883  0.00  0.00    -0.249 OA
BRANCH  12  15
ATOM     14  C   UNL     1       3.207   4.552 -23.223  0.00  0.00    +0.280 C 
ATOM     15  O   UNL     1       1.944   4.246 -23.221  0.00  0.00    -0.467 OA
ENDBRANCH  12  15
ENDBRANCH   1  12
BRANCH   1  16
ATOM     16  C   UNL     1       0.565   1.860 -22.282  0.00  0.00    +0.090 C 
BRANCH  16  17
ATOM     17  C   UNL     1       1.705   1.383 -21.885  0.00  0.00    +0.061 A 
ATOM     18  C   UNL     1       2.336   1.715 -20.798  0.00  0.00    +0.107 A 
ATOM     19  N   UNL     1       3.437   1.027 -20.744  0.00  0.00    -0.351 N 
ATOM     20  H   UNL     1       4.114   1.072 -20.031  0.00  0.00    +0.166 HD
ATOM     21  C   UNL     1       3.487   0.268 -21.800  0.00  0.00    +0.196 A 
ATOM     22  N   UNL     1       2.417   0.488 -22.503  0.00  0.00    -0.241 NA
ENDBRANCH  16  17
ENDBRANCH   1  16
TORSDOF 6
ENDMDL
MODEL 6
REMARK VINA RESULT:    -7.047      2.477      5.925
REMARK INTER + INTRA:         -10.093
REMARK INTER:                  -9.279
REMARK INTRA:                  -0.814
REMARK UNBOUND:                -0.574
REMARK  Name = ZINC000001640064
REMARK  7 active torsions:
REMARK  status: ('A' for Active; 'I' for Inactive)
REMARK    1  A    between atoms: C_1  and  O_2
REMARK    2  A    between atoms: O_2  and  C_3
REMARK    3  A    between atoms: C_3  and  C_5
REMARK    4  A    between atoms: C_5  and  C_6
REMARK    5  A    between atoms: C_5  and  N_12
REMARK    6  A    between atoms: C_6  and  C_7
REMARK    7  A    between atoms: C_13  and  C_15
REMARK                            x       y       z     vdW  Elec       q    Type
REMARK                         _______ _______ _______ _____ _____    ______ ____
ROOT
ATOM      1  C   UNL     1      -1.431   2.827 -22.986  0.00  0.00    +0.188 C 
ENDROOT
BRANCH   1   2
ATOM      2  N   UNL     1      -0.289   3.444 -23.033  0.00  0.00    -0.298 N 
ATOM      3  H   UNL     1      -0.262   4.427 -23.076  0.00  0.00    +0.150 HD
ATOM      4  C   UNL     1       0.819   2.764 -23.022  0.00  0.00    +0.245 C 
ATOM      5  O   UNL     1       0.784   1.466 -22.965  0.00  0.00    -0.270 OA
BRANCH   4   6
ATOM      6  C   UNL     1       1.962   3.381 -23.069  0.00  0.00    +0.037 A 
ATOM      7  C   UNL     1       3.069   2.703 -23.075  0.00  0.00    +0.013 A 
ATOM      8  C   UNL     1       4.213   3.318 -23.122  0.00  0.00    +0.001 A 
ATOM      9  C   UNL     1       4.248   4.620 -23.162  0.00  0.00    +0.000 A 
ATOM     10  C   UNL     1       3.140   5.298 -23.156  0.00  0.00    +0.001 A 
ATOM     11  C   UNL     1       1.997   4.683 -23.109  0.00  0.00    +0.013 A 
ENDBRANCH   4   6
ENDBRANCH   1   2
BRANCH   1  12
ATOM     12  C   UNL     1      -2.016   2.627 -21.842  0.00  0.00    +0.328 C 
ATOM     13  O   UNL     1      -2.173   1.415 -21.396  0.00  0.00    -0.249 OA
BRANCH  12  15
ATOM     14  C   UNL     1      -3.706   3.738 -20.853  0.00  0.00    +0.280 C 
ATOM     15  O   UNL     1      -2.443   3.637 -21.145  0.00  0.00    -0.467 OA
ENDBRANCH  12  15
ENDBRANCH   1  12
BRANCH   1  16
ATOM     16  C   UNL     1      -1.990   2.408 -24.082  0.00  0.00    +0.090 C 
BRANCH  16  17
ATOM     17  C   UNL     1      -2.820   3.174 -24.722  0.00  0.00    +0.061 A 
ATOM     18  C   UNL     1      -3.565   2.824 -25.728  0.00  0.00    +0.107 A 
ATOM     19  N   UNL     1      -4.258   3.859 -26.097  0.00  0.00    -0.351 N 
ATOM     20  H   UNL     1      -4.908   3.888 -26.836  0.00  0.00    +0.166 HD
ATOM     21  C   UNL     1      -3.942   4.852 -25.318  0.00  0.00    +0.196 A 
ATOM     22  N   UNL     1      -3.054   4.428 -24.469  0.00  0.00    -0.241 NA
ENDBRANCH  16  17
ENDBRANCH   1  16
TORSDOF 6
ENDMDL
MODEL 7
REMARK VINA RESULT:    -6.828      1.616      2.407
REMARK INTER + INTRA:          -9.797
REMARK INTER:                  -9.373
REMARK INTRA:                  -0.424
REMARK UNBOUND:                -0.574
REMARK  Name = ZINC000001640064
REMARK  7 active torsions:
REMARK  status: ('A' for Active; 'I' for Inactive)
REMARK    1  A    between atoms: C_1  and  O_2
REMARK    2  A    between atoms: O_2  and  C_3
REMARK    3  A    between atoms: C_3  and  C_5
REMARK    4  A    between atoms: C_5  and  C_6
REMARK    5  A    between atoms: C_5  and  N_12
REMARK    6  A    between atoms: C_6  and  C_7
REMARK    7  A    between atoms: C_13  and  C_15
REMARK                            x       y       z     vdW  Elec       q    Type
REMARK                         _______ _______ _______ _____ _____    ______ ____
ROOT
ATOM      1  C   UNL     1       2.828   2.339 -22.436  0.00  0.00    +0.188 C 
ENDROOT
BRANCH   1   2
ATOM      2  N   UNL     1       1.639   2.854 -22.544  0.00  0.00    -0.298 N 
ATOM      3  H   UNL     1       1.299   3.458 -21.846  0.00  0.00    +0.150 HD
ATOM      4  C   UNL     1       0.900   2.570 -23.575  0.00  0.00    +0.245 C 
ATOM      5  O   UNL     1       1.350   1.773 -24.498  0.00  0.00    -0.270 OA
BRANCH   4   6
ATOM      6  C   UNL     1      -0.289   3.085 -23.685  0.00  0.00    +0.037 A 
ATOM      7  C   UNL     1      -0.819   3.258 -24.857  0.00  0.00    +0.013 A 
ATOM      8  C   UNL     1      -2.007   3.772 -24.968  0.00  0.00    +0.001 A 
ATOM      9  C   UNL     1      -2.669   4.114 -23.899  0.00  0.00    +0.000 A 
ATOM     10  C   UNL     1      -2.138   3.940 -22.726  0.00  0.00    +0.001 A 
ATOM     11  C   UNL     1      -0.950   3.426 -22.615  0.00  0.00    +0.013 A 
ENDBRANCH   4   6
ENDBRANCH   1   2
BRANCH   1  12
ATOM     12  C   UNL     1       3.054   1.404 -21.561  0.00  0.00    +0.328 C 
ATOM     13  O   UNL     1       2.276   1.280 -20.527  0.00  0.00    -0.249 OA
BRANCH  12  15
ATOM     14  C   UNL     1       4.797   0.266 -20.703  0.00  0.00    +0.280 C 
ATOM     15  O   UNL     1       4.058   0.593 -21.721  0.00  0.00    -0.467 OA
ENDBRANCH  12  15
ENDBRANCH   1  12
BRANCH   1  16
ATOM     16  C   UNL     1       3.791   2.759 -23.202  0.00  0.00    +0.090 C 
BRANCH  16  17
ATOM     17  C   UNL     1       4.447   3.834 -22.890  0.00  0.00    +0.061 A 
ATOM     18  C   UNL     1       4.046   5.057 -23.075  0.00  0.00    +0.107 A 
ATOM     19  N   UNL     1       4.972   5.857 -22.637  0.00  0.00    -0.351 N 
ATOM     20  H   UNL     1       4.940   6.841 -22.649  0.00  0.00    +0.166 HD
ATOM     21  C   UNL     1       5.948   5.128 -22.180  0.00  0.00    +0.196 A 
ATOM     22  N   UNL     1       5.623   3.879 -22.336  0.00  0.00    -0.241 NA
ENDBRANCH  16  17
ENDBRANCH   1  16
TORSDOF 6
ENDMDL
MODEL 8
REMARK VINA RESULT:    -6.794      2.282      3.512
REMARK INTER + INTRA:          -9.751
REMARK INTER:                  -8.985
REMARK INTRA:                  -0.766
REMARK UNBOUND:                -0.574
REMARK  Name = ZINC000001640064
REMARK  7 active torsions:
REMARK  status: ('A' for Active; 'I' for Inactive)
REMARK    1  A    between atoms: C_1  and  O_2
REMARK    2  A    between atoms: O_2  and  C_3
REMARK    3  A    between atoms: C_3  and  C_5
REMARK    4  A    between atoms: C_5  and  C_6
REMARK    5  A    between atoms: C_5  and  N_12
REMARK    6  A    between atoms: C_6  and  C_7
REMARK    7  A    between atoms: C_13  and  C_15
REMARK                            x       y       z     vdW  Elec       q    Type
REMARK                         _______ _______ _______ _____ _____    ______ ____
ROOT
ATOM      1  C   UNL     1       4.692   3.143 -22.295  0.00  0.00    +0.188 C 
ENDROOT
BRANCH   1   2
ATOM      2  N   UNL     1       3.454   3.537 -22.272  0.00  0.00    -0.298 N 
ATOM      3  H   UNL     1       3.151   4.168 -21.580  0.00  0.00    +0.150 HD
ATOM      4  C   UNL     1       2.616   3.098 -23.163  0.00  0.00    +0.245 C 
ATOM      5  O   UNL     1       3.015   2.266 -24.078  0.00  0.00    -0.270 OA
BRANCH   4   6
ATOM      6  C   UNL     1       1.377   3.492 -23.141  0.00  0.00    +0.037 A 
ATOM      7  C   UNL     1       1.075   4.714 -23.460  0.00  0.00    +0.013 A 
ATOM      8  C   UNL     1      -0.162   5.109 -23.439  0.00  0.00    +0.001 A 
ATOM      9  C   UNL     1      -1.104   4.276 -23.095  0.00  0.00    +0.000 A 
ATOM     10  C   UNL     1      -0.801   3.053 -22.776  0.00  0.00    +0.001 A 
ATOM     11  C   UNL     1       0.436   2.658 -22.798  0.00  0.00    +0.013 A 
ENDBRANCH   4   6
ENDBRANCH   1   2
BRANCH   1  12
ATOM     12  C   UNL     1       5.109   2.256 -21.439  0.00  0.00    +0.328 C 
ATOM     13  O   UNL     1       5.703   2.637 -20.348  0.00  0.00    -0.249 OA
BRANCH  12  15
ATOM     14  C   UNL     1       4.066   0.315 -20.979  0.00  0.00    +0.280 C 
ATOM     15  O   UNL     1       4.931   0.991 -21.676  0.00  0.00    -0.467 OA
ENDBRANCH  12  15
ENDBRANCH   1  12
BRANCH   1  16
ATOM     16  C   UNL     1       5.515   3.634 -23.174  0.00  0.00    +0.090 C 
BRANCH  16  17
ATOM     17  C   UNL     1       6.089   4.778 -22.958  0.00  0.00    +0.061 A 
ATOM     18  C   UNL     1       7.174   5.211 -23.528  0.00  0.00    +0.107 A 
ATOM     19  N   UNL     1       7.435   6.393 -23.057  0.00  0.00    -0.351 N 
ATOM     20  H   UNL     1       8.198   6.961 -23.309  0.00  0.00    +0.166 HD
ATOM     21  C   UNL     1       6.509   6.693 -22.194  0.00  0.00    +0.196 A 
ATOM     22  N   UNL     1       5.678   5.696 -22.133  0.00  0.00    -0.241 NA
ENDBRANCH  16  17
ENDBRANCH   1  16
TORSDOF 6
ENDMDL
MODEL 9
REMARK VINA RESULT:    -6.583      2.023      5.970
REMARK INTER + INTRA:          -9.466
REMARK INTER:                  -8.892
REMARK INTRA:                  -0.574
REMARK UNBOUND:                -0.574
REMARK  Name = ZINC000001640064
REMARK  7 active torsions:
REMARK  status: ('A' for Active; 'I' for Inactive)
REMARK    1  A    between atoms: C_1  and  O_2
REMARK    2  A    between atoms: O_2  and  C_3
REMARK    3  A    between atoms: C_3  and  C_5
REMARK    4  A    between atoms: C_5  and  C_6
REMARK    5  A    between atoms: C_5  and  N_12
REMARK    6  A    between atoms: C_6  and  C_7
REMARK    7  A    between atoms: C_13  and  C_15
REMARK                            x       y       z     vdW  Elec       q    Type
REMARK                         _______ _______ _______ _____ _____    ______ ____
ROOT
ATOM      1  C   UNL     1      -0.333   2.845 -23.319  0.00  0.00    +0.188 C 
ENDROOT
BRANCH   1   2
ATOM      2  N   UNL     1       0.723   2.604 -22.600  0.00  0.00    -0.298 N 
ATOM      3  H   UNL     1       0.756   2.895 -21.661  0.00  0.00    +0.150 HD
ATOM      4  C   UNL     1       1.736   1.978 -23.123  0.00  0.00    +0.245 C 
ATOM      5  O   UNL     1       1.693   1.594 -24.364  0.00  0.00    -0.270 OA
BRANCH   4   6
ATOM      6  C   UNL     1       2.793   1.737 -22.405  0.00  0.00    +0.037 A 
ATOM      7  C   UNL     1       2.892   0.624 -21.744  0.00  0.00    +0.013 A 
ATOM      8  C   UNL     1       3.947   0.381 -21.027  0.00  0.00    +0.001 A 
ATOM      9  C   UNL     1       4.909   1.258 -20.970  0.00  0.00    +0.000 A 
ATOM     10  C   UNL     1       4.810   2.372 -21.632  0.00  0.00    +0.001 A 
ATOM     11  C   UNL     1       3.754   2.614 -22.349  0.00  0.00    +0.013 A 
ENDBRANCH   4   6
ENDBRANCH   1   2
BRANCH   1  12
ATOM     12  C   UNL     1      -0.299   3.766 -24.236  0.00  0.00    +0.328 C 
ATOM     13  O   UNL     1      -0.650   3.481 -25.455  0.00  0.00    -0.249 OA
BRANCH  12  15
ATOM     14  C   UNL     1      -0.519   5.629 -22.993  0.00  0.00    +0.280 C 
ATOM     15  O   UNL     1       0.087   4.970 -23.935  0.00  0.00    -0.467 OA
ENDBRANCH  12  15
ENDBRANCH   1  12
BRANCH   1  16
ATOM     16  C   UNL     1      -1.423   2.166 -23.121  0.00  0.00    +0.090 C 
BRANCH  16  17
ATOM     17  C   UNL     1      -2.345   2.632 -22.335  0.00  0.00    +0.061 A 
ATOM     18  C   UNL     1      -3.567   2.918 -22.673  0.00  0.00    +0.107 A 
ATOM     19  N   UNL     1      -4.187   3.358 -21.619  0.00  0.00    -0.351 N 
ATOM     20  H   UNL     1      -5.126   3.650 -21.578  0.00  0.00    +0.166 HD
ATOM     21  C   UNL     1      -3.346   3.343 -20.626  0.00  0.00    +0.196 A 
ATOM     22  N   UNL     1      -2.210   2.895 -21.068  0.00  0.00    -0.241 NA
ENDBRANCH  16  17
ENDBRANCH   1  16
TORSDOF 6
ENDMDL
