MODEL 1
REMARK VINA RESULT:    -9.873      0.000      0.000
REMARK INTER + INTRA:         -10.871
REMARK INTER:                 -11.556
REMARK INTRA:                   0.685
REMARK UNBOUND:                 0.733
REMARK  Name = ZINC000005037432
REMARK  5 active torsions:
REMARK  status: ('A' for Active; 'I' for Inactive)
REMARK    1  A    between atoms: C_1  and  O_2
REMARK    2  A    between atoms: O_2  and  C_3
REMARK    3  A    between atoms: C_4  and  C_5
REMARK    4  A    between atoms: C_5  and  O_6
REMARK    5  A    between atoms: C_7  and  O_8
REMARK                            x       y       z     vdW  Elec       q    Type
REMARK                         _______ _______ _______ _____ _____    ______ ____
ROOT
ATOM      1  C   UNL     1       0.194   2.245 -23.370  0.00  0.00    +0.140 A 
ATOM      2  C   UNL     1       0.951   2.660 -24.342  0.00  0.00    +0.061 A 
ATOM      3  C   UNL     1       0.469   3.461 -25.245  0.00  0.00    +0.126 A 
ATOM      4  C   UNL     1      -0.771   3.847 -25.178  0.00  0.00    +0.058 A 
ATOM      5  C   UNL     1      -1.528   3.432 -24.205  0.00  0.00    +0.040 A 
ATOM      6  C   UNL     1      -2.768   3.818 -24.137  0.00  0.00    +0.195 C 
ATOM      7  O   UNL     1      -3.250   4.619 -25.041  0.00  0.00    -0.287 OA
ATOM      8  C   UNL     1      -3.525   3.403 -23.166  0.00  0.00    +0.033 A 
ATOM      9  C   UNL     1      -4.764   3.789 -23.097  0.00  0.00    +0.012 A 
ATOM     10  C   UNL     1      -5.522   3.374 -22.125  0.00  0.00    +0.001 A 
ATOM     11  C   UNL     1      -5.040   2.574 -21.222  0.00  0.00    +0.001 A 
ATOM     12  C   UNL     1      -3.800   2.188 -21.290  0.00  0.00    +0.012 A 
ATOM     13  C   UNL     1      -3.043   2.603 -22.262  0.00  0.00    +0.033 A 
ATOM     14  C   UNL     1      -1.803   2.217 -22.330  0.00  0.00    +0.198 C 
ATOM     15  O   UNL     1      -1.321   1.416 -21.427  0.00  0.00    -0.286 OA
ATOM     16  C   UNL     1      -1.045   2.631 -23.302  0.00  0.00    +0.075 A 
ENDROOT
BRANCH   1  18
ATOM     17  C   UNL     1       1.699   1.810 -21.753  0.00  0.00    +0.277 C 
ATOM     18  O   UNL     1       0.676   1.445 -22.467  0.00  0.00    -0.494 OA
ENDBRANCH   1  18
BRANCH   3  19
ATOM     19  O   UNL     1       1.226   3.876 -26.217  0.00  0.00    -0.506 OA
ATOM     20  H   UNL     1       1.334   4.794 -26.368  0.00  0.00    +0.292 HD
ENDBRANCH   3  19
BRANCH   2  21
ATOM     21  C   UNL     1       2.190   2.274 -24.410  0.00  0.00    +0.198 C 
BRANCH  21  22
ATOM     22  O   UNL     1       2.516   1.264 -25.162  0.00  0.00    -0.390 OA
ATOM     23  H   UNL     1       3.367   1.444 -25.593  0.00  0.00    +0.210 HD
ENDBRANCH  21  22
ENDBRANCH   2  21
TORSDOF 4
ENDMDL
MODEL 2
REMARK VINA RESULT:    -9.716      1.355      3.126
REMARK INTER + INTRA:         -10.687
REMARK INTER:                 -11.336
REMARK INTRA:                   0.649
REMARK UNBOUND:                 0.733
REMARK  Name = ZINC000005037432
REMARK  5 active torsions:
REMARK  status: ('A' for Active; 'I' for Inactive)
REMARK    1  A    between atoms: C_1  and  O_2
REMARK    2  A    between atoms: O_2  and  C_3
REMARK    3  A    between atoms: C_4  and  C_5
REMARK    4  A    between atoms: C_5  and  O_6
REMARK    5  A    between atoms: C_7  and  O_8
REMARK                            x       y       z     vdW  Elec       q    Type
REMARK                         _______ _______ _______ _____ _____    ______ ____
ROOT
ATOM      1  C   UNL     1       0.328   2.390 -23.609  0.00  0.00    +0.140 A 
ATOM      2  C   UNL     1       1.065   1.894 -22.660  0.00  0.00    +0.061 A 
ATOM      3  C   UNL     1       0.549   1.661 -21.490  0.00  0.00    +0.126 A 
ATOM      4  C   UNL     1      -0.705   1.924 -21.268  0.00  0.00    +0.058 A 
ATOM      5  C   UNL     1      -1.442   2.420 -22.218  0.00  0.00    +0.040 A 
ATOM      6  C   UNL     1      -2.696   2.683 -21.995  0.00  0.00    +0.195 C 
ATOM      7  O   UNL     1      -3.212   2.450 -20.825  0.00  0.00    -0.287 OA
ATOM      8  C   UNL     1      -3.433   3.179 -22.944  0.00  0.00    +0.033 A 
ATOM      9  C   UNL     1      -4.687   3.442 -22.723  0.00  0.00    +0.012 A 
ATOM     10  C   UNL     1      -5.425   3.938 -23.672  0.00  0.00    +0.001 A 
ATOM     11  C   UNL     1      -4.909   4.171 -24.842  0.00  0.00    +0.001 A 
ATOM     12  C   UNL     1      -3.654   3.908 -25.063  0.00  0.00    +0.012 A 
ATOM     13  C   UNL     1      -2.917   3.412 -24.114  0.00  0.00    +0.033 A 
ATOM     14  C   UNL     1      -1.664   3.149 -24.336  0.00  0.00    +0.198 C 
ATOM     15  O   UNL     1      -1.148   3.381 -25.506  0.00  0.00    -0.286 OA
ATOM     16  C   UNL     1      -0.925   2.653 -23.388  0.00  0.00    +0.075 A 
ENDROOT
BRANCH   1  18
ATOM     17  C   UNL     1       1.686   3.600 -24.936  0.00  0.00    +0.277 C 
ATOM     18  O   UNL     1       0.844   2.622 -24.779  0.00  0.00    -0.494 OA
ENDBRANCH   1  18
BRANCH   3  19
ATOM     19  O   UNL     1       1.286   1.165 -20.541  0.00  0.00    -0.506 OA
ATOM     20  H   UNL     1       0.885   0.752 -19.803  0.00  0.00    +0.292 HD
ENDBRANCH   3  19
BRANCH   2  21
ATOM     21  C   UNL     1       2.318   1.631 -22.882  0.00  0.00    +0.198 C 
BRANCH  21  22
ATOM     22  O   UNL     1       2.668   0.462 -23.334  0.00  0.00    -0.390 OA
ATOM     23  H   UNL     1       3.495   0.544 -23.835  0.00  0.00    +0.210 HD
ENDBRANCH  21  22
ENDBRANCH   2  21
TORSDOF 4
ENDMDL
MODEL 3
REMARK VINA RESULT:    -9.189      1.852      3.840
REMARK INTER + INTRA:         -10.067
REMARK INTER:                 -10.823
REMARK INTRA:                   0.755
REMARK UNBOUND:                 0.733
REMARK  Name = ZINC000005037432
REMARK  5 active torsions:
REMARK  status: ('A' for Active; 'I' for Inactive)
REMARK    1  A    between atoms: C_1  and  O_2
REMARK    2  A    between atoms: O_2  and  C_3
REMARK    3  A    between atoms: C_4  and  C_5
REMARK    4  A    between atoms: C_5  and  O_6
REMARK    5  A    between atoms: C_7  and  O_8
REMARK                            x       y       z     vdW  Elec       q    Type
REMARK                         _______ _______ _______ _____ _____    ______ ____
ROOT
ATOM      1  C   UNL     1       1.889   2.289 -22.879  0.00  0.00    +0.140 A 
ATOM      2  C   UNL     1       2.315   1.857 -21.729  0.00  0.00    +0.061 A 
ATOM      3  C   UNL     1       1.469   1.610 -20.773  0.00  0.00    +0.126 A 
ATOM      4  C   UNL     1       0.197   1.795 -20.965  0.00  0.00    +0.058 A 
ATOM      5  C   UNL     1      -0.229   2.228 -22.116  0.00  0.00    +0.040 A 
ATOM      6  C   UNL     1      -1.502   2.413 -22.308  0.00  0.00    +0.195 C 
ATOM      7  O   UNL     1      -2.347   2.166 -21.352  0.00  0.00    -0.287 OA
ATOM      8  C   UNL     1      -1.928   2.845 -23.458  0.00  0.00    +0.033 A 
ATOM      9  C   UNL     1      -3.200   3.031 -23.651  0.00  0.00    +0.012 A 
ATOM     10  C   UNL     1      -3.627   3.463 -24.801  0.00  0.00    +0.001 A 
ATOM     11  C   UNL     1      -2.782   3.710 -25.757  0.00  0.00    +0.001 A 
ATOM     12  C   UNL     1      -1.509   3.524 -25.563  0.00  0.00    +0.012 A 
ATOM     13  C   UNL     1      -1.083   3.092 -24.414  0.00  0.00    +0.033 A 
ATOM     14  C   UNL     1       0.189   2.907 -24.221  0.00  0.00    +0.198 C 
ATOM     15  O   UNL     1       1.034   3.154 -25.177  0.00  0.00    -0.286 OA
ATOM     16  C   UNL     1       0.617   2.475 -23.072  0.00  0.00    +0.075 A 
ENDROOT
BRANCH   1  18
ATOM     17  C   UNL     1       3.424   1.567 -24.359  0.00  0.00    +0.277 C 
ATOM     18  O   UNL     1       2.734   2.536 -23.835  0.00  0.00    -0.494 OA
ENDBRANCH   1  18
BRANCH   3  19
ATOM     19  O   UNL     1       1.896   1.178 -19.624  0.00  0.00    -0.506 OA
ATOM     20  H   UNL     1       2.560   1.650 -19.162  0.00  0.00    +0.292 HD
ENDBRANCH   3  19
BRANCH   2  21
ATOM     21  C   UNL     1       3.587   1.671 -21.536  0.00  0.00    +0.198 C 
BRANCH  21  22
ATOM     22  O   UNL     1       4.209   2.342 -20.611  0.00  0.00    -0.390 OA
ATOM     23  H   UNL     1       4.531   1.730 -19.931  0.00  0.00    +0.210 HD
ENDBRANCH  21  22
ENDBRANCH   2  21
TORSDOF 4
ENDMDL
MODEL 4
REMARK VINA RESULT:    -8.778      1.424      5.721
REMARK INTER + INTRA:          -9.584
REMARK INTER:                 -10.379
REMARK INTRA:                   0.794
REMARK UNBOUND:                 0.733
REMARK  Name = ZINC000005037432
REMARK  5 active torsions:
REMARK  status: ('A' for Active; 'I' for Inactive)
REMARK    1  A    between atoms: C_1  and  O_2
REMARK    2  A    between atoms: O_2  and  C_3
REMARK    3  A    between atoms: C_4  and  C_5
REMARK    4  A    between atoms: C_5  and  O_6
REMARK    5  A    between atoms: C_7  and  O_8
REMARK                            x       y       z     vdW  Elec       q    Type
REMARK                         _______ _______ _______ _____ _____    ______ ____
ROOT
ATOM      1  C   UNL     1      -2.874   3.637 -24.475  0.00  0.00    +0.140 A 
ATOM      2  C   UNL     1      -3.981   3.609 -23.795  0.00  0.00    +0.061 A 
ATOM      3  C   UNL     1      -3.982   3.164 -22.573  0.00  0.00    +0.126 A 
ATOM      4  C   UNL     1      -2.877   2.745 -22.032  0.00  0.00    +0.058 A 
ATOM      5  C   UNL     1      -1.769   2.772 -22.714  0.00  0.00    +0.040 A 
ATOM      6  C   UNL     1      -0.663   2.353 -22.173  0.00  0.00    +0.195 C 
ATOM      7  O   UNL     1      -0.665   1.908 -20.952  0.00  0.00    -0.287 OA
ATOM      8  C   UNL     1       0.444   2.381 -22.854  0.00  0.00    +0.033 A 
ATOM      9  C   UNL     1       1.549   1.962 -22.313  0.00  0.00    +0.012 A 
ATOM     10  C   UNL     1       2.657   1.990 -22.994  0.00  0.00    +0.001 A 
ATOM     11  C   UNL     1       2.658   2.436 -24.215  0.00  0.00    +0.001 A 
ATOM     12  C   UNL     1       1.552   2.854 -24.756  0.00  0.00    +0.012 A 
ATOM     13  C   UNL     1       0.445   2.827 -24.075  0.00  0.00    +0.033 A 
ATOM     14  C   UNL     1      -0.660   3.245 -24.615  0.00  0.00    +0.198 C 
ATOM     15  O   UNL     1      -0.659   3.691 -25.836  0.00  0.00    -0.286 OA
ATOM     16  C   UNL     1      -1.768   3.218 -23.935  0.00  0.00    +0.075 A 
ENDROOT
BRANCH   1  18
ATOM     17  C   UNL     1      -3.348   3.348 -26.657  0.00  0.00    +0.277 C 
ATOM     18  O   UNL     1      -2.872   4.083 -25.697  0.00  0.00    -0.494 OA
ENDBRANCH   1  18
BRANCH   3  19
ATOM     19  O   UNL     1      -5.089   3.136 -21.893  0.00  0.00    -0.506 OA
ATOM     20  H   UNL     1      -5.763   3.762 -22.069  0.00  0.00    +0.292 HD
ENDBRANCH   3  19
BRANCH   2  21
ATOM     21  C   UNL     1      -5.086   4.028 -24.335  0.00  0.00    +0.198 C 
BRANCH  21  22
ATOM     22  O   UNL     1      -5.242   5.291 -24.601  0.00  0.00    -0.390 OA
ATOM     23  H   UNL     1      -5.312   5.413 -25.561  0.00  0.00    +0.210 HD
ENDBRANCH  21  22
ENDBRANCH   2  21
TORSDOF 4
ENDMDL
MODEL 5
REMARK VINA RESULT:    -8.597      2.527      4.654
REMARK INTER + INTRA:          -9.372
REMARK INTER:                 -10.019
REMARK INTRA:                   0.647
REMARK UNBOUND:                 0.733
REMARK  Name = ZINC000005037432
REMARK  5 active torsions:
REMARK  status: ('A' for Active; 'I' for Inactive)
REMARK    1  A    between atoms: C_1  and  O_2
REMARK    2  A    between atoms: O_2  and  C_3
REMARK    3  A    between atoms: C_4  and  C_5
REMARK    4  A    between atoms: C_5  and  O_6
REMARK    5  A    between atoms: C_7  and  O_8
REMARK                            x       y       z     vdW  Elec       q    Type
REMARK                         _______ _______ _______ _____ _____    ______ ____
ROOT
ATOM      1  C   UNL     1       3.448   2.961 -22.187  0.00  0.00    +0.140 A 
ATOM      2  C   UNL     1       4.030   1.944 -21.625  0.00  0.00    +0.061 A 
ATOM      3  C   UNL     1       3.340   0.885 -21.321  0.00  0.00    +0.126 A 
ATOM      4  C   UNL     1       2.066   0.843 -21.578  0.00  0.00    +0.058 A 
ATOM      5  C   UNL     1       1.483   1.861 -22.141  0.00  0.00    +0.040 A 
ATOM      6  C   UNL     1       0.210   1.819 -22.399  0.00  0.00    +0.195 C 
ATOM      7  O   UNL     1      -0.481   0.761 -22.095  0.00  0.00    -0.287 OA
ATOM      8  C   UNL     1      -0.373   2.836 -22.961  0.00  0.00    +0.033 A 
ATOM      9  C   UNL     1      -1.646   2.794 -23.219  0.00  0.00    +0.012 A 
ATOM     10  C   UNL     1      -2.229   3.812 -23.781  0.00  0.00    +0.001 A 
ATOM     11  C   UNL     1      -1.539   4.870 -24.085  0.00  0.00    +0.001 A 
ATOM     12  C   UNL     1      -0.265   4.912 -23.827  0.00  0.00    +0.012 A 
ATOM     13  C   UNL     1       0.318   3.895 -23.265  0.00  0.00    +0.033 A 
ATOM     14  C   UNL     1       1.591   3.936 -23.007  0.00  0.00    +0.198 C 
ATOM     15  O   UNL     1       2.282   4.995 -23.311  0.00  0.00    -0.286 OA
ATOM     16  C   UNL     1       2.175   2.919 -22.445  0.00  0.00    +0.075 A 
ENDROOT
BRANCH   1  18
ATOM     17  C   UNL     1       5.094   3.942 -23.368  0.00  0.00    +0.277 C 
ATOM     18  O   UNL     1       4.139   4.020 -22.491  0.00  0.00    -0.494 OA
ENDBRANCH   1  18
BRANCH   3  19
ATOM     19  O   UNL     1       3.922  -0.132 -20.759  0.00  0.00    -0.506 OA
ATOM     20  H   UNL     1       3.547  -0.524 -19.996  0.00  0.00    +0.292 HD
ENDBRANCH   3  19
BRANCH   2  21
ATOM     21  C   UNL     1       5.303   1.986 -21.367  0.00  0.00    +0.198 C 
BRANCH  21  22
ATOM     22  O   UNL     1       5.722   2.459 -20.230  0.00  0.00    -0.390 OA
ATOM     23  H   UNL     1       6.519   1.979 -19.954  0.00  0.00    +0.210 HD
ENDBRANCH  21  22
ENDBRANCH   2  21
TORSDOF 4
ENDMDL
MODEL 6
REMARK VINA RESULT:    -8.350      2.574      4.016
REMARK INTER + INTRA:          -9.082
REMARK INTER:                  -9.908
REMARK INTRA:                   0.826
REMARK UNBOUND:                 0.733
REMARK  Name = ZINC000005037432
REMARK  5 active torsions:
REMARK  status: ('A' for Active; 'I' for Inactive)
REMARK    1  A    between atoms: C_1  and  O_2
REMARK    2  A    between atoms: O_2  and  C_3
REMARK    3  A    between atoms: C_4  and  C_5
REMARK    4  A    between atoms: C_5  and  O_6
REMARK    5  A    between atoms: C_7  and  O_8
REMARK                            x       y       z     vdW  Elec       q    Type
REMARK                         _______ _______ _______ _____ _____    ______ ____
ROOT
ATOM      1  C   UNL     1       3.463   1.913 -22.336  0.00  0.00    +0.140 A 
ATOM      2  C   UNL     1       4.630   2.481 -22.404  0.00  0.00    +0.061 A 
ATOM      3  C   UNL     1       4.735   3.701 -22.840  0.00  0.00    +0.126 A 
ATOM      4  C   UNL     1       3.673   4.354 -23.210  0.00  0.00    +0.058 A 
ATOM      5  C   UNL     1       2.505   3.784 -23.142  0.00  0.00    +0.040 A 
ATOM      6  C   UNL     1       1.442   4.437 -23.512  0.00  0.00    +0.195 C 
ATOM      7  O   UNL     1       1.547   5.657 -23.948  0.00  0.00    -0.287 OA
ATOM      8  C   UNL     1       0.276   3.868 -23.444  0.00  0.00    +0.033 A 
ATOM      9  C   UNL     1      -0.787   4.519 -23.814  0.00  0.00    +0.012 A 
ATOM     10  C   UNL     1      -1.954   3.951 -23.747  0.00  0.00    +0.001 A 
ATOM     11  C   UNL     1      -2.059   2.731 -23.310  0.00  0.00    +0.001 A 
ATOM     12  C   UNL     1      -0.996   2.079 -22.941  0.00  0.00    +0.012 A 
ATOM     13  C   UNL     1       0.171   2.648 -23.008  0.00  0.00    +0.033 A 
ATOM     14  C   UNL     1       1.233   1.996 -22.639  0.00  0.00    +0.198 C 
ATOM     15  O   UNL     1       1.129   0.776 -22.202  0.00  0.00    -0.286 OA
ATOM     16  C   UNL     1       2.401   2.564 -22.706  0.00  0.00    +0.075 A 
ENDROOT
BRANCH   1  18
ATOM     17  C   UNL     1       3.814   0.382 -20.723  0.00  0.00    +0.277 C 
ATOM     18  O   UNL     1       3.359   0.693 -21.900  0.00  0.00    -0.494 OA
ENDBRANCH   1  18
BRANCH   3  19
ATOM     19  O   UNL     1       5.902   4.270 -22.907  0.00  0.00    -0.506 OA
ATOM     20  H   UNL     1       6.294   4.627 -22.135  0.00  0.00    +0.292 HD
ENDBRANCH   3  19
BRANCH   2  21
ATOM     21  C   UNL     1       5.692   1.830 -22.034  0.00  0.00    +0.198 C 
BRANCH  21  22
ATOM     22  O   UNL     1       6.685   1.683 -22.861  0.00  0.00    -0.390 OA
ATOM     23  H   UNL     1       6.442   1.041 -23.547  0.00  0.00    +0.210 HD
ENDBRANCH  21  22
ENDBRANCH   2  21
TORSDOF 4
ENDMDL
MODEL 7
REMARK VINA RESULT:    -8.139      2.019      6.072
REMARK INTER + INTRA:          -8.834
REMARK INTER:                  -9.530
REMARK INTRA:                   0.696
REMARK UNBOUND:                 0.733
REMARK  Name = ZINC000005037432
REMARK  5 active torsions:
REMARK  status: ('A' for Active; 'I' for Inactive)
REMARK    1  A    between atoms: C_1  and  O_2
REMARK    2  A    between atoms: O_2  and  C_3
REMARK    3  A    between atoms: C_4  and  C_5
REMARK    4  A    between atoms: C_5  and  O_6
REMARK    5  A    between atoms: C_7  and  O_8
REMARK                            x       y       z     vdW  Elec       q    Type
REMARK                         _______ _______ _______ _____ _____    ______ ____
ROOT
ATOM      1  C   UNL     1       0.240   2.612 -23.936  0.00  0.00    +0.140 A 
ATOM      2  C   UNL     1      -0.990   2.825 -23.575  0.00  0.00    +0.061 A 
ATOM      3  C   UNL     1      -1.359   2.585 -22.352  0.00  0.00    +0.126 A 
ATOM      4  C   UNL     1      -0.499   2.131 -21.489  0.00  0.00    +0.058 A 
ATOM      5  C   UNL     1       0.733   1.918 -21.852  0.00  0.00    +0.040 A 
ATOM      6  C   UNL     1       1.593   1.464 -20.989  0.00  0.00    +0.195 C 
ATOM      7  O   UNL     1       1.224   1.224 -19.766  0.00  0.00    -0.287 OA
ATOM      8  C   UNL     1       2.824   1.251 -21.351  0.00  0.00    +0.033 A 
ATOM      9  C   UNL     1       3.685   0.797 -20.489  0.00  0.00    +0.012 A 
ATOM     10  C   UNL     1       4.916   0.584 -20.851  0.00  0.00    +0.001 A 
ATOM     11  C   UNL     1       5.285   0.824 -22.074  0.00  0.00    +0.001 A 
ATOM     12  C   UNL     1       4.423   1.278 -22.936  0.00  0.00    +0.012 A 
ATOM     13  C   UNL     1       3.193   1.491 -22.574  0.00  0.00    +0.033 A 
ATOM     14  C   UNL     1       2.332   1.944 -23.435  0.00  0.00    +0.198 C 
ATOM     15  O   UNL     1       2.701   2.185 -24.659  0.00  0.00    -0.286 OA
ATOM     16  C   UNL     1       1.101   2.158 -23.075  0.00  0.00    +0.075 A 
ENDROOT
BRANCH   1  18
ATOM     17  C   UNL     1       0.819   4.075 -25.547  0.00  0.00    +0.277 C 
ATOM     18  O   UNL     1       0.609   2.852 -25.160  0.00  0.00    -0.494 OA
ENDBRANCH   1  18
BRANCH   3  19
ATOM     19  O   UNL     1      -2.589   2.798 -21.990  0.00  0.00    -0.506 OA
ATOM     20  H   UNL     1      -3.160   3.298 -22.540  0.00  0.00    +0.292 HD
ENDBRANCH   3  19
BRANCH   2  21
ATOM     21  C   UNL     1      -1.851   3.279 -24.436  0.00  0.00    +0.198 C 
BRANCH  21  22
ATOM     22  O   UNL     1      -2.555   2.450 -25.150  0.00  0.00    -0.390 OA
ATOM     23  H   UNL     1      -2.802   2.874 -25.987  0.00  0.00    +0.210 HD
ENDBRANCH  21  22
ENDBRANCH   2  21
TORSDOF 4
ENDMDL
MODEL 8
REMARK VINA RESULT:    -7.912      2.509      5.989
REMARK INTER + INTRA:          -8.567
REMARK INTER:                  -9.222
REMARK INTRA:                   0.655
REMARK UNBOUND:                 0.733
REMARK  Name = ZINC000005037432
REMARK  5 active torsions:
REMARK  status: ('A' for Active; 'I' for Inactive)
REMARK    1  A    between atoms: C_1  and  O_2
REMARK    2  A    between atoms: O_2  and  C_3
REMARK    3  A    between atoms: C_4  and  C_5
REMARK    4  A    between atoms: C_5  and  O_6
REMARK    5  A    between atoms: C_7  and  O_8
REMARK                            x       y       z     vdW  Elec       q    Type
REMARK                         _______ _______ _______ _____ _____    ______ ____
ROOT
ATOM      1  C   UNL     1       0.164   2.669 -22.963  0.00  0.00    +0.140 A 
ATOM      2  C   UNL     1      -0.551   3.724 -23.219  0.00  0.00    +0.061 A 
ATOM      3  C   UNL     1       0.025   4.880 -23.362  0.00  0.00    +0.126 A 
ATOM      4  C   UNL     1       1.317   4.982 -23.249  0.00  0.00    +0.058 A 
ATOM      5  C   UNL     1       2.032   3.926 -22.993  0.00  0.00    +0.040 A 
ATOM      6  C   UNL     1       3.323   4.028 -22.881  0.00  0.00    +0.195 C 
ATOM      7  O   UNL     1       3.899   5.184 -23.024  0.00  0.00    -0.287 OA
ATOM      8  C   UNL     1       4.037   2.973 -22.625  0.00  0.00    +0.033 A 
ATOM      9  C   UNL     1       5.328   3.074 -22.513  0.00  0.00    +0.012 A 
ATOM     10  C   UNL     1       6.043   2.018 -22.257  0.00  0.00    +0.001 A 
ATOM     11  C   UNL     1       5.467   0.861 -22.114  0.00  0.00    +0.001 A 
ATOM     12  C   UNL     1       4.175   0.761 -22.227  0.00  0.00    +0.012 A 
ATOM     13  C   UNL     1       3.461   1.816 -22.482  0.00  0.00    +0.033 A 
ATOM     14  C   UNL     1       2.170   1.715 -22.595  0.00  0.00    +0.198 C 
ATOM     15  O   UNL     1       1.594   0.558 -22.452  0.00  0.00    -0.286 OA
ATOM     16  C   UNL     1       1.454   2.770 -22.851  0.00  0.00    +0.075 A 
ENDROOT
BRANCH   1  18
ATOM     17  C   UNL     1      -1.096   1.255 -21.745  0.00  0.00    +0.277 C 
ATOM     18  O   UNL     1      -0.413   1.512 -22.820  0.00  0.00    -0.494 OA
ENDBRANCH   1  18
BRANCH   3  19
ATOM     19  O   UNL     1      -0.689   5.936 -23.617  0.00  0.00    -0.506 OA
ATOM     20  H   UNL     1      -1.338   6.222 -23.006  0.00  0.00    +0.292 HD
ENDBRANCH   3  19
BRANCH   2  21
ATOM     21  C   UNL     1      -1.842   3.623 -23.331  0.00  0.00    +0.198 C 
BRANCH  21  22
ATOM     22  O   UNL     1      -2.374   3.345 -24.485  0.00  0.00    -0.390 OA
ATOM     23  H   UNL     1      -2.952   2.571 -24.396  0.00  0.00    +0.210 HD
ENDBRANCH  21  22
ENDBRANCH   2  21
TORSDOF 4
ENDMDL
MODEL 9
REMARK VINA RESULT:    -7.714      2.066      6.388
REMARK INTER + INTRA:          -8.334
REMARK INTER:                  -9.067
REMARK INTRA:                   0.733
REMARK UNBOUND:                 0.733
REMARK  Name = ZINC000005037432
REMARK  5 active torsions:
REMARK  status: ('A' for Active; 'I' for Inactive)
REMARK    1  A    between atoms: C_1  and  O_2
REMARK    2  A    between atoms: O_2  and  C_3
REMARK    3  A    between atoms: C_4  and  C_5
REMARK    4  A    between atoms: C_5  and  O_6
REMARK    5  A    between atoms: C_7  and  O_8
REMARK                            x       y       z     vdW  Elec       q    Type
REMARK                         _______ _______ _______ _____ _____    ______ ____
ROOT
ATOM      1  C   UNL     1      -0.187   3.154 -23.289  0.00  0.00    +0.140 A 
ATOM      2  C   UNL     1      -1.233   2.609 -22.743  0.00  0.00    +0.061 A 
ATOM      3  C   UNL     1      -1.091   1.773 -21.757  0.00  0.00    +0.126 A 
ATOM      4  C   UNL     1       0.097   1.481 -21.317  0.00  0.00    +0.058 A 
ATOM      5  C   UNL     1       1.144   2.027 -21.864  0.00  0.00    +0.040 A 
ATOM      6  C   UNL     1       2.333   1.736 -21.424  0.00  0.00    +0.195 C 
ATOM      7  O   UNL     1       2.474   0.900 -20.438  0.00  0.00    -0.287 OA
ATOM      8  C   UNL     1       3.379   2.280 -21.970  0.00  0.00    +0.033 A 
ATOM      9  C   UNL     1       4.567   1.990 -21.531  0.00  0.00    +0.012 A 
ATOM     10  C   UNL     1       5.614   2.534 -22.077  0.00  0.00    +0.001 A 
ATOM     11  C   UNL     1       5.472   3.370 -23.063  0.00  0.00    +0.001 A 
ATOM     12  C   UNL     1       4.283   3.661 -23.502  0.00  0.00    +0.012 A 
ATOM     13  C   UNL     1       3.237   3.116 -22.956  0.00  0.00    +0.033 A 
ATOM     14  C   UNL     1       2.049   3.407 -23.395  0.00  0.00    +0.198 C 
ATOM     15  O   UNL     1       1.907   4.243 -24.381  0.00  0.00    -0.286 OA
ATOM     16  C   UNL     1       1.001   2.863 -22.850  0.00  0.00    +0.075 A 
ENDROOT
BRANCH   1  18
ATOM     17  C   UNL     1      -0.839   3.587 -25.400  0.00  0.00    +0.277 C 
ATOM     18  O   UNL     1      -0.329   3.989 -24.275  0.00  0.00    -0.494 OA
ENDBRANCH   1  18
BRANCH   3  19
ATOM     19  O   UNL     1      -2.137   1.228 -21.211  0.00  0.00    -0.506 OA
ATOM     20  H   UNL     1      -2.382   1.457 -20.337  0.00  0.00    +0.292 HD
ENDBRANCH   3  19
BRANCH   2  21
ATOM     21  C   UNL     1      -2.421   2.900 -23.182  0.00  0.00    +0.198 C 
BRANCH  21  22
ATOM     22  O   UNL     1      -3.231   3.604 -22.448  0.00  0.00    -0.390 OA
ATOM     23  H   UNL     1      -2.859   3.700 -21.557  0.00  0.00    +0.210 HD
ENDBRANCH  21  22
ENDBRANCH   2  21
TORSDOF 4
ENDMDL
