MODEL 1
REMARK VINA RESULT:   -11.453      0.000      0.000
REMARK INTER + INTRA:          -9.267
REMARK INTER:                 -12.944
REMARK INTRA:                   3.677
REMARK UNBOUND:                 4.194
REMARK  Name = COc1ccc2c3c1OC1=C[C@H](C(C)(C)O)C=C4[C@@H](C2)N(C)CC[C@]143          ZINC000096316429
REMARK  7 active torsions:
REMARK  status: ('A' for Active; 'I' for Inactive)
REMARK    1  A    between atoms: C_1  and  O_2
REMARK    2  A    between atoms: O_2  and  C_3
REMARK    3  A    between atoms: C_12  and  C_13
REMARK    4  A    between atoms: C_13  and  C_14
REMARK    5  A    between atoms: C_13  and  C_15
REMARK    6  A    between atoms: C_13  and  O_16
REMARK    7  A    between atoms: N_21  and  C_22
REMARK                            x       y       z     vdW  Elec       q    Type
REMARK                         _______ _______ _______ _____ _____    ______ ____
ROOT
ATOM      1  C   UNL     1      -4.546   3.415 -22.441  0.00  0.00    +0.162 A 
ATOM      2  C   UNL     1      -4.790   3.916 -23.579  0.00  0.00    +0.050 A 
ATOM      3  C   UNL     1      -3.889   3.993 -24.448  0.00  0.00    +0.008 A 
ATOM      4  C   UNL     1      -2.735   3.568 -24.186  0.00  0.00    -0.034 A 
ATOM      5  C   UNL     1      -2.470   3.065 -23.059  0.00  0.00    +0.020 A 
ATOM      6  C   UNL     1      -1.318   2.644 -22.805  0.00  0.00    +0.088 C 
ATOM      7  C   UNL     1      -0.046   2.132 -22.399  0.00  0.00    +0.075 C 
ATOM      8  C   UNL     1       0.992   2.204 -23.358  0.00  0.00    +0.133 C 
ATOM      9  N   UNL     1       0.683   2.770 -24.617  0.00  0.00    +0.239 N 
ATOM     10  H   UNL     1       1.394   2.846 -25.344  0.00  0.00    +0.204 HD
ATOM     11  C   UNL     1       1.545   2.871 -25.522  0.00  0.00    +0.191 C 
ATOM     12  C   UNL     1      -0.660   3.221 -24.810  0.00  0.00    +0.096 C 
ATOM     13  C   UNL     1      -0.412   2.719 -23.672  0.00  0.00    -0.007 C 
ATOM     14  C   UNL     1       0.752   2.292 -23.410  0.00  0.00    -0.011 C 
ATOM     15  C   UNL     1       1.002   1.793 -22.285  0.00  0.00    +0.069 C 
ATOM     16  C   UNL     1       0.093   1.715 -21.405  0.00  0.00    +0.026 C 
ATOM     17  C   UNL     1      -1.060   2.136 -21.660  0.00  0.00    +0.117 C 
ATOM     18  O   UNL     1      -2.473   2.346 -21.166  0.00  0.00    -0.455 OA
ATOM     19  C   UNL     1      -1.812   3.644 -25.068  0.00  0.00    +0.094 C 
ATOM     20  C   UNL     1      -3.379   2.987 -22.181  0.00  0.00    +0.174 A 
ENDROOT
BRANCH  15  21
ATOM     21  C   UNL     1       2.158   1.371 -22.030  0.00  0.00    +0.070 C 
ATOM     22  C   UNL     1       2.960   2.086 -21.381  0.00  0.00    +0.042 C 
ATOM     23  C   UNL     1       3.029   0.470 -22.111  0.00  0.00    +0.042 C 
BRANCH  21  24
ATOM     24  O   UNL     1       1.902   0.301 -22.633  0.00  0.00    -0.388 OA
ATOM     25  H   UNL     1       2.091  -0.451 -22.051  0.00  0.00    +0.210 HD
ENDBRANCH  21  24
ENDBRANCH  15  21
BRANCH   1  27
ATOM     26  C   UNL     1      -6.473   2.645 -21.792  0.00  0.00    +0.277 C 
ATOM     27  O   UNL     1      -5.452   3.341 -21.575  0.00  0.00    -0.491 OA
ENDBRANCH   1  27
TORSDOF 3
ENDMDL
MODEL 2
REMARK VINA RESULT:   -10.691      1.915      6.038
REMARK INTER + INTRA:          -8.371
REMARK INTER:                 -12.072
REMARK INTRA:                   3.701
REMARK UNBOUND:                 4.194
REMARK  Name = COc1ccc2c3c1OC1=C[C@H](C(C)(C)O)C=C4[C@@H](C2)N(C)CC[C@]143          ZINC000096316429
REMARK  7 active torsions:
REMARK  status: ('A' for Active; 'I' for Inactive)
REMARK    1  A    between atoms: C_1  and  O_2
REMARK    2  A    between atoms: O_2  and  C_3
REMARK    3  A    between atoms: C_12  and  C_13
REMARK    4  A    between atoms: C_13  and  C_14
REMARK    5  A    between atoms: C_13  and  C_15
REMARK    6  A    between atoms: C_13  and  O_16
REMARK    7  A    between atoms: N_21  and  C_22
REMARK                            x       y       z     vdW  Elec       q    Type
REMARK                         _______ _______ _______ _____ _____    ______ ____
ROOT
ATOM      1  C   UNL     1       2.641   1.930 -23.174  0.00  0.00    +0.162 A 
ATOM      2  C   UNL     1       2.666   1.514 -21.976  0.00  0.00    +0.050 A 
ATOM      3  C   UNL     1       1.613   1.467 -21.297  0.00  0.00    +0.008 A 
ATOM      4  C   UNL     1       0.525   1.836 -21.807  0.00  0.00    -0.034 A 
ATOM      5  C   UNL     1       0.478   2.254 -22.998  0.00  0.00    +0.020 A 
ATOM      6  C   UNL     1      -0.609   2.620 -23.501  0.00  0.00    +0.088 C 
ATOM      7  C   UNL     1      -1.786   3.063 -24.183  0.00  0.00    +0.075 C 
ATOM      8  C   UNL     1      -2.991   3.022 -23.442  0.00  0.00    +0.133 C 
ATOM      9  N   UNL     1      -2.925   2.552 -22.110  0.00  0.00    +0.239 N 
ATOM     10  H   UNL     1      -3.763   2.502 -21.532  0.00  0.00    +0.204 HD
ATOM     11  C   UNL     1      -3.946   2.484 -21.385  0.00  0.00    +0.191 C 
ATOM     12  C   UNL     1      -1.638   2.158 -21.627  0.00  0.00    +0.096 C 
ATOM     13  C   UNL     1      -1.667   2.575 -22.824  0.00  0.00    -0.007 C 
ATOM     14  C   UNL     1      -2.764   2.946 -23.338  0.00  0.00    -0.011 C 
ATOM     15  C   UNL     1      -2.797   3.360 -24.523  0.00  0.00    +0.069 C 
ATOM     16  C   UNL     1      -1.734   3.408 -25.212  0.00  0.00    +0.026 C 
ATOM     17  C   UNL     1      -0.646   3.042 -24.708  0.00  0.00    +0.117 C 
ATOM     18  O   UNL     1       0.840   2.844 -24.901  0.00  0.00    -0.455 OA
ATOM     19  C   UNL     1      -0.552   1.790 -21.119  0.00  0.00    +0.094 C 
ATOM     20  C   UNL     1       1.540   2.302 -23.685  0.00  0.00    +0.174 A 
ENDROOT
BRANCH  15  21
ATOM     21  C   UNL     1      -3.888   3.727 -25.028  0.00  0.00    +0.070 C 
ATOM     22  C   UNL     1      -4.410   4.813 -24.675  0.00  0.00    +0.042 C 
ATOM     23  C   UNL     1      -4.845   3.523 -25.814  0.00  0.00    +0.042 C 
BRANCH  21  24
ATOM     24  O   UNL     1      -3.917   2.685 -25.727  0.00  0.00    -0.388 OA
ATOM     25  H   UNL     1      -3.394   1.992 -25.295  0.00  0.00    +0.210 HD
ENDBRANCH  21  24
ENDBRANCH  15  21
BRANCH   1  27
ATOM     26  C   UNL     1       4.548   2.871 -23.628  0.00  0.00    +0.277 C 
ATOM     27  O   UNL     1       3.698   1.975 -23.849  0.00  0.00    -0.491 OA
ENDBRANCH   1  27
TORSDOF 3
ENDMDL
MODEL 3
REMARK VINA RESULT:   -10.588      1.307      5.468
REMARK INTER + INTRA:          -8.251
REMARK INTER:                 -12.061
REMARK INTRA:                   3.810
REMARK UNBOUND:                 4.194
REMARK  Name = COc1ccc2c3c1OC1=C[C@H](C(C)(C)O)C=C4[C@@H](C2)N(C)CC[C@]143          ZINC000096316429
REMARK  7 active torsions:
REMARK  status: ('A' for Active; 'I' for Inactive)
REMARK    1  A    between atoms: C_1  and  O_2
REMARK    2  A    between atoms: O_2  and  C_3
REMARK    3  A    between atoms: C_12  and  C_13
REMARK    4  A    between atoms: C_13  and  C_14
REMARK    5  A    between atoms: C_13  and  C_15
REMARK    6  A    between atoms: C_13  and  O_16
REMARK    7  A    between atoms: N_21  and  C_22
REMARK                            x       y       z     vdW  Elec       q    Type
REMARK                         _______ _______ _______ _____ _____    ______ ____
ROOT
ATOM      1  C   UNL     1       3.106   0.808 -22.670  0.00  0.00    +0.162 A 
ATOM      2  C   UNL     1       3.491   1.180 -23.819  0.00  0.00    +0.050 A 
ATOM      3  C   UNL     1       2.753   1.895 -24.538  0.00  0.00    +0.008 A 
ATOM      4  C   UNL     1       1.623   2.245 -24.114  0.00  0.00    -0.034 A 
ATOM      5  C   UNL     1       1.219   1.887 -22.973  0.00  0.00    +0.020 A 
ATOM      6  C   UNL     1       0.092   2.239 -22.557  0.00  0.00    +0.088 C 
ATOM      7  C   UNL     1      -1.170   2.576 -21.975  0.00  0.00    +0.075 C 
ATOM      8  C   UNL     1      -2.027   3.383 -22.761  0.00  0.00    +0.133 C 
ATOM      9  N   UNL     1      -1.563   3.778 -24.038  0.00  0.00    +0.239 N 
ATOM     10  H   UNL     1      -2.140   4.360 -24.645  0.00  0.00    +0.204 HD
ATOM     11  C   UNL     1      -2.259   4.493 -24.797  0.00  0.00    +0.191 C 
ATOM     12  C   UNL     1      -0.263   3.325 -24.422  0.00  0.00    +0.096 C 
ATOM     13  C   UNL     1      -0.651   2.955 -23.273  0.00  0.00    -0.007 C 
ATOM     14  C   UNL     1      -1.791   3.309 -22.848  0.00  0.00    -0.011 C 
ATOM     15  C   UNL     1      -2.181   2.945 -21.711  0.00  0.00    +0.069 C 
ATOM     16  C   UNL     1      -1.436   2.222 -20.982  0.00  0.00    +0.026 C 
ATOM     17  C   UNL     1      -0.308   1.870 -21.399  0.00  0.00    +0.117 C 
ATOM     18  O   UNL     1       0.967   1.106 -21.121  0.00  0.00    -0.455 OA
ATOM     19  C   UNL     1       0.866   2.975 -24.843  0.00  0.00    +0.094 C 
ATOM     20  C   UNL     1       1.963   1.165 -22.246  0.00  0.00    +0.174 A 
ENDROOT
BRANCH  15  21
ATOM     21  C   UNL     1      -3.312   3.299 -21.293  0.00  0.00    +0.070 C 
ATOM     22  C   UNL     1      -3.405   4.098 -20.329  0.00  0.00    +0.042 C 
ATOM     23  C   UNL     1      -4.564   3.245 -21.368  0.00  0.00    +0.042 C 
BRANCH  21  24
ATOM     24  O   UNL     1      -3.860   2.581 -22.165  0.00  0.00    -0.388 OA
ATOM     25  H   UNL     1      -3.417   2.713 -23.017  0.00  0.00    +0.210 HD
ENDBRANCH  21  24
ENDBRANCH  15  21
BRANCH   1  27
ATOM     26  C   UNL     1       4.474   0.600 -20.993  0.00  0.00    +0.277 C 
ATOM     27  O   UNL     1       3.849   0.093 -21.955  0.00  0.00    -0.491 OA
ENDBRANCH   1  27
TORSDOF 3
ENDMDL
MODEL 4
REMARK VINA RESULT:   -10.478      1.709      2.752
REMARK INTER + INTRA:          -8.121
REMARK INTER:                 -11.807
REMARK INTRA:                   3.685
REMARK UNBOUND:                 4.194
REMARK  Name = COc1ccc2c3c1OC1=C[C@H](C(C)(C)O)C=C4[C@@H](C2)N(C)CC[C@]143          ZINC000096316429
REMARK  7 active torsions:
REMARK  status: ('A' for Active; 'I' for Inactive)
REMARK    1  A    between atoms: C_1  and  O_2
REMARK    2  A    between atoms: O_2  and  C_3
REMARK    3  A    between atoms: C_12  and  C_13
REMARK    4  A    between atoms: C_13  and  C_14
REMARK    5  A    between atoms: C_13  and  C_15
REMARK    6  A    between atoms: C_13  and  O_16
REMARK    7  A    between atoms: N_21  and  C_22
REMARK                            x       y       z     vdW  Elec       q    Type
REMARK                         _______ _______ _______ _____ _____    ______ ____
ROOT
ATOM      1  C   UNL     1      -4.298   3.662 -23.888  0.00  0.00    +0.162 A 
ATOM      2  C   UNL     1      -4.788   3.395 -22.750  0.00  0.00    +0.050 A 
ATOM      3  C   UNL     1      -4.059   2.952 -21.831  0.00  0.00    +0.008 A 
ATOM      4  C   UNL     1      -2.834   2.771 -22.041  0.00  0.00    -0.034 A 
ATOM      5  C   UNL     1      -2.325   3.030 -23.168  0.00  0.00    +0.020 A 
ATOM      6  C   UNL     1      -1.102   2.847 -23.371  0.00  0.00    +0.088 C 
ATOM      7  C   UNL     1       0.274   2.681 -23.722  0.00  0.00    +0.075 C 
ATOM      8  C   UNL     1       1.123   2.182 -22.706  0.00  0.00    +0.133 C 
ATOM      9  N   UNL     1       0.541   1.895 -21.449  0.00  0.00    +0.239 N 
ATOM     10  H   UNL     1       1.108   1.534 -20.682  0.00  0.00    +0.204 HD
ATOM     11  C   UNL     1       1.223   1.450 -20.495  0.00  0.00    +0.191 C 
ATOM     12  C   UNL     1      -0.861   2.137 -21.316  0.00  0.00    +0.096 C 
ATOM     13  C   UNL     1      -0.368   2.403 -22.454  0.00  0.00    -0.007 C 
ATOM     14  C   UNL     1       0.868   2.220 -22.664  0.00  0.00    -0.011 C 
ATOM     15  C   UNL     1       1.361   2.482 -23.789  0.00  0.00    +0.069 C 
ATOM     16  C   UNL     1       0.626   2.930 -24.719  0.00  0.00    +0.026 C 
ATOM     17  C   UNL     1      -0.597   3.113 -24.515  0.00  0.00    +0.117 C 
ATOM     18  O   UNL     1      -1.925   3.564 -25.080  0.00  0.00    -0.455 OA
ATOM     19  C   UNL     1      -2.085   2.319 -21.108  0.00  0.00    +0.094 C 
ATOM     20  C   UNL     1      -3.059   3.478 -24.096  0.00  0.00    +0.174 A 
ENDROOT
BRANCH  15  21
ATOM     21  C   UNL     1       2.588   2.299 -23.993  0.00  0.00    +0.070 C 
ATOM     22  C   UNL     1       3.418   3.183 -23.669  0.00  0.00    +0.042 C 
ATOM     23  C   UNL     1       3.524   1.576 -24.415  0.00  0.00    +0.042 C 
BRANCH  21  24
ATOM     24  O   UNL     1       2.339   1.171 -24.484  0.00  0.00    -0.388 OA
ATOM     25  H   UNL     1       2.170   0.537 -23.770  0.00  0.00    +0.210 HD
ENDBRANCH  21  24
ENDBRANCH  15  21
BRANCH   1  27
ATOM     26  C   UNL     1      -5.201   3.440 -25.854  0.00  0.00    +0.277 C 
ATOM     27  O   UNL     1      -5.033   4.106 -24.804  0.00  0.00    -0.491 OA
ENDBRANCH   1  27
TORSDOF 3
ENDMDL
MODEL 5
REMARK VINA RESULT:   -10.226      2.425      3.683
REMARK INTER + INTRA:          -7.825
REMARK INTER:                 -11.515
REMARK INTRA:                   3.690
REMARK UNBOUND:                 4.194
REMARK  Name = COc1ccc2c3c1OC1=C[C@H](C(C)(C)O)C=C4[C@@H](C2)N(C)CC[C@]143          ZINC000096316429
REMARK  7 active torsions:
REMARK  status: ('A' for Active; 'I' for Inactive)
REMARK    1  A    between atoms: C_1  and  O_2
REMARK    2  A    between atoms: O_2  and  C_3
REMARK    3  A    between atoms: C_12  and  C_13
REMARK    4  A    between atoms: C_13  and  C_14
REMARK    5  A    between atoms: C_13  and  C_15
REMARK    6  A    between atoms: C_13  and  O_16
REMARK    7  A    between atoms: N_21  and  C_22
REMARK                            x       y       z     vdW  Elec       q    Type
REMARK                         _______ _______ _______ _____ _____    ______ ____
ROOT
ATOM      1  C   UNL     1      -2.052   3.979 -23.671  0.00  0.00    +0.162 A 
ATOM      2  C   UNL     1      -2.584   3.056 -22.984  0.00  0.00    +0.050 A 
ATOM      3  C   UNL     1      -1.871   2.244 -22.348  0.00  0.00    +0.008 A 
ATOM      4  C   UNL     1      -0.620   2.346 -22.393  0.00  0.00    -0.034 A 
ATOM      5  C   UNL     1      -0.068   3.258 -23.071  0.00  0.00    +0.020 A 
ATOM      6  C   UNL     1       1.180   3.355 -23.111  0.00  0.00    +0.088 C 
ATOM      7  C   UNL     1       2.589   3.567 -23.234  0.00  0.00    +0.075 C 
ATOM      8  C   UNL     1       3.421   2.666 -22.528  0.00  0.00    +0.133 C 
ATOM      9  N   UNL     1       2.792   1.649 -21.773  0.00  0.00    +0.239 N 
ATOM     10  H   UNL     1       3.344   0.973 -21.245  0.00  0.00    +0.204 HD
ATOM     11  C   UNL     1       3.455   0.810 -21.118  0.00  0.00    +0.191 C 
ATOM     12  C   UNL     1       1.362   1.621 -21.790  0.00  0.00    +0.096 C 
ATOM     13  C   UNL     1       1.898   2.544 -22.476  0.00  0.00    -0.007 C 
ATOM     14  C   UNL     1       3.160   2.646 -22.520  0.00  0.00    -0.011 C 
ATOM     15  C   UNL     1       3.696   3.557 -23.197  0.00  0.00    +0.069 C 
ATOM     16  C   UNL     1       2.977   4.380 -23.841  0.00  0.00    +0.026 C 
ATOM     17  C   UNL     1       1.728   4.283 -23.800  0.00  0.00    +0.117 C 
ATOM     18  O   UNL     1       0.396   4.834 -24.255  0.00  0.00    -0.455 OA
ATOM     19  C   UNL     1       0.113   1.521 -21.747  0.00  0.00    +0.094 C 
ATOM     20  C   UNL     1      -0.787   4.079 -23.713  0.00  0.00    +0.174 A 
ENDROOT
BRANCH  15  21
ATOM     21  C   UNL     1       4.948   3.655 -23.238  0.00  0.00    +0.070 C 
ATOM     22  C   UNL     1       5.535   4.512 -22.533  0.00  0.00    +0.042 C 
ATOM     23  C   UNL     1       6.054   3.272 -23.693  0.00  0.00    +0.042 C 
BRANCH  21  24
ATOM     24  O   UNL     1       4.995   2.721 -24.076  0.00  0.00    -0.388 OA
ATOM     25  H   UNL     1       5.178   1.886 -23.619  0.00  0.00    +0.210 HD
ENDBRANCH  21  24
ENDBRANCH  15  21
BRANCH   1  27
ATOM     26  C   UNL     1      -3.803   4.387 -24.893  0.00  0.00    +0.277 C 
ATOM     27  O   UNL     1      -2.771   4.790 -24.305  0.00  0.00    -0.491 OA
ENDBRANCH   1  27
TORSDOF 3
ENDMDL
MODEL 6
REMARK VINA RESULT:   -10.173      1.740      2.514
REMARK INTER + INTRA:          -7.763
REMARK INTER:                 -11.783
REMARK INTRA:                   4.020
REMARK UNBOUND:                 4.194
REMARK  Name = COc1ccc2c3c1OC1=C[C@H](C(C)(C)O)C=C4[C@@H](C2)N(C)CC[C@]143          ZINC000096316429
REMARK  7 active torsions:
REMARK  status: ('A' for Active; 'I' for Inactive)
REMARK    1  A    between atoms: C_1  and  O_2
REMARK    2  A    between atoms: O_2  and  C_3
REMARK    3  A    between atoms: C_12  and  C_13
REMARK    4  A    between atoms: C_13  and  C_14
REMARK    5  A    between atoms: C_13  and  C_15
REMARK    6  A    between atoms: C_13  and  O_16
REMARK    7  A    between atoms: N_21  and  C_22
REMARK                            x       y       z     vdW  Elec       q    Type
REMARK                         _______ _______ _______ _____ _____    ______ ____
ROOT
ATOM      1  C   UNL     1      -2.476   3.198 -23.024  0.00  0.00    +0.162 A 
ATOM      2  C   UNL     1      -2.440   4.338 -23.578  0.00  0.00    +0.050 A 
ATOM      3  C   UNL     1      -1.345   4.913 -23.783  0.00  0.00    +0.008 A 
ATOM      4  C   UNL     1      -0.274   4.353 -23.437  0.00  0.00    -0.034 A 
ATOM      5  C   UNL     1      -0.286   3.218 -22.884  0.00  0.00    +0.020 A 
ATOM      6  C   UNL     1       0.785   2.666 -22.541  0.00  0.00    +0.088 C 
ATOM      7  C   UNL     1       1.937   1.938 -22.107  0.00  0.00    +0.075 C 
ATOM      8  C   UNL     1       3.189   2.560 -22.325  0.00  0.00    +0.133 C 
ATOM      9  N   UNL     1       3.189   3.831 -22.945  0.00  0.00    +0.239 N 
ATOM     10  H   UNL     1       4.064   4.323 -23.126  0.00  0.00    +0.204 HD
ATOM     11  C   UNL     1       4.255   4.450 -23.175  0.00  0.00    +0.191 C 
ATOM     12  C   UNL     1       1.916   4.377 -23.299  0.00  0.00    +0.096 C 
ATOM     13  C   UNL     1       1.885   3.237 -22.745  0.00  0.00    -0.007 C 
ATOM     14  C   UNL     1       2.965   2.675 -22.397  0.00  0.00    -0.011 C 
ATOM     15  C   UNL     1       2.939   1.546 -21.848  0.00  0.00    +0.069 C 
ATOM     16  C   UNL     1       1.833   0.963 -21.639  0.00  0.00    +0.026 C 
ATOM     17  C   UNL     1       0.762   1.516 -21.982  0.00  0.00    +0.117 C 
ATOM     18  O   UNL     1      -0.746   1.433 -22.044  0.00  0.00    -0.455 OA
ATOM     19  C   UNL     1       0.846   4.934 -23.644  0.00  0.00    +0.094 C 
ATOM     20  C   UNL     1      -1.391   2.637 -22.676  0.00  0.00    +0.174 A 
ENDROOT
BRANCH  15  21
ATOM     21  C   UNL     1       4.014   0.991 -21.504  0.00  0.00    +0.070 C 
ATOM     22  C   UNL     1       4.930   0.820 -22.344  0.00  0.00    +0.042 C 
ATOM     23  C   UNL     1       4.724   0.451 -20.621  0.00  0.00    +0.042 C 
BRANCH  21  24
ATOM     24  O   UNL     1       3.577   0.868 -20.333  0.00  0.00    -0.388 OA
ATOM     25  H   UNL     1       2.738   1.347 -20.250  0.00  0.00    +0.210 HD
ENDBRANCH  21  24
ENDBRANCH  15  21
BRANCH   1  27
ATOM     26  C   UNL     1      -4.579   3.300 -22.484  0.00  0.00    +0.277 C 
ATOM     27  O   UNL     1      -3.575   2.628 -22.821  0.00  0.00    -0.491 OA
ENDBRANCH   1  27
TORSDOF 3
ENDMDL
MODEL 7
REMARK VINA RESULT:    -9.577      2.125      6.365
REMARK INTER + INTRA:          -7.063
REMARK INTER:                 -10.724
REMARK INTRA:                   3.661
REMARK UNBOUND:                 4.194
REMARK  Name = COc1ccc2c3c1OC1=C[C@H](C(C)(C)O)C=C4[C@@H](C2)N(C)CC[C@]143          ZINC000096316429
REMARK  7 active torsions:
REMARK  status: ('A' for Active; 'I' for Inactive)
REMARK    1  A    between atoms: C_1  and  O_2
REMARK    2  A    between atoms: O_2  and  C_3
REMARK    3  A    between atoms: C_12  and  C_13
REMARK    4  A    between atoms: C_13  and  C_14
REMARK    5  A    between atoms: C_13  and  C_15
REMARK    6  A    between atoms: C_13  and  O_16
REMARK    7  A    between atoms: N_21  and  C_22
REMARK                            x       y       z     vdW  Elec       q    Type
REMARK                         _______ _______ _______ _____ _____    ______ ____
ROOT
ATOM      1  C   UNL     1       4.574   3.053 -22.820  0.00  0.00    +0.162 A 
ATOM      2  C   UNL     1       4.670   2.314 -21.795  0.00  0.00    +0.050 A 
ATOM      3  C   UNL     1       3.643   1.833 -21.259  0.00  0.00    +0.008 A 
ATOM      4  C   UNL     1       2.511   2.087 -21.743  0.00  0.00    -0.034 A 
ATOM      5  C   UNL     1       2.393   2.821 -22.764  0.00  0.00    +0.020 A 
ATOM      6  C   UNL     1       1.262   3.070 -23.241  0.00  0.00    +0.088 C 
ATOM      7  C   UNL     1       0.031   3.424 -23.875  0.00  0.00    +0.075 C 
ATOM      8  C   UNL     1      -1.147   2.897 -23.294  0.00  0.00    +0.133 C 
ATOM      9  N   UNL     1      -1.002   2.077 -22.151  0.00  0.00    +0.239 N 
ATOM     10  H   UNL     1      -1.818   1.671 -21.693  0.00  0.00    +0.204 HD
ATOM     11  C   UNL     1      -1.994   1.570 -21.575  0.00  0.00    +0.191 C 
ATOM     12  C   UNL     1       0.330   1.851 -21.682  0.00  0.00    +0.096 C 
ATOM     13  C   UNL     1       0.231   2.591 -22.708  0.00  0.00    -0.007 C 
ATOM     14  C   UNL     1      -0.911   2.845 -23.194  0.00  0.00    -0.011 C 
ATOM     15  C   UNL     1      -1.014   3.577 -24.210  0.00  0.00    +0.069 C 
ATOM     16  C   UNL     1       0.023   4.064 -24.754  0.00  0.00    +0.026 C 
ATOM     17  C   UNL     1       1.154   3.814 -24.276  0.00  0.00    +0.117 C 
ATOM     18  O   UNL     1       2.648   4.019 -24.376  0.00  0.00    -0.455 OA
ATOM     19  C   UNL     1       1.460   1.599 -21.201  0.00  0.00    +0.094 C 
ATOM     20  C   UNL     1       3.429   3.307 -23.306  0.00  0.00    +0.174 A 
ENDROOT
BRANCH  15  21
ATOM     21  C   UNL     1      -2.149   3.827 -24.689  0.00  0.00    +0.070 C 
ATOM     22  C   UNL     1      -2.598   3.135 -25.636  0.00  0.00    +0.042 C 
ATOM     23  C   UNL     1      -3.199   4.515 -24.695  0.00  0.00    +0.042 C 
BRANCH  21  24
ATOM     24  O   UNL     1      -2.287   4.770 -23.873  0.00  0.00    -0.388 OA
ATOM     25  H   UNL     1      -2.016   5.602 -24.293  0.00  0.00    +0.210 HD
ENDBRANCH  21  24
ENDBRANCH  15  21
BRANCH   1  27
ATOM     26  C   UNL     1       6.118   4.582 -22.898  0.00  0.00    +0.277 C 
ATOM     27  O   UNL     1       5.605   3.531 -23.353  0.00  0.00    -0.491 OA
ENDBRANCH   1  27
TORSDOF 3
ENDMDL
MODEL 8
REMARK VINA RESULT:    -8.972      3.934      7.103
REMARK INTER + INTRA:          -6.351
REMARK INTER:                 -10.041
REMARK INTRA:                   3.690
REMARK UNBOUND:                 4.194
REMARK  Name = COc1ccc2c3c1OC1=C[C@H](C(C)(C)O)C=C4[C@@H](C2)N(C)CC[C@]143          ZINC000096316429
REMARK  7 active torsions:
REMARK  status: ('A' for Active; 'I' for Inactive)
REMARK    1  A    between atoms: C_1  and  O_2
REMARK    2  A    between atoms: O_2  and  C_3
REMARK    3  A    between atoms: C_12  and  C_13
REMARK    4  A    between atoms: C_13  and  C_14
REMARK    5  A    between atoms: C_13  and  C_15
REMARK    6  A    between atoms: C_13  and  O_16
REMARK    7  A    between atoms: N_21  and  C_22
REMARK                            x       y       z     vdW  Elec       q    Type
REMARK                         _______ _______ _______ _____ _____    ______ ____
ROOT
ATOM      1  C   UNL     1       6.065   6.510 -22.171  0.00  0.00    +0.162 A 
ATOM      2  C   UNL     1       7.051   5.731 -22.341  0.00  0.00    +0.050 A 
ATOM      3  C   UNL     1       6.879   4.578 -22.804  0.00  0.00    +0.008 A 
ATOM      4  C   UNL     1       5.720   4.193 -23.101  0.00  0.00    -0.034 A 
ATOM      5  C   UNL     1       4.724   4.952 -22.940  0.00  0.00    +0.020 A 
ATOM      6  C   UNL     1       3.572   4.562 -23.239  0.00  0.00    +0.088 C 
ATOM      7  C   UNL     1       2.214   4.232 -23.541  0.00  0.00    +0.075 C 
ATOM      8  C   UNL     1       1.987   2.937 -24.065  0.00  0.00    +0.133 C 
ATOM      9  N   UNL     1       3.110   2.096 -24.241  0.00  0.00    +0.239 N 
ATOM     10  H   UNL     1       3.003   1.154 -24.615  0.00  0.00    +0.204 HD
ATOM     11  C   UNL     1       2.996   0.935 -24.700  0.00  0.00    +0.191 C 
ATOM     12  C   UNL     1       4.383   2.632 -23.871  0.00  0.00    +0.096 C 
ATOM     13  C   UNL     1       3.395   3.409 -23.703  0.00  0.00    -0.007 C 
ATOM     14  C   UNL     1       2.227   3.019 -24.003  0.00  0.00    -0.011 C 
ATOM     15  C   UNL     1       1.245   3.784 -23.838  0.00  0.00    +0.069 C 
ATOM     16  C   UNL     1       1.416   4.950 -23.370  0.00  0.00    +0.026 C 
ATOM     17  C   UNL     1       2.570   5.340 -23.072  0.00  0.00    +0.117 C 
ATOM     18  O   UNL     1       3.432   6.458 -22.533  0.00  0.00    -0.455 OA
ATOM     19  C   UNL     1       5.539   3.018 -23.574  0.00  0.00    +0.094 C 
ATOM     20  C   UNL     1       4.896   6.116 -22.473  0.00  0.00    +0.174 A 
ENDROOT
BRANCH  15  21
ATOM     21  C   UNL     1       0.089   3.393 -24.137  0.00  0.00    +0.070 C 
ATOM     22  C   UNL     1      -0.408   3.693 -25.250  0.00  0.00    +0.042 C 
ATOM     23  C   UNL     1      -0.959   2.769 -23.839  0.00  0.00    +0.042 C 
BRANCH  21  24
ATOM     24  O   UNL     1      -0.007   2.821 -23.024  0.00  0.00    -0.388 OA
ATOM     25  H   UNL     1      -0.480   1.981 -23.133  0.00  0.00    +0.210 HD
ENDBRANCH  21  24
ENDBRANCH  15  21
BRANCH   1  27
ATOM     26  C   UNL     1       5.791   7.962 -20.577  0.00  0.00    +0.277 C 
ATOM     27  O   UNL     1       6.243   7.662 -21.708  0.00  0.00    -0.491 OA
ENDBRANCH   1  27
TORSDOF 3
ENDMDL
