MODEL 1
REMARK VINA RESULT:   -10.906      0.000      0.000
REMARK INTER + INTRA:         -11.673
REMARK INTER:                 -11.525
REMARK INTRA:                  -0.149
REMARK UNBOUND:                -0.130
REMARK  Name = ZINC000090548555
REMARK  3 active torsions:
REMARK  status: ('A' for Active; 'I' for Inactive)
REMARK    1  A    between atoms: C_1  and  O_2
REMARK    2  A    between atoms: O_2  and  C_3
REMARK    3  A    between atoms: N_18  and  C_19
REMARK                            x       y       z     vdW  Elec       q    Type
REMARK                         _______ _______ _______ _____ _____    ______ ____
ROOT
ATOM      1  C   UNL     1       0.912   2.253 -23.267  0.00  0.00    +0.162 A 
ATOM      2  C   UNL     1       0.876   1.883 -22.059  0.00  0.00    +0.050 A 
ATOM      3  C   UNL     1      -0.199   1.901 -21.422  0.00  0.00    +0.008 A 
ATOM      4  C   UNL     1      -1.247   2.289 -21.985  0.00  0.00    -0.034 A 
ATOM      5  C   UNL     1      -1.234   2.663 -23.186  0.00  0.00    +0.012 A 
ATOM      6  C   UNL     1      -2.282   3.049 -23.742  0.00  0.00    +0.054 C 
ATOM      7  C   UNL     1      -3.410   3.509 -24.481  0.00  0.00    +0.067 C 
ATOM      8  C   UNL     1      -4.637   3.542 -23.790  0.00  0.00    +0.132 C 
ATOM      9  N   UNL     1      -4.640   3.121 -22.445  0.00  0.00    +0.236 N 
ATOM     10  H   UNL     1      -5.500   3.124 -21.898  0.00  0.00    +0.203 HD
ATOM     11  C   UNL     1      -5.685   3.119 -21.762  0.00  0.00    +0.190 C 
ATOM     12  C   UNL     1      -3.394   2.699 -21.902  0.00  0.00    +0.076 C 
ATOM     13  C   UNL     1      -3.359   3.069 -23.109  0.00  0.00    +0.075 C 
ATOM     14  C   UNL     1      -4.420   3.461 -23.673  0.00  0.00    -0.020 C 
ATOM     15  C   UNL     1      -4.391   3.829 -24.867  0.00  0.00    -0.008 C 
ATOM     16  C   UNL     1      -3.309   3.813 -25.517  0.00  0.00    +0.144 C 
ATOM     17 CL   UNL     1      -3.284   4.181 -26.709  0.00  0.00    -0.113 Cl
ATOM     18  C   UNL     1      -2.261   3.424 -24.954  0.00  0.00    +0.207 C 
ATOM     19  O   UNL     1      -0.779   3.166 -25.087  0.00  0.00    -0.482 OA
ATOM     20  C   UNL     1      -2.346   2.311 -21.341  0.00  0.00    +0.090 C 
ATOM     21  C   UNL     1      -0.151   2.645 -23.831  0.00  0.00    +0.167 A 
ENDROOT
BRANCH   1  23
ATOM     22  C   UNL     1       2.698   3.261 -23.961  0.00  0.00    +0.277 C 
ATOM     23  O   UNL     1       1.989   2.233 -23.899  0.00  0.00    -0.491 OA
ENDBRANCH   1  23
TORSDOF 1
ENDMDL
MODEL 2
REMARK VINA RESULT:   -10.707      2.045      3.011
REMARK INTER + INTRA:         -11.463
REMARK INTER:                 -11.346
REMARK INTRA:                  -0.117
REMARK UNBOUND:                -0.130
REMARK  Name = ZINC000090548555
REMARK  3 active torsions:
REMARK  status: ('A' for Active; 'I' for Inactive)
REMARK    1  A    between atoms: C_1  and  O_2
REMARK    2  A    between atoms: O_2  and  C_3
REMARK    3  A    between atoms: N_18  and  C_19
REMARK                            x       y       z     vdW  Elec       q    Type
REMARK                         _______ _______ _______ _____ _____    ______ ____
ROOT
ATOM      1  C   UNL     1       1.066   1.707 -22.176  0.00  0.00    +0.162 A 
ATOM      2  C   UNL     1       1.629   2.102 -23.237  0.00  0.00    +0.050 A 
ATOM      3  C   UNL     1       0.975   2.701 -24.116  0.00  0.00    +0.008 A 
ATOM      4  C   UNL     1      -0.247   2.911 -23.946  0.00  0.00    -0.034 A 
ATOM      5  C   UNL     1      -0.828   2.527 -22.898  0.00  0.00    +0.012 A 
ATOM      6  C   UNL     1      -2.046   2.740 -22.733  0.00  0.00    +0.054 C 
ATOM      7  C   UNL     1      -3.427   2.924 -22.433  0.00  0.00    +0.067 C 
ATOM      8  C   UNL     1      -4.191   3.596 -23.406  0.00  0.00    +0.132 C 
ATOM      9  N   UNL     1      -3.531   4.022 -24.576  0.00  0.00    +0.236 N 
ATOM     10  H   UNL     1      -4.037   4.514 -25.313  0.00  0.00    +0.203 HD
ATOM     11  C   UNL     1      -4.136   4.625 -25.487  0.00  0.00    +0.190 C 
ATOM     12  C   UNL     1      -2.140   3.732 -24.670  0.00  0.00    +0.076 C 
ATOM     13  C   UNL     1      -2.704   3.339 -23.611  0.00  0.00    +0.075 C 
ATOM     14  C   UNL     1      -3.939   3.553 -23.442  0.00  0.00    -0.020 C 
ATOM     15  C   UNL     1      -4.500   3.165 -22.396  0.00  0.00    -0.008 C 
ATOM     16  C   UNL     1      -3.846   2.559 -21.503  0.00  0.00    +0.144 C 
ATOM     17 CL   UNL     1      -4.412   2.174 -20.459  0.00  0.00    -0.113 Cl
ATOM     18  C   UNL     1      -2.624   2.349 -21.673  0.00  0.00    +0.207 C 
ATOM     19  O   UNL     1      -1.355   1.758 -21.108  0.00  0.00    -0.482 OA
ATOM     20  C   UNL     1      -0.920   3.521 -24.839  0.00  0.00    +0.090 C 
ATOM     21  C   UNL     1      -0.170   1.922 -22.008  0.00  0.00    +0.167 A 
ENDROOT
BRANCH   1  23
ATOM     22  C   UNL     1       2.887   1.482 -21.025  0.00  0.00    +0.277 C 
ATOM     23  O   UNL     1       1.725   1.108 -21.299  0.00  0.00    -0.491 OA
ENDBRANCH   1  23
TORSDOF 1
ENDMDL
MODEL 3
REMARK VINA RESULT:   -10.586      2.684      5.448
REMARK INTER + INTRA:         -11.334
REMARK INTER:                 -11.210
REMARK INTRA:                  -0.125
REMARK UNBOUND:                -0.130
REMARK  Name = ZINC000090548555
REMARK  3 active torsions:
REMARK  status: ('A' for Active; 'I' for Inactive)
REMARK    1  A    between atoms: C_1  and  O_2
REMARK    2  A    between atoms: O_2  and  C_3
REMARK    3  A    between atoms: N_18  and  C_19
REMARK                            x       y       z     vdW  Elec       q    Type
REMARK                         _______ _______ _______ _____ _____    ______ ____
ROOT
ATOM      1  C   UNL     1      -4.726   3.377 -22.470  0.00  0.00    +0.162 A 
ATOM      2  C   UNL     1      -5.032   3.861 -23.596  0.00  0.00    +0.050 A 
ATOM      3  C   UNL     1      -4.170   3.980 -24.491  0.00  0.00    +0.008 A 
ATOM      4  C   UNL     1      -2.993   3.616 -24.271  0.00  0.00    -0.034 A 
ATOM      5  C   UNL     1      -2.665   3.131 -23.158  0.00  0.00    +0.012 A 
ATOM      6  C   UNL     1      -1.490   2.770 -22.944  0.00  0.00    +0.054 C 
ATOM      7  C   UNL     1      -0.186   2.324 -22.583  0.00  0.00    +0.067 C 
ATOM      8  C   UNL     1       0.810   2.445 -23.572  0.00  0.00    +0.132 C 
ATOM      9  N   UNL     1       0.432   2.990 -24.815  0.00  0.00    +0.236 N 
ATOM     10  H   UNL     1       1.113   3.100 -25.567  0.00  0.00    +0.203 HD
ATOM     11  C   UNL     1       1.253   3.131 -25.746  0.00  0.00    +0.190 C 
ATOM     12  C   UNL     1      -0.932   3.372 -24.962  0.00  0.00    +0.076 C 
ATOM     13  C   UNL     1      -0.623   2.887 -23.837  0.00  0.00    +0.075 C 
ATOM     14  C   UNL     1       0.566   2.520 -23.618  0.00  0.00    -0.020 C 
ATOM     15  C   UNL     1       0.875   2.041 -22.507  0.00  0.00    -0.008 C 
ATOM     16  C   UNL     1       0.009   1.918 -21.597  0.00  0.00    +0.144 C 
ATOM     17 CL   UNL     1       0.323   1.437 -20.488  0.00  0.00    -0.113 Cl
ATOM     18  C   UNL     1      -1.168   2.281 -21.817  0.00  0.00    +0.207 C 
ATOM     19  O   UNL     1      -2.568   2.419 -21.271  0.00  0.00    -0.482 OA
ATOM     20  C   UNL     1      -2.108   3.734 -25.180  0.00  0.00    +0.090 C 
ATOM     21  C   UNL     1      -3.534   3.010 -22.252  0.00  0.00    +0.167 A 
ENDROOT
BRANCH   1  23
ATOM     22  C   UNL     1      -6.646   2.626 -21.808  0.00  0.00    +0.277 C 
ATOM     23  O   UNL     1      -5.592   3.260 -21.578  0.00  0.00    -0.491 OA
ENDBRANCH   1  23
TORSDOF 1
ENDMDL
MODEL 4
REMARK VINA RESULT:   -10.134      2.089      4.751
REMARK INTER + INTRA:         -10.857
REMARK INTER:                 -10.794
REMARK INTRA:                  -0.063
REMARK UNBOUND:                -0.130
REMARK  Name = ZINC000090548555
REMARK  3 active torsions:
REMARK  status: ('A' for Active; 'I' for Inactive)
REMARK    1  A    between atoms: C_1  and  O_2
REMARK    2  A    between atoms: O_2  and  C_3
REMARK    3  A    between atoms: N_18  and  C_19
REMARK                            x       y       z     vdW  Elec       q    Type
REMARK                         _______ _______ _______ _____ _____    ______ ____
ROOT
ATOM      1  C   UNL     1      -3.850   3.527 -23.113  0.00  0.00    +0.162 A 
ATOM      2  C   UNL     1      -4.094   2.921 -22.031  0.00  0.00    +0.050 A 
ATOM      3  C   UNL     1      -3.176   2.361 -21.396  0.00  0.00    +0.008 A 
ATOM      4  C   UNL     1      -2.005   2.401 -21.835  0.00  0.00    -0.034 A 
ATOM      5  C   UNL     1      -1.738   2.998 -22.910  0.00  0.00    +0.012 A 
ATOM      6  C   UNL     1      -0.569   3.034 -23.343  0.00  0.00    +0.054 C 
ATOM      7  C   UNL     1       0.723   3.142 -23.935  0.00  0.00    +0.067 C 
ATOM      8  C   UNL     1       1.780   2.521 -23.243  0.00  0.00    +0.132 C 
ATOM      9  N   UNL     1       1.470   1.855 -22.040  0.00  0.00    +0.236 N 
ATOM     10  H   UNL     1       2.197   1.388 -21.499  0.00  0.00    +0.203 HD
ATOM     11  C   UNL     1       2.349   1.278 -21.365  0.00  0.00    +0.190 C 
ATOM     12  C   UNL     1       0.107   1.870 -21.630  0.00  0.00    +0.076 C 
ATOM     13  C   UNL     1       0.353   2.475 -22.711  0.00  0.00    +0.075 C 
ATOM     14  C   UNL     1       1.538   2.512 -23.152  0.00  0.00    -0.020 C 
ATOM     15  C   UNL     1       1.786   3.109 -24.221  0.00  0.00    -0.008 C 
ATOM     16  C   UNL     1       0.863   3.677 -24.867  0.00  0.00    +0.144 C 
ATOM     17 CL   UNL     1       1.115   4.273 -25.935  0.00  0.00    -0.113 Cl
ATOM     18  C   UNL     1      -0.308   3.638 -24.428  0.00  0.00    +0.207 C 
ATOM     19  O   UNL     1      -1.748   4.042 -24.638  0.00  0.00    -0.482 OA
ATOM     20  C   UNL     1      -1.063   1.832 -21.193  0.00  0.00    +0.090 C 
ATOM     21  C   UNL     1      -2.664   3.564 -23.553  0.00  0.00    +0.167 A 
ENDROOT
BRANCH   1  23
ATOM     22  C   UNL     1      -5.029   3.735 -24.917  0.00  0.00    +0.277 C 
ATOM     23  O   UNL     1      -4.772   4.085 -23.744  0.00  0.00    -0.491 OA
ENDBRANCH   1  23
TORSDOF 1
ENDMDL
MODEL 5
REMARK VINA RESULT:    -9.563      3.223      6.356
REMARK INTER + INTRA:         -10.252
REMARK INTER:                 -10.133
REMARK INTRA:                  -0.119
REMARK UNBOUND:                -0.130
REMARK  Name = ZINC000090548555
REMARK  3 active torsions:
REMARK  status: ('A' for Active; 'I' for Inactive)
REMARK    1  A    between atoms: C_1  and  O_2
REMARK    2  A    between atoms: O_2  and  C_3
REMARK    3  A    between atoms: N_18  and  C_19
REMARK                            x       y       z     vdW  Elec       q    Type
REMARK                         _______ _______ _______ _____ _____    ______ ____
ROOT
ATOM      1  C   UNL     1      -1.491   3.313 -23.385  0.00  0.00    +0.162 A 
ATOM      2  C   UNL     1      -1.570   4.553 -23.616  0.00  0.00    +0.050 A 
ATOM      3  C   UNL     1      -0.543   5.264 -23.619  0.00  0.00    +0.008 A 
ATOM      4  C   UNL     1       0.572   4.744 -23.391  0.00  0.00    -0.034 A 
ATOM      5  C   UNL     1       0.675   3.512 -23.159  0.00  0.00    +0.012 A 
ATOM      6  C   UNL     1       1.789   2.999 -22.933  0.00  0.00    +0.054 C 
ATOM      7  C   UNL     1       3.002   2.303 -22.662  0.00  0.00    +0.067 C 
ATOM      8  C   UNL     1       4.178   3.077 -22.658  0.00  0.00    +0.132 C 
ATOM      9  N   UNL     1       4.052   4.456 -22.919  0.00  0.00    +0.236 N 
ATOM     10  H   UNL     1       4.872   5.064 -22.929  0.00  0.00    +0.203 HD
ATOM     11  C   UNL     1       5.045   5.214 -22.935  0.00  0.00    +0.190 C 
ATOM     12  C   UNL     1       2.739   4.946 -23.166  0.00  0.00    +0.076 C 
ATOM     13  C   UNL     1       2.819   3.707 -22.935  0.00  0.00    +0.075 C 
ATOM     14  C   UNL     1       3.948   3.185 -22.705  0.00  0.00    -0.020 C 
ATOM     15  C   UNL     1       4.032   1.960 -22.476  0.00  0.00    -0.008 C 
ATOM     16  C   UNL     1       2.999   1.235 -22.471  0.00  0.00    +0.144 C 
ATOM     17 CL   UNL     1       3.088   0.012 -22.242  0.00  0.00    -0.113 Cl
ATOM     18  C   UNL     1       1.884   1.755 -22.699  0.00  0.00    +0.207 C 
ATOM     19  O   UNL     1       0.396   1.538 -22.840  0.00  0.00    -0.482 OA
ATOM     20  C   UNL     1       1.624   5.464 -23.393  0.00  0.00    +0.090 C 
ATOM     21  C   UNL     1      -0.361   2.792 -23.155  0.00  0.00    +0.167 A 
ENDROOT
BRANCH   1  23
ATOM     22  C   UNL     1      -3.550   3.001 -22.791  0.00  0.00    +0.277 C 
ATOM     23  O   UNL     1      -2.521   2.606 -23.383  0.00  0.00    -0.491 OA
ENDBRANCH   1  23
TORSDOF 1
ENDMDL
MODEL 6
REMARK VINA RESULT:    -8.897      2.243      4.396
REMARK INTER + INTRA:          -9.547
REMARK INTER:                  -9.890
REMARK INTRA:                   0.344
REMARK UNBOUND:                -0.130
REMARK  Name = ZINC000090548555
REMARK  3 active torsions:
REMARK  status: ('A' for Active; 'I' for Inactive)
REMARK    1  A    between atoms: C_1  and  O_2
REMARK    2  A    between atoms: O_2  and  C_3
REMARK    3  A    between atoms: N_18  and  C_19
REMARK                            x       y       z     vdW  Elec       q    Type
REMARK                         _______ _______ _______ _____ _____    ______ ____
ROOT
ATOM      1  C   UNL     1      -4.557   3.132 -21.507  0.00  0.00    +0.162 A 
ATOM      2  C   UNL     1      -3.820   3.153 -20.481  0.00  0.00    +0.050 A 
ATOM      3  C   UNL     1      -2.581   3.260 -20.593  0.00  0.00    +0.008 A 
ATOM      4  C   UNL     1      -2.065   3.347 -21.730  0.00  0.00    -0.034 A 
ATOM      5  C   UNL     1      -2.780   3.328 -22.765  0.00  0.00    +0.012 A 
ATOM      6  C   UNL     1      -2.261   3.415 -23.896  0.00  0.00    +0.054 C 
ATOM      7  C   UNL     1      -1.784   3.507 -25.236  0.00  0.00    +0.067 C 
ATOM      8  C   UNL     1      -0.390   3.629 -25.395  0.00  0.00    +0.132 C 
ATOM      9  N   UNL     1       0.400   3.649 -24.229  0.00  0.00    +0.236 N 
ATOM     10  H   UNL     1       1.415   3.735 -24.286  0.00  0.00    +0.203 HD
ATOM     11  C   UNL     1       1.644   3.754 -24.282  0.00  0.00    +0.190 C 
ATOM     12  C   UNL     1      -0.286   3.543 -22.986  0.00  0.00    +0.076 C 
ATOM     13  C   UNL     1      -1.021   3.523 -24.013  0.00  0.00    +0.075 C 
ATOM     14  C   UNL     1      -0.497   3.611 -25.159  0.00  0.00    -0.020 C 
ATOM     15  C   UNL     1      -1.220   3.591 -26.178  0.00  0.00    -0.008 C 
ATOM     16  C   UNL     1      -2.473   3.483 -26.072  0.00  0.00    +0.144 C 
ATOM     17 CL   UNL     1      -3.192   3.463 -27.093  0.00  0.00    -0.113 Cl
ATOM     18  C   UNL     1      -2.989   3.396 -24.936  0.00  0.00    +0.207 C 
ATOM     19  O   UNL     1      -4.261   3.259 -24.135  0.00  0.00    -0.482 OA
ATOM     20  C   UNL     1      -0.802   3.456 -21.851  0.00  0.00    +0.090 C 
ATOM     21  C   UNL     1      -4.031   3.220 -22.655  0.00  0.00    +0.167 A 
ENDROOT
BRANCH   1  23
ATOM     22  C   UNL     1      -6.530   3.118 -22.399  0.00  0.00    +0.277 C 
ATOM     23  O   UNL     1      -5.796   3.025 -21.390  0.00  0.00    -0.491 OA
ENDBRANCH   1  23
TORSDOF 1
ENDMDL
MODEL 7
REMARK VINA RESULT:    -8.344      3.608      6.790
REMARK INTER + INTRA:          -8.962
REMARK INTER:                  -8.854
REMARK INTRA:                  -0.109
REMARK UNBOUND:                -0.130
REMARK  Name = ZINC000090548555
REMARK  3 active torsions:
REMARK  status: ('A' for Active; 'I' for Inactive)
REMARK    1  A    between atoms: C_1  and  O_2
REMARK    2  A    between atoms: O_2  and  C_3
REMARK    3  A    between atoms: N_18  and  C_19
REMARK                            x       y       z     vdW  Elec       q    Type
REMARK                         _______ _______ _______ _____ _____    ______ ____
ROOT
ATOM      1  C   UNL     1      -0.047   3.665 -23.393  0.00  0.00    +0.162 A 
ATOM      2  C   UNL     1      -0.661   2.672 -22.911  0.00  0.00    +0.050 A 
ATOM      3  C   UNL     1      -0.039   1.772 -22.309  0.00  0.00    +0.008 A 
ATOM      4  C   UNL     1       1.203   1.854 -22.183  0.00  0.00    -0.034 A 
ATOM      5  C   UNL     1       1.836   2.834 -22.655  0.00  0.00    +0.012 A 
ATOM      6  C   UNL     1       3.075   2.911 -22.526  0.00  0.00    +0.054 C 
ATOM      7  C   UNL     1       4.484   3.108 -22.442  0.00  0.00    +0.067 C 
ATOM      8  C   UNL     1       5.214   2.109 -21.770  0.00  0.00    +0.132 C 
ATOM      9  N   UNL     1       4.495   1.017 -21.245  0.00  0.00    +0.236 N 
ATOM     10  H   UNL     1       4.974   0.265 -20.749  0.00  0.00    +0.203 HD
ATOM     11  C   UNL     1       5.067   0.089 -20.635  0.00  0.00    +0.190 C 
ATOM     12  C   UNL     1       3.086   1.020 -21.444  0.00  0.00    +0.076 C 
ATOM     13  C   UNL     1       3.702   2.012 -21.925  0.00  0.00    +0.075 C 
ATOM     14  C   UNL     1       4.957   2.092 -21.795  0.00  0.00    -0.020 C 
ATOM     15  C   UNL     1       5.570   3.071 -22.270  0.00  0.00    -0.008 C 
ATOM     16  C   UNL     1       4.948   3.985 -22.879  0.00  0.00    +0.144 C 
ATOM     17 CL   UNL     1       5.566   4.962 -23.351  0.00  0.00    -0.113 Cl
ATOM     18  C   UNL     1       3.706   3.903 -23.005  0.00  0.00    +0.207 C 
ATOM     19  O   UNL     1       2.448   4.539 -23.544  0.00  0.00    -0.482 OA
ATOM     20  C   UNL     1       1.845   0.939 -21.571  0.00  0.00    +0.090 C 
ATOM     21  C   UNL     1       1.210   3.744 -23.262  0.00  0.00    +0.167 A 
ENDROOT
BRANCH   1  23
ATOM     22  C   UNL     1      -1.924   4.543 -24.019  0.00  0.00    +0.277 C 
ATOM     23  O   UNL     1      -0.674   4.563 -23.993  0.00  0.00    -0.491 OA
ENDBRANCH   1  23
TORSDOF 1
ENDMDL
MODEL 8
REMARK VINA RESULT:    -8.342      2.964      5.917
REMARK INTER + INTRA:          -8.959
REMARK INTER:                  -8.838
REMARK INTRA:                  -0.121
REMARK UNBOUND:                -0.130
REMARK  Name = ZINC000090548555
REMARK  3 active torsions:
REMARK  status: ('A' for Active; 'I' for Inactive)
REMARK    1  A    between atoms: C_1  and  O_2
REMARK    2  A    between atoms: O_2  and  C_3
REMARK    3  A    between atoms: N_18  and  C_19
REMARK                            x       y       z     vdW  Elec       q    Type
REMARK                         _______ _______ _______ _____ _____    ______ ____
ROOT
ATOM      1  C   UNL     1      -2.826   2.928 -23.216  0.00  0.00    +0.162 A 
ATOM      2  C   UNL     1      -2.774   3.347 -24.407  0.00  0.00    +0.050 A 
ATOM      3  C   UNL     1      -1.679   3.432 -25.002  0.00  0.00    +0.008 A 
ATOM      4  C   UNL     1      -0.626   3.099 -24.414  0.00  0.00    -0.034 A 
ATOM      5  C   UNL     1      -0.653   2.680 -23.229  0.00  0.00    +0.012 A 
ATOM      6  C   UNL     1       0.400   2.350 -22.647  0.00  0.00    +0.054 C 
ATOM      7  C   UNL     1       1.532   1.946 -21.882  0.00  0.00    +0.067 C 
ATOM      8  C   UNL     1       2.782   2.030 -22.526  0.00  0.00    +0.132 C 
ATOM      9  N   UNL     1       2.801   2.501 -23.854  0.00  0.00    +0.236 N 
ATOM     10  H   UNL     1       3.679   2.582 -24.367  0.00  0.00    +0.203 HD
ATOM     11  C   UNL     1       3.867   2.606 -24.496  0.00  0.00    +0.190 C 
ATOM     12  C   UNL     1       1.548   2.852 -24.429  0.00  0.00    +0.076 C 
ATOM     13  C   UNL     1       1.498   2.433 -23.239  0.00  0.00    +0.075 C 
ATOM     14  C   UNL     1       2.564   2.099 -22.648  0.00  0.00    -0.020 C 
ATOM     15  C   UNL     1       2.519   1.684 -21.470  0.00  0.00    -0.008 C 
ATOM     16  C   UNL     1       1.417   1.596 -20.863  0.00  0.00    +0.144 C 
ATOM     17 CL   UNL     1       1.377   1.181 -19.686  0.00  0.00    -0.113 Cl
ATOM     18  C   UNL     1       0.363   1.928 -21.451  0.00  0.00    +0.207 C 
ATOM     19  O   UNL     1      -1.137   2.072 -21.366  0.00  0.00    -0.482 OA
ATOM     20  C   UNL     1       0.494   3.184 -25.015  0.00  0.00    +0.090 C 
ATOM     21  C   UNL     1      -1.757   2.593 -22.626  0.00  0.00    +0.167 A 
ENDROOT
BRANCH   1  23
ATOM     22  C   UNL     1      -4.185   3.621 -21.680  0.00  0.00    +0.277 C 
ATOM     23  O   UNL     1      -3.923   2.845 -22.625  0.00  0.00    -0.491 OA
ENDBRANCH   1  23
TORSDOF 1
ENDMDL
