MODEL 1
REMARK VINA RESULT:    -8.677      0.000      0.000
REMARK INTER + INTRA:          -5.927
REMARK INTER:                 -10.167
REMARK INTRA:                   4.240
REMARK UNBOUND:                 4.272
REMARK  Name = ZINC000000753040
REMARK  4 active torsions:
REMARK  status: ('A' for Active; 'I' for Inactive)
REMARK    1  A    between atoms: C_1  and  C_2
REMARK    2  A    between atoms: C_2  and  O_3
REMARK    3  A    between atoms: O_3  and  C_4
REMARK    4  A    between atoms: C_21  and  C_22
REMARK                            x       y       z     vdW  Elec       q    Type
REMARK                         _______ _______ _______ _____ _____    ______ ____
ROOT
ATOM      1  C   UNL     1       4.244   4.839 -22.499  0.00  0.00    +0.026 C 
ATOM      2  C   UNL     1       3.017   4.578 -22.840  0.00  0.00    +0.043 C 
ATOM      3  C   UNL     1       2.255   5.525 -23.300  0.00  0.00    +0.190 C 
ATOM      4  O   UNL     1       1.028   5.264 -23.641  0.00  0.00    -0.441 OA
ATOM      5  C   UNL     1       0.563   4.055 -23.522  0.00  0.00    +0.152 A 
ATOM      6  C   UNL     1       1.327   3.109 -23.061  0.00  0.00    +0.092 A 
ATOM      7  C   UNL     1       0.862   1.900 -22.942  0.00  0.00    +0.345 A 
ATOM      8  O   UNL     1      -0.365   1.639 -23.283  0.00  0.00    -0.422 OA
ATOM      9  C   UNL     1      -1.128   2.586 -23.743  0.00  0.00    +0.143 A 
ATOM     10  C   UNL     1      -2.354   2.324 -24.084  0.00  0.00    +0.047 A 
ATOM     11  C   UNL     1      -3.118   3.271 -24.545  0.00  0.00    +0.004 A 
ATOM     12  C   UNL     1      -2.653   4.480 -24.664  0.00  0.00    +0.001 A 
ATOM     13  C   UNL     1      -1.426   4.740 -24.323  0.00  0.00    +0.015 A 
ATOM     14  O   UNL     1       1.624   0.953 -22.482  0.00  0.00    -0.245 OA
ATOM     15  C   UNL     1      -0.664   3.794 -23.863  0.00  0.00    +0.060 A 
ATOM     16  N   UNL     1       2.719   6.734 -23.420  0.00  0.00    -0.329 N 
ATOM     17  H   UNL     1       2.142   7.451 -23.768  0.00  0.00    +0.145 HD
ATOM     18  H   UNL     1       3.648   6.932 -23.162  0.00  0.00    +0.145 HD
ATOM     19  C   UNL     1       2.552   3.370 -22.721  0.00  0.00    +0.096 C 
ATOM     20  O   UNL     1       5.006   3.893 -22.039  0.00  0.00    -0.800 OA
ENDROOT
BRANCH  19  21
ATOM     21  C   UNL     1       3.316   2.423 -22.260  0.00  0.00    -0.035 A 
ATOM     22  C   UNL     1       3.286   2.122 -20.996  0.00  0.00    +0.005 A 
ATOM     23  C   UNL     1       4.049   1.175 -20.534  0.00  0.00    +0.015 A 
ATOM     24  C   UNL     1       4.841   0.530 -21.338  0.00  0.00    +0.018 A 
ATOM     25  C   UNL     1       4.871   0.831 -22.603  0.00  0.00    +0.015 A 
ATOM     26 BR   UNL     1       5.603  -0.416 -20.878  0.00  0.00    -0.050 Br
ATOM     27  C   UNL     1       4.108   1.778 -23.064  0.00  0.00    +0.005 A 
ENDBRANCH  19  21
BRANCH   1  28
ATOM     28  O   UNL     1       4.709   6.049 -22.618  0.00  0.00    -0.512 OA
BRANCH  28  30
ATOM     29  C   UNL     1       5.994   7.414 -21.372  0.00  0.00    +0.048 C 
ATOM     30  C   UNL     1       5.867   6.352 -22.112  0.00  0.00    +0.223 C 
ENDBRANCH  28  30
ENDBRANCH   1  28
TORSDOF 3
ENDMDL
MODEL 2
REMARK VINA RESULT:    -7.701      3.454      6.581
REMARK INTER + INTRA:          -4.780
REMARK INTER:                  -8.983
REMARK INTRA:                   4.203
REMARK UNBOUND:                 4.272
REMARK  Name = ZINC000000753040
REMARK  4 active torsions:
REMARK  status: ('A' for Active; 'I' for Inactive)
REMARK    1  A    between atoms: C_1  and  C_2
REMARK    2  A    between atoms: C_2  and  O_3
REMARK    3  A    between atoms: O_3  and  C_4
REMARK    4  A    between atoms: C_21  and  C_22
REMARK                            x       y       z     vdW  Elec       q    Type
REMARK                         _______ _______ _______ _____ _____    ______ ____
ROOT
ATOM      1  C   UNL     1      -1.616   3.377 -24.629  0.00  0.00    +0.026 C 
ATOM      2  C   UNL     1      -0.507   2.927 -24.123  0.00  0.00    +0.043 C 
ATOM      3  C   UNL     1       0.549   2.812 -24.871  0.00  0.00    +0.190 C 
ATOM      4  O   UNL     1       1.659   2.361 -24.364  0.00  0.00    -0.441 OA
ATOM      5  C   UNL     1       1.711   2.026 -23.109  0.00  0.00    +0.152 A 
ATOM      6  C   UNL     1       0.654   2.141 -22.361  0.00  0.00    +0.092 A 
ATOM      7  C   UNL     1       0.706   1.806 -21.106  0.00  0.00    +0.345 A 
ATOM      8  O   UNL     1       1.815   1.356 -20.599  0.00  0.00    -0.422 OA
ATOM      9  C   UNL     1       2.873   1.240 -21.347  0.00  0.00    +0.143 A 
ATOM     10  C   UNL     1       3.981   0.790 -20.841  0.00  0.00    +0.047 A 
ATOM     11  C   UNL     1       5.039   0.674 -21.589  0.00  0.00    +0.004 A 
ATOM     12  C   UNL     1       4.986   1.010 -22.844  0.00  0.00    +0.001 A 
ATOM     13  C   UNL     1       3.877   1.460 -23.350  0.00  0.00    +0.015 A 
ATOM     14  O   UNL     1      -0.351   1.921 -20.358  0.00  0.00    -0.245 OA
ATOM     15  C   UNL     1       2.820   1.575 -22.602  0.00  0.00    +0.060 A 
ATOM     16  N   UNL     1       0.497   3.147 -26.127  0.00  0.00    -0.329 N 
ATOM     17  H   UNL     1       1.297   3.060 -26.693  0.00  0.00    +0.145 HD
ATOM     18  H   UNL     1      -0.342   3.488 -26.510  0.00  0.00    +0.145 HD
ATOM     19  C   UNL     1      -0.455   2.592 -22.868  0.00  0.00    +0.096 C 
ATOM     20  O   UNL     1      -2.673   3.493 -23.881  0.00  0.00    -0.800 OA
ENDROOT
BRANCH  19  21
ATOM     21  C   UNL     1      -1.512   2.707 -22.120  0.00  0.00    -0.035 A 
ATOM     22  C   UNL     1      -1.776   3.840 -21.539  0.00  0.00    +0.005 A 
ATOM     23  C   UNL     1      -2.833   3.956 -20.791  0.00  0.00    +0.015 A 
ATOM     24  C   UNL     1      -3.626   2.939 -20.624  0.00  0.00    +0.018 A 
ATOM     25  C   UNL     1      -3.362   1.807 -21.205  0.00  0.00    +0.015 A 
ATOM     26 BR   UNL     1      -4.682   3.055 -19.876  0.00  0.00    -0.050 Br
ATOM     27  C   UNL     1      -2.305   1.690 -21.953  0.00  0.00    +0.005 A 
ENDBRANCH  19  21
BRANCH   1  28
ATOM     28  O   UNL     1      -1.669   3.713 -25.885  0.00  0.00    -0.512 OA
BRANCH  28  30
ATOM     29  C   UNL     1      -3.253   3.323 -27.437  0.00  0.00    +0.048 C 
ATOM     30  C   UNL     1      -2.810   4.015 -26.430  0.00  0.00    +0.223 C 
ENDBRANCH  28  30
ENDBRANCH   1  28
TORSDOF 3
ENDMDL
MODEL 3
REMARK VINA RESULT:    -6.180      2.294      3.079
REMARK INTER + INTRA:          -2.992
REMARK INTER:                  -7.397
REMARK INTRA:                   4.405
REMARK UNBOUND:                 4.272
REMARK  Name = ZINC000000753040
REMARK  4 active torsions:
REMARK  status: ('A' for Active; 'I' for Inactive)
REMARK    1  A    between atoms: C_1  and  C_2
REMARK    2  A    between atoms: C_2  and  O_3
REMARK    3  A    between atoms: O_3  and  C_4
REMARK    4  A    between atoms: C_21  and  C_22
REMARK                            x       y       z     vdW  Elec       q    Type
REMARK                         _______ _______ _______ _____ _____    ______ ____
ROOT
ATOM      1  C   UNL     1       6.053   6.493 -22.098  0.00  0.00    +0.026 C 
ATOM      2  C   UNL     1       4.883   6.033 -22.431  0.00  0.00    +0.043 C 
ATOM      3  C   UNL     1       3.815   6.725 -22.173  0.00  0.00    +0.190 C 
ATOM      4  O   UNL     1       2.645   6.265 -22.507  0.00  0.00    -0.441 OA
ATOM      5  C   UNL     1       2.546   5.111 -23.099  0.00  0.00    +0.152 A 
ATOM      6  C   UNL     1       3.616   4.419 -23.356  0.00  0.00    +0.092 A 
ATOM      7  C   UNL     1       3.516   3.266 -23.948  0.00  0.00    +0.345 A 
ATOM      8  O   UNL     1       2.347   2.805 -24.282  0.00  0.00    -0.422 OA
ATOM      9  C   UNL     1       1.277   3.497 -24.024  0.00  0.00    +0.143 A 
ATOM     10  C   UNL     1       0.109   3.037 -24.357  0.00  0.00    +0.047 A 
ATOM     11  C   UNL     1      -0.961   3.729 -24.099  0.00  0.00    +0.004 A 
ATOM     12  C   UNL     1      -0.862   4.883 -23.508  0.00  0.00    +0.001 A 
ATOM     13  C   UNL     1       0.308   5.343 -23.174  0.00  0.00    +0.015 A 
ATOM     14  O   UNL     1       4.585   2.572 -24.206  0.00  0.00    -0.245 OA
ATOM     15  C   UNL     1       1.377   4.651 -23.432  0.00  0.00    +0.060 A 
ATOM     16  N   UNL     1       3.914   7.879 -21.581  0.00  0.00    -0.329 N 
ATOM     17  H   UNL     1       3.104   8.403 -21.386  0.00  0.00    +0.145 HD
ATOM     18  H   UNL     1       4.799   8.228 -21.329  0.00  0.00    +0.145 HD
ATOM     19  C   UNL     1       4.784   4.879 -23.023  0.00  0.00    +0.096 C 
ATOM     20  O   UNL     1       7.122   5.800 -22.356  0.00  0.00    -0.800 OA
ENDROOT
BRANCH  19  21
ATOM     21  C   UNL     1       5.854   4.187 -23.281  0.00  0.00    -0.035 A 
ATOM     22  C   UNL     1       6.207   3.218 -22.489  0.00  0.00    +0.005 A 
ATOM     23  C   UNL     1       7.277   2.525 -22.746  0.00  0.00    +0.015 A 
ATOM     24  C   UNL     1       7.993   2.801 -23.796  0.00  0.00    +0.018 A 
ATOM     25  C   UNL     1       7.640   3.770 -24.588  0.00  0.00    +0.015 A 
ATOM     26 BR   UNL     1       9.062   2.109 -24.053  0.00  0.00    -0.050 Br
ATOM     27  C   UNL     1       6.570   4.463 -24.330  0.00  0.00    +0.005 A 
ENDBRANCH  19  21
BRANCH   1  28
ATOM     28  O   UNL     1       6.152   7.647 -21.506  0.00  0.00    -0.512 OA
BRANCH  28  30
ATOM     29  C   UNL     1       7.618   9.349 -21.356  0.00  0.00    +0.048 C 
ATOM     30  C   UNL     1       7.320   8.099 -21.157  0.00  0.00    +0.223 C 
ENDBRANCH  28  30
ENDBRANCH   1  28
TORSDOF 3
ENDMDL
MODEL 4
REMARK VINA RESULT:    -6.159      2.570      4.397
REMARK INTER + INTRA:          -2.967
REMARK INTER:                  -7.536
REMARK INTRA:                   4.569
REMARK UNBOUND:                 4.272
REMARK  Name = ZINC000000753040
REMARK  4 active torsions:
REMARK  status: ('A' for Active; 'I' for Inactive)
REMARK    1  A    between atoms: C_1  and  C_2
REMARK    2  A    between atoms: C_2  and  O_3
REMARK    3  A    between atoms: O_3  and  C_4
REMARK    4  A    between atoms: C_21  and  C_22
REMARK                            x       y       z     vdW  Elec       q    Type
REMARK                         _______ _______ _______ _____ _____    ______ ____
ROOT
ATOM      1  C   UNL     1       5.199   1.333 -21.036  0.00  0.00    +0.026 C 
ATOM      2  C   UNL     1       4.000   1.696 -21.384  0.00  0.00    +0.043 C 
ATOM      3  C   UNL     1       2.969   1.029 -20.958  0.00  0.00    +0.190 C 
ATOM      4  O   UNL     1       1.770   1.392 -21.306  0.00  0.00    -0.441 OA
ATOM      5  C   UNL     1       1.603   2.423 -22.082  0.00  0.00    +0.152 A 
ATOM      6  C   UNL     1       2.635   3.090 -22.507  0.00  0.00    +0.092 A 
ATOM      7  C   UNL     1       2.468   4.120 -23.282  0.00  0.00    +0.345 A 
ATOM      8  O   UNL     1       1.269   4.484 -23.631  0.00  0.00    -0.422 OA
ATOM      9  C   UNL     1       0.237   3.817 -23.205  0.00  0.00    +0.143 A 
ATOM     10  C   UNL     1      -0.960   4.180 -23.553  0.00  0.00    +0.047 A 
ATOM     11  C   UNL     1      -1.992   3.513 -23.127  0.00  0.00    +0.004 A 
ATOM     12  C   UNL     1      -1.825   2.483 -22.352  0.00  0.00    +0.001 A 
ATOM     13  C   UNL     1      -0.626   2.120 -22.004  0.00  0.00    +0.015 A 
ATOM     14  O   UNL     1       3.499   4.787 -23.709  0.00  0.00    -0.245 OA
ATOM     15  C   UNL     1       0.405   2.786 -22.430  0.00  0.00    +0.060 A 
ATOM     16  N   UNL     1       3.136  -0.002 -20.182  0.00  0.00    -0.329 N 
ATOM     17  H   UNL     1       2.355  -0.506 -19.860  0.00  0.00    +0.145 HD
ATOM     18  H   UNL     1       4.043  -0.277 -19.918  0.00  0.00    +0.145 HD
ATOM     19  C   UNL     1       3.833   2.726 -22.159  0.00  0.00    +0.096 C 
ATOM     20  O   UNL     1       6.230   1.999 -21.462  0.00  0.00    -0.800 OA
ENDROOT
BRANCH  19  21
ATOM     21  C   UNL     1       4.865   3.393 -22.585  0.00  0.00    -0.035 A 
ATOM     22  C   UNL     1       5.483   3.013 -23.664  0.00  0.00    +0.005 A 
ATOM     23  C   UNL     1       6.515   3.679 -24.091  0.00  0.00    +0.015 A 
ATOM     24  C   UNL     1       6.928   4.725 -23.439  0.00  0.00    +0.018 A 
ATOM     25  C   UNL     1       6.309   5.105 -22.360  0.00  0.00    +0.015 A 
ATOM     26 BR   UNL     1       7.959   5.391 -23.865  0.00  0.00    -0.050 Br
ATOM     27  C   UNL     1       5.278   4.439 -21.933  0.00  0.00    +0.005 A 
ENDBRANCH  19  21
BRANCH   1  28
ATOM     28  O   UNL     1       5.366   0.302 -20.260  0.00  0.00    -0.512 OA
BRANCH  28  30
ATOM     29  C   UNL     1       6.759  -1.408 -19.807  0.00  0.00    +0.048 C 
ATOM     30  C   UNL     1       6.080  -0.706 -20.665  0.00  0.00    +0.223 C 
ENDBRANCH  28  30
ENDBRANCH   1  28
TORSDOF 3
ENDMDL
MODEL 5
REMARK VINA RESULT:    -6.124      2.508      6.318
REMARK INTER + INTRA:          -2.927
REMARK INTER:                  -7.708
REMARK INTRA:                   4.781
REMARK UNBOUND:                 4.272
REMARK  Name = ZINC000000753040
REMARK  4 active torsions:
REMARK  status: ('A' for Active; 'I' for Inactive)
REMARK    1  A    between atoms: C_1  and  C_2
REMARK    2  A    between atoms: C_2  and  O_3
REMARK    3  A    between atoms: O_3  and  C_4
REMARK    4  A    between atoms: C_21  and  C_22
REMARK                            x       y       z     vdW  Elec       q    Type
REMARK                         _______ _______ _______ _____ _____    ______ ____
ROOT
ATOM      1  C   UNL     1       4.084   1.900 -22.883  0.00  0.00    +0.026 C 
ATOM      2  C   UNL     1       4.427   3.131 -22.645  0.00  0.00    +0.043 C 
ATOM      3  C   UNL     1       5.605   3.397 -22.165  0.00  0.00    +0.190 C 
ATOM      4  O   UNL     1       5.948   4.628 -21.926  0.00  0.00    -0.441 OA
ATOM      5  C   UNL     1       5.111   5.594 -22.168  0.00  0.00    +0.152 A 
ATOM      6  C   UNL     1       3.932   5.328 -22.648  0.00  0.00    +0.092 A 
ATOM      7  C   UNL     1       3.096   6.293 -22.889  0.00  0.00    +0.345 A 
ATOM      8  O   UNL     1       3.438   7.525 -22.651  0.00  0.00    -0.422 OA
ATOM      9  C   UNL     1       4.617   7.791 -22.171  0.00  0.00    +0.143 A 
ATOM     10  C   UNL     1       4.959   9.022 -21.933  0.00  0.00    +0.047 A 
ATOM     11  C   UNL     1       6.138   9.288 -21.453  0.00  0.00    +0.004 A 
ATOM     12  C   UNL     1       6.974   8.322 -21.211  0.00  0.00    +0.001 A 
ATOM     13  C   UNL     1       6.632   7.091 -21.450  0.00  0.00    +0.015 A 
ATOM     14  O   UNL     1       1.917   6.028 -23.369  0.00  0.00    -0.245 OA
ATOM     15  C   UNL     1       5.453   6.825 -21.929  0.00  0.00    +0.060 A 
ATOM     16  N   UNL     1       6.442   2.431 -21.923  0.00  0.00    -0.329 N 
ATOM     17  H   UNL     1       7.334   2.633 -21.560  0.00  0.00    +0.145 HD
ATOM     18  H   UNL     1       6.183   1.499 -22.104  0.00  0.00    +0.145 HD
ATOM     19  C   UNL     1       3.591   4.097 -22.886  0.00  0.00    +0.096 C 
ATOM     20  O   UNL     1       2.906   1.635 -23.363  0.00  0.00    -0.800 OA
ENDROOT
BRANCH  19  21
ATOM     21  C   UNL     1       2.412   3.831 -23.366  0.00  0.00    -0.035 A 
ATOM     22  C   UNL     1       2.228   3.792 -24.652  0.00  0.00    +0.005 A 
ATOM     23  C   UNL     1       1.049   3.526 -25.133  0.00  0.00    +0.015 A 
ATOM     24  C   UNL     1       0.055   3.298 -24.327  0.00  0.00    +0.018 A 
ATOM     25  C   UNL     1       0.239   3.337 -23.040  0.00  0.00    +0.015 A 
ATOM     26 BR   UNL     1      -1.123   3.032 -24.807  0.00  0.00    -0.050 Br
ATOM     27  C   UNL     1       1.418   3.603 -22.560  0.00  0.00    +0.005 A 
ENDBRANCH  19  21
BRANCH   1  28
ATOM     28  O   UNL     1       4.922   0.934 -22.642  0.00  0.00    -0.512 OA
BRANCH  28  30
ATOM     29  C   UNL     1       3.987   0.349 -20.679  0.00  0.00    +0.048 C 
ATOM     30  C   UNL     1       4.625   0.023 -21.763  0.00  0.00    +0.223 C 
ENDBRANCH  28  30
ENDBRANCH   1  28
TORSDOF 3
ENDMDL
MODEL 6
REMARK VINA RESULT:    -5.918      2.384      3.899
REMARK INTER + INTRA:          -2.685
REMARK INTER:                  -7.841
REMARK INTRA:                   5.156
REMARK UNBOUND:                 4.272
REMARK  Name = ZINC000000753040
REMARK  4 active torsions:
REMARK  status: ('A' for Active; 'I' for Inactive)
REMARK    1  A    between atoms: C_1  and  C_2
REMARK    2  A    between atoms: C_2  and  O_3
REMARK    3  A    between atoms: O_3  and  C_4
REMARK    4  A    between atoms: C_21  and  C_22
REMARK                            x       y       z     vdW  Elec       q    Type
REMARK                         _______ _______ _______ _____ _____    ______ ____
ROOT
ATOM      1  C   UNL     1       2.426   1.914 -21.065  0.00  0.00    +0.026 C 
ATOM      2  C   UNL     1       1.465   2.159 -21.906  0.00  0.00    +0.043 C 
ATOM      3  C   UNL     1       0.276   1.680 -21.692  0.00  0.00    +0.190 C 
ATOM      4  O   UNL     1      -0.684   1.924 -22.534  0.00  0.00    -0.441 OA
ATOM      5  C   UNL     1      -0.455   2.648 -23.590  0.00  0.00    +0.152 A 
ATOM      6  C   UNL     1       0.735   3.126 -23.803  0.00  0.00    +0.092 A 
ATOM      7  C   UNL     1       0.964   3.849 -24.859  0.00  0.00    +0.345 A 
ATOM      8  O   UNL     1       0.004   4.094 -25.701  0.00  0.00    -0.422 OA
ATOM      9  C   UNL     1      -1.186   3.615 -25.487  0.00  0.00    +0.143 A 
ATOM     10  C   UNL     1      -2.145   3.860 -26.328  0.00  0.00    +0.047 A 
ATOM     11  C   UNL     1      -3.336   3.381 -26.114  0.00  0.00    +0.004 A 
ATOM     12  C   UNL     1      -3.565   2.658 -25.058  0.00  0.00    +0.001 A 
ATOM     13  C   UNL     1      -2.604   2.414 -24.217  0.00  0.00    +0.015 A 
ATOM     14  O   UNL     1       2.154   4.328 -25.074  0.00  0.00    -0.245 OA
ATOM     15  C   UNL     1      -1.415   2.892 -24.431  0.00  0.00    +0.060 A 
ATOM     16  N   UNL     1       0.047   0.957 -20.636  0.00  0.00    -0.329 N 
ATOM     17  H   UNL     1      -0.854   0.595 -20.474  0.00  0.00    +0.145 HD
ATOM     18  H   UNL     1       0.773   0.772 -19.999  0.00  0.00    +0.145 HD
ATOM     19  C   UNL     1       1.694   2.882 -22.962  0.00  0.00    +0.096 C 
ATOM     20  O   UNL     1       3.615   2.393 -21.279  0.00  0.00    -0.800 OA
ENDROOT
BRANCH  19  21
ATOM     21  C   UNL     1       2.885   3.360 -23.176  0.00  0.00    -0.035 A 
ATOM     22  C   UNL     1       3.170   4.577 -22.817  0.00  0.00    +0.005 A 
ATOM     23  C   UNL     1       4.360   5.056 -23.031  0.00  0.00    +0.015 A 
ATOM     24  C   UNL     1       5.264   4.318 -23.603  0.00  0.00    +0.018 A 
ATOM     25  C   UNL     1       4.979   3.101 -23.962  0.00  0.00    +0.015 A 
ATOM     26 BR   UNL     1       6.453   4.796 -23.817  0.00  0.00    -0.050 Br
ATOM     27  C   UNL     1       3.789   2.622 -23.749  0.00  0.00    +0.005 A 
ENDBRANCH  19  21
BRANCH   1  28
ATOM     28  O   UNL     1       2.196   1.191 -20.009  0.00  0.00    -0.512 OA
BRANCH  28  30
ATOM     29  C   UNL     1       4.088   0.021 -20.358  0.00  0.00    +0.048 C 
ATOM     30  C   UNL     1       3.098   0.356 -19.585  0.00  0.00    +0.223 C 
ENDBRANCH  28  30
ENDBRANCH   1  28
TORSDOF 3
ENDMDL
