MODEL 1
REMARK VINA RESULT:    -8.426      0.000      0.000
REMARK INTER + INTRA:         -10.787
REMARK INTER:                 -10.429
REMARK INTRA:                  -0.358
REMARK UNBOUND:                -0.145
REMARK  Name = ZINC000000113310
REMARK  8 active torsions:
REMARK  status: ('A' for Active; 'I' for Inactive)
REMARK    1  A    between atoms: C_1  and  O_2
REMARK    2  A    between atoms: O_2  and  C_3
REMARK    3  A    between atoms: C_12  and  O_13
REMARK    4  A    between atoms: C_14  and  O_15
REMARK    5  A    between atoms: O_15  and  C_16
REMARK    6  A    between atoms: C_16  and  C_17
REMARK    7  A    between atoms: C_18  and  C_19
REMARK    8  A    between atoms: C_18  and  C_20
REMARK                            x       y       z     vdW  Elec       q    Type
REMARK                         _______ _______ _______ _____ _____    ______ ____
ROOT
ATOM      1  C   UNL     1      -0.225   2.150 -22.221  0.00  0.00    +0.166 A 
ATOM      2  C   UNL     1      -1.243   2.331 -21.434  0.00  0.00    +0.061 A 
ATOM      3  C   UNL     1      -2.385   2.711 -21.925  0.00  0.00    +0.025 A 
ATOM      4  C   UNL     1      -3.404   2.892 -21.138  0.00  0.00    +0.019 A 
ATOM      5  C   UNL     1      -4.545   3.272 -21.629  0.00  0.00    +0.092 A 
ATOM      6  C   UNL     1      -4.669   3.471 -22.908  0.00  0.00    +0.337 A 
ATOM      7  O   UNL     1      -3.650   3.290 -23.695  0.00  0.00    -0.418 OA
ATOM      8  O   UNL     1      -5.811   3.851 -23.399  0.00  0.00    -0.245 OA
ATOM      9  C   UNL     1      -2.508   2.910 -23.204  0.00  0.00    +0.184 A 
ATOM     10  C   UNL     1      -1.490   2.729 -23.991  0.00  0.00    +0.206 A 
ATOM     11  C   UNL     1      -0.349   2.349 -23.500  0.00  0.00    +0.208 A 
ENDROOT
BRANCH   1  13
ATOM     12  C   UNL     1       1.033   1.541 -20.456  0.00  0.00    +0.277 C 
ATOM     13  O   UNL     1       0.918   1.770 -21.730  0.00  0.00    -0.491 OA
ENDBRANCH   1  13
BRANCH  10  14
ATOM     14  O   UNL     1      -1.614   2.928 -25.270  0.00  0.00    -0.501 OA
ATOM     15  H   UNL     1      -2.037   3.703 -25.585  0.00  0.00    +0.292 HD
ENDBRANCH  10  14
BRANCH  11  16
ATOM     16  O   UNL     1       0.670   2.168 -24.288  0.00  0.00    -0.481 OA
BRANCH  16  17
ATOM     17  C   UNL     1       1.386   3.184 -24.668  0.00  0.00    +0.257 C 
BRANCH  17  18
ATOM     18  C   UNL     1       2.608   3.313 -24.244  0.00  0.00    +0.012 C 
ATOM     19  C   UNL     1       2.942   4.345 -23.526  0.00  0.00    -0.076 C 
ATOM     20  C   UNL     1       2.054   5.247 -23.234  0.00  0.00    +0.038 C 
ATOM     21  C   UNL     1       4.164   4.473 -23.102  0.00  0.00    +0.038 C 
ENDBRANCH  17  18
ENDBRANCH  16  17
ENDBRANCH  11  16
TORSDOF 5
ENDMDL
MODEL 2
REMARK VINA RESULT:    -8.156      1.378      2.580
REMARK INTER + INTRA:         -10.446
REMARK INTER:                 -10.174
REMARK INTRA:                  -0.272
REMARK UNBOUND:                -0.145
REMARK  Name = ZINC000000113310
REMARK  8 active torsions:
REMARK  status: ('A' for Active; 'I' for Inactive)
REMARK    1  A    between atoms: C_1  and  O_2
REMARK    2  A    between atoms: O_2  and  C_3
REMARK    3  A    between atoms: C_12  and  O_13
REMARK    4  A    between atoms: C_14  and  O_15
REMARK    5  A    between atoms: O_15  and  C_16
REMARK    6  A    between atoms: C_16  and  C_17
REMARK    7  A    between atoms: C_18  and  C_19
REMARK    8  A    between atoms: C_18  and  C_20
REMARK                            x       y       z     vdW  Elec       q    Type
REMARK                         _______ _______ _______ _____ _____    ______ ____
ROOT
ATOM      1  C   UNL     1      -0.610   2.967 -24.493  0.00  0.00    +0.166 A 
ATOM      2  C   UNL     1      -1.695   3.542 -24.920  0.00  0.00    +0.061 A 
ATOM      3  C   UNL     1      -2.775   3.510 -24.198  0.00  0.00    +0.025 A 
ATOM      4  C   UNL     1      -3.860   4.085 -24.625  0.00  0.00    +0.019 A 
ATOM      5  C   UNL     1      -4.940   4.053 -23.903  0.00  0.00    +0.092 A 
ATOM      6  C   UNL     1      -4.936   3.446 -22.753  0.00  0.00    +0.337 A 
ATOM      7  O   UNL     1      -3.850   2.872 -22.325  0.00  0.00    -0.418 OA
ATOM      8  O   UNL     1      -6.016   3.415 -22.030  0.00  0.00    -0.245 OA
ATOM      9  C   UNL     1      -2.770   2.903 -23.048  0.00  0.00    +0.184 A 
ATOM     10  C   UNL     1      -1.686   2.329 -22.620  0.00  0.00    +0.206 A 
ATOM     11  C   UNL     1      -0.606   2.361 -23.343  0.00  0.00    +0.208 A 
ENDROOT
BRANCH   1  13
ATOM     12  C   UNL     1       0.876   4.122 -25.729  0.00  0.00    +0.277 C 
ATOM     13  O   UNL     1       0.471   2.999 -25.215  0.00  0.00    -0.491 OA
ENDBRANCH   1  13
BRANCH  10  14
ATOM     14  O   UNL     1      -1.681   1.722 -21.470  0.00  0.00    -0.501 OA
ATOM     15  H   UNL     1      -1.968   2.175 -20.701  0.00  0.00    +0.292 HD
ENDBRANCH  10  14
BRANCH  11  16
ATOM     16  O   UNL     1       0.480   1.786 -22.915  0.00  0.00    -0.481 OA
BRANCH  16  17
ATOM     17  C   UNL     1       1.415   2.496 -22.357  0.00  0.00    +0.257 C 
BRANCH  17  18
ATOM     18  C   UNL     1       2.661   2.279 -22.656  0.00  0.00    +0.012 C 
ATOM     19  C   UNL     1       3.428   3.270 -23.005  0.00  0.00    -0.076 C 
ATOM     20  C   UNL     1       2.948   4.476 -23.054  0.00  0.00    +0.038 C 
ATOM     21  C   UNL     1       4.674   3.052 -23.304  0.00  0.00    +0.038 C 
ENDBRANCH  17  18
ENDBRANCH  16  17
ENDBRANCH  11  16
TORSDOF 5
ENDMDL
MODEL 3
REMARK VINA RESULT:    -8.136      1.983      6.613
REMARK INTER + INTRA:         -10.420
REMARK INTER:                 -10.179
REMARK INTRA:                  -0.241
REMARK UNBOUND:                -0.145
REMARK  Name = ZINC000000113310
REMARK  8 active torsions:
REMARK  status: ('A' for Active; 'I' for Inactive)
REMARK    1  A    between atoms: C_1  and  O_2
REMARK    2  A    between atoms: O_2  and  C_3
REMARK    3  A    between atoms: C_12  and  O_13
REMARK    4  A    between atoms: C_14  and  O_15
REMARK    5  A    between atoms: O_15  and  C_16
REMARK    6  A    between atoms: C_16  and  C_17
REMARK    7  A    between atoms: C_18  and  C_19
REMARK    8  A    between atoms: C_18  and  C_20
REMARK                            x       y       z     vdW  Elec       q    Type
REMARK                         _______ _______ _______ _____ _____    ______ ____
ROOT
ATOM      1  C   UNL     1       0.835   2.317 -23.393  0.00  0.00    +0.166 A 
ATOM      2  C   UNL     1       1.993   2.767 -23.775  0.00  0.00    +0.061 A 
ATOM      3  C   UNL     1       3.004   2.734 -22.959  0.00  0.00    +0.025 A 
ATOM      4  C   UNL     1       4.163   3.185 -23.341  0.00  0.00    +0.019 A 
ATOM      5  C   UNL     1       5.174   3.151 -22.525  0.00  0.00    +0.092 A 
ATOM      6  C   UNL     1       5.028   2.668 -21.327  0.00  0.00    +0.337 A 
ATOM      7  O   UNL     1       3.869   2.217 -20.946  0.00  0.00    -0.418 OA
ATOM      8  O   UNL     1       6.039   2.634 -20.512  0.00  0.00    -0.245 OA
ATOM      9  C   UNL     1       2.858   2.250 -21.761  0.00  0.00    +0.184 A 
ATOM     10  C   UNL     1       1.700   1.800 -21.379  0.00  0.00    +0.206 A 
ATOM     11  C   UNL     1       0.689   1.833 -22.195  0.00  0.00    +0.208 A 
ENDROOT
BRANCH   1  13
ATOM     12  C   UNL     1      -0.503   3.464 -24.795  0.00  0.00    +0.277 C 
ATOM     13  O   UNL     1      -0.177   2.350 -24.209  0.00  0.00    -0.491 OA
ENDBRANCH   1  13
BRANCH  10  14
ATOM     14  O   UNL     1       1.554   1.316 -20.181  0.00  0.00    -0.501 OA
ATOM     15  H   UNL     1       1.403   0.399 -20.062  0.00  0.00    +0.292 HD
ENDBRANCH  10  14
BRANCH  11  16
ATOM     16  O   UNL     1      -0.470   1.383 -21.813  0.00  0.00    -0.481 OA
BRANCH  16  17
ATOM     17  C   UNL     1      -1.340   2.191 -21.285  0.00  0.00    +0.257 C 
BRANCH  17  18
ATOM     18  C   UNL     1      -2.567   2.195 -21.713  0.00  0.00    +0.012 C 
ATOM     19  C   UNL     1      -3.453   2.956 -21.141  0.00  0.00    -0.076 C 
ATOM     20  C   UNL     1      -3.111   3.712 -20.141  0.00  0.00    +0.038 C 
ATOM     21  C   UNL     1      -4.681   2.959 -21.569  0.00  0.00    +0.038 C 
ENDBRANCH  17  18
ENDBRANCH  16  17
ENDBRANCH  11  16
TORSDOF 5
ENDMDL
MODEL 4
REMARK VINA RESULT:    -7.918      2.311      6.192
REMARK INTER + INTRA:         -10.146
REMARK INTER:                  -9.975
REMARK INTRA:                  -0.171
REMARK UNBOUND:                -0.145
REMARK  Name = ZINC000000113310
REMARK  8 active torsions:
REMARK  status: ('A' for Active; 'I' for Inactive)
REMARK    1  A    between atoms: C_1  and  O_2
REMARK    2  A    between atoms: O_2  and  C_3
REMARK    3  A    between atoms: C_12  and  O_13
REMARK    4  A    between atoms: C_14  and  O_15
REMARK    5  A    between atoms: O_15  and  C_16
REMARK    6  A    between atoms: C_16  and  C_17
REMARK    7  A    between atoms: C_18  and  C_19
REMARK    8  A    between atoms: C_18  and  C_20
REMARK                            x       y       z     vdW  Elec       q    Type
REMARK                         _______ _______ _______ _____ _____    ______ ____
ROOT
ATOM      1  C   UNL     1       0.672   2.460 -22.931  0.00  0.00    +0.166 A 
ATOM      2  C   UNL     1       1.878   2.050 -22.677  0.00  0.00    +0.061 A 
ATOM      3  C   UNL     1       2.877   2.878 -22.760  0.00  0.00    +0.025 A 
ATOM      4  C   UNL     1       4.085   2.467 -22.506  0.00  0.00    +0.019 A 
ATOM      5  C   UNL     1       5.083   3.295 -22.588  0.00  0.00    +0.092 A 
ATOM      6  C   UNL     1       4.875   4.534 -22.925  0.00  0.00    +0.337 A 
ATOM      7  O   UNL     1       3.667   4.944 -23.179  0.00  0.00    -0.418 OA
ATOM      8  O   UNL     1       5.874   5.362 -23.007  0.00  0.00    -0.245 OA
ATOM      9  C   UNL     1       2.669   4.116 -23.096  0.00  0.00    +0.184 A 
ATOM     10  C   UNL     1       1.462   4.526 -23.350  0.00  0.00    +0.206 A 
ATOM     11  C   UNL     1       0.464   3.698 -23.268  0.00  0.00    +0.208 A 
ENDROOT
BRANCH   1  13
ATOM     12  C   UNL     1      -0.612   1.067 -21.713  0.00  0.00    +0.277 C 
ATOM     13  O   UNL     1      -0.328   1.632 -22.849  0.00  0.00    -0.491 OA
ENDBRANCH   1  13
BRANCH  10  14
ATOM     14  O   UNL     1       1.254   5.765 -23.687  0.00  0.00    -0.501 OA
ATOM     15  H   UNL     1       1.932   6.401 -23.572  0.00  0.00    +0.292 HD
ENDBRANCH  10  14
BRANCH  11  16
ATOM     16  O   UNL     1      -0.744   4.109 -23.522  0.00  0.00    -0.481 OA
BRANCH  16  17
ATOM     17  C   UNL     1      -1.575   4.328 -22.547  0.00  0.00    +0.257 C 
BRANCH  17  18
ATOM     18  C   UNL     1      -2.813   3.947 -22.650  0.00  0.00    +0.012 C 
ATOM     19  C   UNL     1      -3.498   3.664 -21.581  0.00  0.00    -0.076 C 
ATOM     20  C   UNL     1      -2.944   3.762 -20.410  0.00  0.00    +0.038 C 
ATOM     21  C   UNL     1      -4.736   3.283 -21.685  0.00  0.00    +0.038 C 
ENDBRANCH  17  18
ENDBRANCH  16  17
ENDBRANCH  11  16
TORSDOF 5
ENDMDL
MODEL 5
REMARK VINA RESULT:    -7.684      2.514      6.211
REMARK INTER + INTRA:          -9.850
REMARK INTER:                  -9.761
REMARK INTRA:                  -0.090
REMARK UNBOUND:                -0.145
REMARK  Name = ZINC000000113310
REMARK  8 active torsions:
REMARK  status: ('A' for Active; 'I' for Inactive)
REMARK    1  A    between atoms: C_1  and  O_2
REMARK    2  A    between atoms: O_2  and  C_3
REMARK    3  A    between atoms: C_12  and  O_13
REMARK    4  A    between atoms: C_14  and  O_15
REMARK    5  A    between atoms: O_15  and  C_16
REMARK    6  A    between atoms: C_16  and  C_17
REMARK    7  A    between atoms: C_18  and  C_19
REMARK    8  A    between atoms: C_18  and  C_20
REMARK                            x       y       z     vdW  Elec       q    Type
REMARK                         _______ _______ _______ _____ _____    ______ ____
ROOT
ATOM      1  C   UNL     1       0.584   2.552 -22.964  0.00  0.00    +0.166 A 
ATOM      2  C   UNL     1       1.756   2.003 -22.848  0.00  0.00    +0.061 A 
ATOM      3  C   UNL     1       2.828   2.728 -22.967  0.00  0.00    +0.025 A 
ATOM      4  C   UNL     1       4.001   2.179 -22.851  0.00  0.00    +0.019 A 
ATOM      5  C   UNL     1       5.073   2.904 -22.970  0.00  0.00    +0.092 A 
ATOM      6  C   UNL     1       4.973   4.179 -23.205  0.00  0.00    +0.337 A 
ATOM      7  O   UNL     1       3.800   4.728 -23.321  0.00  0.00    -0.418 OA
ATOM      8  O   UNL     1       6.045   4.904 -23.324  0.00  0.00    -0.245 OA
ATOM      9  C   UNL     1       2.728   4.003 -23.202  0.00  0.00    +0.184 A 
ATOM     10  C   UNL     1       1.556   4.552 -23.318  0.00  0.00    +0.206 A 
ATOM     11  C   UNL     1       0.484   3.827 -23.199  0.00  0.00    +0.208 A 
ENDROOT
BRANCH   1  13
ATOM     12  C   UNL     1      -0.753   1.236 -21.717  0.00  0.00    +0.277 C 
ATOM     13  O   UNL     1      -0.489   1.827 -22.845  0.00  0.00    -0.491 OA
ENDBRANCH   1  13
BRANCH  10  14
ATOM     14  O   UNL     1       1.456   5.827 -23.554  0.00  0.00    -0.501 OA
ATOM     15  H   UNL     1       2.219   6.369 -23.525  0.00  0.00    +0.292 HD
ENDBRANCH  10  14
BRANCH  11  16
ATOM     16  O   UNL     1      -0.689   4.376 -23.315  0.00  0.00    -0.481 OA
BRANCH  16  17
ATOM     17  C   UNL     1      -1.419   4.136 -24.364  0.00  0.00    +0.257 C 
BRANCH  17  18
ATOM     18  C   UNL     1      -2.713   4.221 -24.288  0.00  0.00    +0.012 C 
ATOM     19  C   UNL     1      -3.448   3.878 -25.305  0.00  0.00    -0.076 C 
ATOM     20  C   UNL     1      -2.888   3.451 -26.397  0.00  0.00    +0.038 C 
ATOM     21  C   UNL     1      -4.743   3.963 -25.229  0.00  0.00    +0.038 C 
ENDBRANCH  17  18
ENDBRANCH  16  17
ENDBRANCH  11  16
TORSDOF 5
ENDMDL
MODEL 6
REMARK VINA RESULT:    -7.618      2.173      5.649
REMARK INTER + INTRA:          -9.766
REMARK INTER:                  -9.710
REMARK INTRA:                  -0.057
REMARK UNBOUND:                -0.145
REMARK  Name = ZINC000000113310
REMARK  8 active torsions:
REMARK  status: ('A' for Active; 'I' for Inactive)
REMARK    1  A    between atoms: C_1  and  O_2
REMARK    2  A    between atoms: O_2  and  C_3
REMARK    3  A    between atoms: C_12  and  O_13
REMARK    4  A    between atoms: C_14  and  O_15
REMARK    5  A    between atoms: O_15  and  C_16
REMARK    6  A    between atoms: C_16  and  C_17
REMARK    7  A    between atoms: C_18  and  C_19
REMARK    8  A    between atoms: C_18  and  C_20
REMARK                            x       y       z     vdW  Elec       q    Type
REMARK                         _______ _______ _______ _____ _____    ______ ____
ROOT
ATOM      1  C   UNL     1      -0.888   2.063 -22.049  0.00  0.00    +0.166 A 
ATOM      2  C   UNL     1      -0.006   1.777 -21.139  0.00  0.00    +0.061 A 
ATOM      3  C   UNL     1       1.239   1.610 -21.471  0.00  0.00    +0.025 A 
ATOM      4  C   UNL     1       2.123   1.323 -20.560  0.00  0.00    +0.019 A 
ATOM      5  C   UNL     1       3.368   1.156 -20.892  0.00  0.00    +0.092 A 
ATOM      6  C   UNL     1       3.731   1.275 -22.135  0.00  0.00    +0.337 A 
ATOM      7  O   UNL     1       2.848   1.561 -23.045  0.00  0.00    -0.418 OA
ATOM      8  O   UNL     1       4.977   1.107 -22.467  0.00  0.00    -0.245 OA
ATOM      9  C   UNL     1       1.603   1.729 -22.713  0.00  0.00    +0.184 A 
ATOM     10  C   UNL     1       0.720   2.015 -23.624  0.00  0.00    +0.206 A 
ATOM     11  C   UNL     1      -0.525   2.182 -23.292  0.00  0.00    +0.208 A 
ENDROOT
BRANCH   1  13
ATOM     12  C   UNL     1      -2.458   3.135 -20.841  0.00  0.00    +0.277 C 
ATOM     13  O   UNL     1      -2.135   2.231 -21.717  0.00  0.00    -0.491 OA
ENDBRANCH   1  13
BRANCH  10  14
ATOM     14  O   UNL     1       1.084   2.134 -24.866  0.00  0.00    -0.501 OA
ATOM     15  H   UNL     1       0.597   2.686 -25.446  0.00  0.00    +0.292 HD
ENDBRANCH  10  14
BRANCH  11  16
ATOM     16  O   UNL     1      -1.408   2.469 -24.202  0.00  0.00    -0.481 OA
BRANCH  16  17
ATOM     17  C   UNL     1      -1.579   3.702 -24.576  0.00  0.00    +0.257 C 
BRANCH  17  18
ATOM     18  C   UNL     1      -2.717   4.293 -24.364  0.00  0.00    +0.012 C 
ATOM     19  C   UNL     1      -3.671   4.203 -25.245  0.00  0.00    -0.076 C 
ATOM     20  C   UNL     1      -3.485   3.523 -26.336  0.00  0.00    +0.038 C 
ATOM     21  C   UNL     1      -4.809   4.795 -25.032  0.00  0.00    +0.038 C 
ENDBRANCH  17  18
ENDBRANCH  16  17
ENDBRANCH  11  16
TORSDOF 5
ENDMDL
MODEL 7
REMARK VINA RESULT:    -7.531      1.754      3.221
REMARK INTER + INTRA:          -9.656
REMARK INTER:                  -9.362
REMARK INTRA:                  -0.295
REMARK UNBOUND:                -0.145
REMARK  Name = ZINC000000113310
REMARK  8 active torsions:
REMARK  status: ('A' for Active; 'I' for Inactive)
REMARK    1  A    between atoms: C_1  and  O_2
REMARK    2  A    between atoms: O_2  and  C_3
REMARK    3  A    between atoms: C_12  and  O_13
REMARK    4  A    between atoms: C_14  and  O_15
REMARK    5  A    between atoms: O_15  and  C_16
REMARK    6  A    between atoms: C_16  and  C_17
REMARK    7  A    between atoms: C_18  and  C_19
REMARK    8  A    between atoms: C_18  and  C_20
REMARK                            x       y       z     vdW  Elec       q    Type
REMARK                         _______ _______ _______ _____ _____    ______ ____
ROOT
ATOM      1  C   UNL     1      -2.563   3.498 -25.424  0.00  0.00    +0.166 A 
ATOM      2  C   UNL     1      -3.707   3.643 -24.825  0.00  0.00    +0.061 A 
ATOM      3  C   UNL     1      -3.829   3.324 -23.572  0.00  0.00    +0.025 A 
ATOM      4  C   UNL     1      -4.974   3.469 -22.972  0.00  0.00    +0.019 A 
ATOM      5  C   UNL     1      -5.096   3.149 -21.718  0.00  0.00    +0.092 A 
ATOM      6  C   UNL     1      -4.074   2.685 -21.063  0.00  0.00    +0.337 A 
ATOM      7  O   UNL     1      -2.929   2.539 -21.663  0.00  0.00    -0.418 OA
ATOM      8  O   UNL     1      -4.196   2.365 -19.809  0.00  0.00    -0.245 OA
ATOM      9  C   UNL     1      -2.807   2.859 -22.917  0.00  0.00    +0.184 A 
ATOM     10  C   UNL     1      -1.663   2.714 -23.515  0.00  0.00    +0.206 A 
ATOM     11  C   UNL     1      -1.541   3.033 -24.769  0.00  0.00    +0.208 A 
ENDROOT
BRANCH   1  13
ATOM     12  C   UNL     1      -3.363   3.477 -27.530  0.00  0.00    +0.277 C 
ATOM     13  O   UNL     1      -2.441   3.818 -26.679  0.00  0.00    -0.491 OA
ENDBRANCH   1  13
BRANCH  10  14
ATOM     14  O   UNL     1      -0.640   2.249 -22.860  0.00  0.00    -0.501 OA
ATOM     15  H   UNL     1      -0.655   2.228 -21.924  0.00  0.00    +0.292 HD
ENDBRANCH  10  14
BRANCH  11  16
ATOM     16  O   UNL     1      -0.396   2.888 -25.369  0.00  0.00    -0.481 OA
BRANCH  16  17
ATOM     17  C   UNL     1       0.520   3.803 -25.252  0.00  0.00    +0.257 C 
BRANCH  17  18
ATOM     18  C   UNL     1       1.728   3.472 -24.905  0.00  0.00    +0.012 C 
ATOM     19  C   UNL     1       2.331   4.117 -23.950  0.00  0.00    -0.076 C 
ATOM     20  C   UNL     1       1.725   5.093 -23.343  0.00  0.00    +0.038 C 
ATOM     21  C   UNL     1       3.539   3.785 -23.603  0.00  0.00    +0.038 C 
ENDBRANCH  17  18
ENDBRANCH  16  17
ENDBRANCH  11  16
TORSDOF 5
ENDMDL
MODEL 8
REMARK VINA RESULT:    -7.225      2.619      6.493
REMARK INTER + INTRA:          -9.271
REMARK INTER:                  -9.075
REMARK INTRA:                  -0.196
REMARK UNBOUND:                -0.145
REMARK  Name = ZINC000000113310
REMARK  8 active torsions:
REMARK  status: ('A' for Active; 'I' for Inactive)
REMARK    1  A    between atoms: C_1  and  O_2
REMARK    2  A    between atoms: O_2  and  C_3
REMARK    3  A    between atoms: C_12  and  O_13
REMARK    4  A    between atoms: C_14  and  O_15
REMARK    5  A    between atoms: O_15  and  C_16
REMARK    6  A    between atoms: C_16  and  C_17
REMARK    7  A    between atoms: C_18  and  C_19
REMARK    8  A    between atoms: C_18  and  C_20
REMARK                            x       y       z     vdW  Elec       q    Type
REMARK                         _______ _______ _______ _____ _____    ______ ____
ROOT
ATOM      1  C   UNL     1       3.103   2.952 -24.031  0.00  0.00    +0.166 A 
ATOM      2  C   UNL     1       4.284   3.326 -23.635  0.00  0.00    +0.061 A 
ATOM      3  C   UNL     1       4.452   4.506 -23.118  0.00  0.00    +0.025 A 
ATOM      4  C   UNL     1       5.633   4.880 -22.722  0.00  0.00    +0.019 A 
ATOM      5  C   UNL     1       5.802   6.061 -22.205  0.00  0.00    +0.092 A 
ATOM      6  C   UNL     1       4.790   6.867 -22.082  0.00  0.00    +0.337 A 
ATOM      7  O   UNL     1       3.609   6.493 -22.478  0.00  0.00    -0.418 OA
ATOM      8  O   UNL     1       4.958   8.048 -21.565  0.00  0.00    -0.245 OA
ATOM      9  C   UNL     1       3.440   5.313 -22.995  0.00  0.00    +0.184 A 
ATOM     10  C   UNL     1       2.260   4.939 -23.391  0.00  0.00    +0.206 A 
ATOM     11  C   UNL     1       2.091   3.759 -23.908  0.00  0.00    +0.208 A 
ENDROOT
BRANCH   1  13
ATOM     12  C   UNL     1       3.341   0.716 -23.907  0.00  0.00    +0.277 C 
ATOM     13  O   UNL     1       2.934   1.771 -24.549  0.00  0.00    -0.491 OA
ENDBRANCH   1  13
BRANCH  10  14
ATOM     14  O   UNL     1       1.248   5.746 -23.268  0.00  0.00    -0.501 OA
ATOM     15  H   UNL     1       0.998   6.296 -23.984  0.00  0.00    +0.292 HD
ENDBRANCH  10  14
BRANCH  11  16
ATOM     16  O   UNL     1       0.910   3.385 -24.304  0.00  0.00    -0.481 OA
BRANCH  16  17
ATOM     17  C   UNL     1       0.191   2.603 -23.555  0.00  0.00    +0.257 C 
BRANCH  17  18
ATOM     18  C   UNL     1      -0.873   3.064 -22.968  0.00  0.00    +0.012 C 
ATOM     19  C   UNL     1      -1.298   2.516 -21.867  0.00  0.00    -0.076 C 
ATOM     20  C   UNL     1      -0.658   1.508 -21.355  0.00  0.00    +0.038 C 
ATOM     21  C   UNL     1      -2.362   2.977 -21.281  0.00  0.00    +0.038 C 
ENDBRANCH  17  18
ENDBRANCH  16  17
ENDBRANCH  11  16
TORSDOF 5
ENDMDL
MODEL 9
REMARK VINA RESULT:    -7.034      2.260      3.193
REMARK INTER + INTRA:          -9.029
REMARK INTER:                  -8.885
REMARK INTRA:                  -0.145
REMARK UNBOUND:                -0.145
REMARK  Name = ZINC000000113310
REMARK  8 active torsions:
REMARK  status: ('A' for Active; 'I' for Inactive)
REMARK    1  A    between atoms: C_1  and  O_2
REMARK    2  A    between atoms: O_2  and  C_3
REMARK    3  A    between atoms: C_12  and  O_13
REMARK    4  A    between atoms: C_14  and  O_15
REMARK    5  A    between atoms: O_15  and  C_16
REMARK    6  A    between atoms: C_16  and  C_17
REMARK    7  A    between atoms: C_18  and  C_19
REMARK    8  A    between atoms: C_18  and  C_20
REMARK                            x       y       z     vdW  Elec       q    Type
REMARK                         _______ _______ _______ _____ _____    ______ ____
ROOT
ATOM      1  C   UNL     1       0.721   3.817 -23.307  0.00  0.00    +0.166 A 
ATOM      2  C   UNL     1      -0.371   4.454 -23.007  0.00  0.00    +0.061 A 
ATOM      3  C   UNL     1      -1.350   3.828 -22.424  0.00  0.00    +0.025 A 
ATOM      4  C   UNL     1      -2.443   4.466 -22.123  0.00  0.00    +0.019 A 
ATOM      5  C   UNL     1      -3.421   3.839 -21.540  0.00  0.00    +0.092 A 
ATOM      6  C   UNL     1      -3.307   2.576 -21.257  0.00  0.00    +0.337 A 
ATOM      7  O   UNL     1      -2.214   1.938 -21.558  0.00  0.00    -0.418 OA
ATOM      8  O   UNL     1      -4.286   1.949 -20.674  0.00  0.00    -0.245 OA
ATOM      9  C   UNL     1      -1.236   2.564 -22.141  0.00  0.00    +0.184 A 
ATOM     10  C   UNL     1      -0.144   1.927 -22.441  0.00  0.00    +0.206 A 
ATOM     11  C   UNL     1       0.834   2.553 -23.024  0.00  0.00    +0.208 A 
ENDROOT
BRANCH   1  13
ATOM     12  C   UNL     1       2.285   5.437 -23.290  0.00  0.00    +0.277 C 
ATOM     13  O   UNL     1       1.700   4.443 -23.890  0.00  0.00    -0.491 OA
ENDBRANCH   1  13
BRANCH  10  14
ATOM     14  O   UNL     1      -0.030   0.663 -22.158  0.00  0.00    -0.501 OA
ATOM     15  H   UNL     1       0.817   0.264 -22.130  0.00  0.00    +0.292 HD
ENDBRANCH  10  14
BRANCH  11  16
ATOM     16  O   UNL     1       1.928   1.916 -23.324  0.00  0.00    -0.481 OA
BRANCH  16  17
ATOM     17  C   UNL     1       2.967   2.008 -22.550  0.00  0.00    +0.257 C 
BRANCH  17  18
ATOM     18  C   UNL     1       3.431   0.948 -21.957  0.00  0.00    +0.012 C 
ATOM     19  C   UNL     1       4.518   1.023 -21.246  0.00  0.00    -0.076 C 
ATOM     20  C   UNL     1       5.140   2.158 -21.130  0.00  0.00    +0.038 C 
ATOM     21  C   UNL     1       4.981  -0.037 -20.653  0.00  0.00    +0.038 C 
ENDBRANCH  17  18
ENDBRANCH  16  17
ENDBRANCH  11  16
TORSDOF 5
ENDMDL
