MODEL 1
REMARK VINA RESULT:    -8.192      0.000      0.000
REMARK INTER + INTRA:          -8.671
REMARK INTER:                  -8.671
REMARK INTRA:                   0.000
REMARK UNBOUND:                 0.000
REMARK  Name = ZINC000000338165
REMARK  4 active torsions:
REMARK  status: ('A' for Active; 'I' for Inactive)
REMARK    1  A    between atoms: C_1  and  C_2
REMARK    2  A    between atoms: C_2  and  C_3
REMARK    3  A    between atoms: C_8  and  O_9
REMARK    4  A    between atoms: C_11  and  O_12
REMARK                            x       y       z     vdW  Elec       q    Type
REMARK                         _______ _______ _______ _____ _____    ______ ____
ROOT
ATOM      1  C   UNL     1       0.135   2.250 -22.938  0.00  0.00    +0.056 C 
ATOM      2  C   UNL     1      -1.002   2.326 -22.315  0.00  0.00    +0.112 C 
ATOM      3  C   UNL     1      -1.882   2.229 -21.363  0.00  0.00    +0.127 C 
ATOM      4  C   UNL     1      -3.110   2.605 -21.572  0.00  0.00    +0.174 C 
ATOM      5  C   UNL     1      -3.456   3.078 -22.732  0.00  0.00    +0.101 A 
ATOM      6  C   UNL     1      -4.682   3.454 -22.941  0.00  0.00    +0.134 A 
ATOM      7  C   UNL     1      -5.029   3.928 -24.101  0.00  0.00    +0.091 A 
ATOM      8  C   UNL     1      -4.149   4.025 -25.052  0.00  0.00    +0.124 A 
ATOM      9  C   UNL     1      -2.921   3.649 -24.843  0.00  0.00    +0.092 A 
ATOM     10  C   UNL     1      -2.575   3.176 -23.684  0.00  0.00    +0.139 A 
ATOM     11  O   UNL     1      -3.991   2.508 -20.620  0.00  0.00    -0.292 OA
ATOM     12  C   UNL     1      -0.261   1.826 -21.371  0.00  0.00    +0.056 C 
ATOM     13  O   UNL     1      -1.349   2.800 -23.475  0.00  0.00    -0.485 OA
ENDROOT
BRANCH   8  14
ATOM     14  O   UNL     1      -4.495   4.498 -26.212  0.00  0.00    -0.507 OA
ATOM     15  H   UNL     1      -4.524   5.425 -26.351  0.00  0.00    +0.292 HD
ENDBRANCH   8  14
BRANCH   6  16
ATOM     16  O   UNL     1      -5.563   3.357 -21.989  0.00  0.00    -0.506 OA
ATOM     17  H   UNL     1      -5.726   2.528 -21.584  0.00  0.00    +0.292 HD
ENDBRANCH   6  16
TORSDOF 2
ENDMDL
MODEL 2
REMARK VINA RESULT:    -8.167      1.465      4.837
REMARK INTER + INTRA:          -8.645
REMARK INTER:                  -8.645
REMARK INTRA:                   0.000
REMARK UNBOUND:                 0.000
REMARK  Name = ZINC000000338165
REMARK  4 active torsions:
REMARK  status: ('A' for Active; 'I' for Inactive)
REMARK    1  A    between atoms: C_1  and  C_2
REMARK    2  A    between atoms: C_2  and  C_3
REMARK    3  A    between atoms: C_8  and  O_9
REMARK    4  A    between atoms: C_11  and  O_12
REMARK                            x       y       z     vdW  Elec       q    Type
REMARK                         _______ _______ _______ _____ _____    ______ ____
ROOT
ATOM      1  C   UNL     1      -5.087   3.372 -22.273  0.00  0.00    +0.056 C 
ATOM      2  C   UNL     1      -4.181   3.404 -23.203  0.00  0.00    +0.112 C 
ATOM      3  C   UNL     1      -3.626   3.606 -24.361  0.00  0.00    +0.127 C 
ATOM      4  C   UNL     1      -2.372   3.310 -24.541  0.00  0.00    +0.174 C 
ATOM      5  C   UNL     1      -1.675   2.813 -23.563  0.00  0.00    +0.101 A 
ATOM      6  C   UNL     1      -0.422   2.518 -23.743  0.00  0.00    +0.134 A 
ATOM      7  C   UNL     1       0.277   2.021 -22.765  0.00  0.00    +0.091 A 
ATOM      8  C   UNL     1      -0.279   1.820 -21.607  0.00  0.00    +0.124 A 
ATOM      9  C   UNL     1      -1.533   2.115 -21.427  0.00  0.00    +0.092 A 
ATOM     10  C   UNL     1      -2.230   2.612 -22.405  0.00  0.00    +0.139 A 
ATOM     11  O   UNL     1      -1.816   3.512 -25.700  0.00  0.00    -0.292 OA
ATOM     12  C   UNL     1      -5.194   3.890 -23.858  0.00  0.00    +0.056 C 
ATOM     13  O   UNL     1      -3.483   2.907 -22.225  0.00  0.00    -0.485 OA
ENDROOT
BRANCH   8  14
ATOM     14  O   UNL     1       0.418   1.323 -20.629  0.00  0.00    -0.507 OA
ATOM     15  H   UNL     1       0.068   1.316 -19.761  0.00  0.00    +0.292 HD
ENDBRANCH   8  14
BRANCH   6  16
ATOM     16  O   UNL     1       0.134   2.720 -24.901  0.00  0.00    -0.506 OA
ATOM     17  H   UNL     1       0.434   1.992 -25.410  0.00  0.00    +0.292 HD
ENDBRANCH   6  16
TORSDOF 2
ENDMDL
MODEL 3
REMARK VINA RESULT:    -7.861      1.092      2.961
REMARK INTER + INTRA:          -8.320
REMARK INTER:                  -8.320
REMARK INTRA:                   0.000
REMARK UNBOUND:                 0.000
REMARK  Name = ZINC000000338165
REMARK  4 active torsions:
REMARK  status: ('A' for Active; 'I' for Inactive)
REMARK    1  A    between atoms: C_1  and  C_2
REMARK    2  A    between atoms: C_2  and  C_3
REMARK    3  A    between atoms: C_8  and  O_9
REMARK    4  A    between atoms: C_11  and  O_12
REMARK                            x       y       z     vdW  Elec       q    Type
REMARK                         _______ _______ _______ _____ _____    ______ ____
ROOT
ATOM      1  C   UNL     1      -0.353   2.203 -22.064  0.00  0.00    +0.056 C 
ATOM      2  C   UNL     1      -0.838   2.634 -23.189  0.00  0.00    +0.112 C 
ATOM      3  C   UNL     1      -0.893   3.001 -24.435  0.00  0.00    +0.127 C 
ATOM      4  C   UNL     1      -2.020   3.403 -24.945  0.00  0.00    +0.174 C 
ATOM      5  C   UNL     1      -3.090   3.438 -24.209  0.00  0.00    +0.101 A 
ATOM      6  C   UNL     1      -4.216   3.840 -24.720  0.00  0.00    +0.134 A 
ATOM      7  C   UNL     1      -5.288   3.875 -23.984  0.00  0.00    +0.091 A 
ATOM      8  C   UNL     1      -5.233   3.508 -22.738  0.00  0.00    +0.124 A 
ATOM      9  C   UNL     1      -4.106   3.105 -22.228  0.00  0.00    +0.092 A 
ATOM     10  C   UNL     1      -3.035   3.071 -22.964  0.00  0.00    +0.139 A 
ATOM     11  O   UNL     1      -2.075   3.770 -26.192  0.00  0.00    -0.292 OA
ATOM     12  C   UNL     1       0.402   2.449 -23.534  0.00  0.00    +0.056 C 
ATOM     13  O   UNL     1      -1.909   2.669 -22.453  0.00  0.00    -0.485 OA
ENDROOT
BRANCH   8  14
ATOM     14  O   UNL     1      -6.304   3.542 -22.002  0.00  0.00    -0.507 OA
ATOM     15  H   UNL     1      -7.144   3.404 -22.392  0.00  0.00    +0.292 HD
ENDBRANCH   8  14
BRANCH   6  16
ATOM     16  O   UNL     1      -4.271   4.207 -25.965  0.00  0.00    -0.506 OA
ATOM     17  H   UNL     1      -4.447   3.573 -26.633  0.00  0.00    +0.292 HD
ENDBRANCH   6  16
TORSDOF 2
ENDMDL
MODEL 4
REMARK VINA RESULT:    -7.687      1.710      3.999
REMARK INTER + INTRA:          -8.136
REMARK INTER:                  -8.136
REMARK INTRA:                   0.000
REMARK UNBOUND:                 0.000
REMARK  Name = ZINC000000338165
REMARK  4 active torsions:
REMARK  status: ('A' for Active; 'I' for Inactive)
REMARK    1  A    between atoms: C_1  and  C_2
REMARK    2  A    between atoms: C_2  and  C_3
REMARK    3  A    between atoms: C_8  and  O_9
REMARK    4  A    between atoms: C_11  and  O_12
REMARK                            x       y       z     vdW  Elec       q    Type
REMARK                         _______ _______ _______ _____ _____    ______ ____
ROOT
ATOM      1  C   UNL     1      -4.749   4.334 -24.789  0.00  0.00    +0.056 C 
ATOM      2  C   UNL     1      -4.056   3.724 -23.876  0.00  0.00    +0.112 C 
ATOM      3  C   UNL     1      -3.768   3.112 -22.766  0.00  0.00    +0.127 C 
ATOM      4  C   UNL     1      -2.551   2.714 -22.539  0.00  0.00    +0.174 C 
ATOM      5  C   UNL     1      -1.622   2.927 -23.423  0.00  0.00    +0.101 A 
ATOM      6  C   UNL     1      -0.406   2.529 -23.196  0.00  0.00    +0.134 A 
ATOM      7  C   UNL     1       0.524   2.742 -24.080  0.00  0.00    +0.091 A 
ATOM      8  C   UNL     1       0.236   3.354 -25.190  0.00  0.00    +0.124 A 
ATOM      9  C   UNL     1      -0.981   3.752 -25.417  0.00  0.00    +0.092 A 
ATOM     10  C   UNL     1      -1.910   3.539 -24.533  0.00  0.00    +0.139 A 
ATOM     11  O   UNL     1      -2.263   2.102 -21.428  0.00  0.00    -0.292 OA
ATOM     12  C   UNL     1      -5.225   3.722 -23.310  0.00  0.00    +0.056 C 
ATOM     13  O   UNL     1      -3.126   3.937 -24.760  0.00  0.00    -0.485 OA
ENDROOT
BRANCH   8  14
ATOM     14  O   UNL     1       1.165   3.568 -26.074  0.00  0.00    -0.507 OA
ATOM     15  H   UNL     1       2.009   3.174 -25.971  0.00  0.00    +0.292 HD
ENDBRANCH   8  14
BRANCH   6  16
ATOM     16  O   UNL     1      -0.119   1.917 -22.085  0.00  0.00    -0.506 OA
ATOM     17  H   UNL     1       0.438   2.329 -21.454  0.00  0.00    +0.292 HD
ENDBRANCH   6  16
TORSDOF 2
ENDMDL
MODEL 5
REMARK VINA RESULT:    -7.577      1.560      3.274
REMARK INTER + INTRA:          -8.020
REMARK INTER:                  -8.020
REMARK INTRA:                   0.000
REMARK UNBOUND:                 0.000
REMARK  Name = ZINC000000338165
REMARK  4 active torsions:
REMARK  status: ('A' for Active; 'I' for Inactive)
REMARK    1  A    between atoms: C_1  and  C_2
REMARK    2  A    between atoms: C_2  and  C_3
REMARK    3  A    between atoms: C_8  and  O_9
REMARK    4  A    between atoms: C_11  and  O_12
REMARK                            x       y       z     vdW  Elec       q    Type
REMARK                         _______ _______ _______ _____ _____    ______ ____
ROOT
ATOM      1  C   UNL     1      -4.757   3.380 -21.356  0.00  0.00    +0.056 C 
ATOM      2  C   UNL     1      -3.526   3.389 -21.770  0.00  0.00    +0.112 C 
ATOM      3  C   UNL     1      -2.227   3.408 -21.738  0.00  0.00    +0.127 C 
ATOM      4  C   UNL     1      -1.549   3.397 -22.848  0.00  0.00    +0.174 C 
ATOM      5  C   UNL     1      -2.171   3.368 -23.989  0.00  0.00    +0.101 A 
ATOM      6  C   UNL     1      -1.493   3.357 -25.098  0.00  0.00    +0.134 A 
ATOM      7  C   UNL     1      -2.115   3.327 -26.240  0.00  0.00    +0.091 A 
ATOM      8  C   UNL     1      -3.414   3.309 -26.271  0.00  0.00    +0.124 A 
ATOM      9  C   UNL     1      -4.092   3.319 -25.161  0.00  0.00    +0.092 A 
ATOM     10  C   UNL     1      -3.470   3.349 -24.020  0.00  0.00    +0.139 A 
ATOM     11  O   UNL     1      -0.248   3.416 -22.816  0.00  0.00    -0.292 OA
ATOM     12  C   UNL     1      -3.332   3.416 -20.485  0.00  0.00    +0.056 C 
ATOM     13  O   UNL     1      -4.148   3.360 -22.911  0.00  0.00    -0.485 OA
ENDROOT
BRANCH   8  14
ATOM     14  O   UNL     1      -4.036   3.279 -27.412  0.00  0.00    -0.507 OA
ATOM     15  H   UNL     1      -4.167   2.463 -27.853  0.00  0.00    +0.292 HD
ENDBRANCH   8  14
BRANCH   6  16
ATOM     16  O   UNL     1      -0.193   3.376 -25.066  0.00  0.00    -0.506 OA
ATOM     17  H   UNL     1       0.286   2.571 -25.037  0.00  0.00    +0.292 HD
ENDBRANCH   6  16
TORSDOF 2
ENDMDL
MODEL 6
REMARK VINA RESULT:    -7.543      1.248      3.340
REMARK INTER + INTRA:          -7.984
REMARK INTER:                  -7.984
REMARK INTRA:                   0.000
REMARK UNBOUND:                 0.000
REMARK  Name = ZINC000000338165
REMARK  4 active torsions:
REMARK  status: ('A' for Active; 'I' for Inactive)
REMARK    1  A    between atoms: C_1  and  C_2
REMARK    2  A    between atoms: C_2  and  C_3
REMARK    3  A    between atoms: C_8  and  O_9
REMARK    4  A    between atoms: C_11  and  O_12
REMARK                            x       y       z     vdW  Elec       q    Type
REMARK                         _______ _______ _______ _____ _____    ______ ____
ROOT
ATOM      1  C   UNL     1       0.105   2.902 -24.051  0.00  0.00    +0.056 C 
ATOM      2  C   UNL     1      -1.050   3.372 -24.415  0.00  0.00    +0.112 C 
ATOM      3  C   UNL     1      -1.957   3.961 -25.137  0.00  0.00    +0.127 C 
ATOM      4  C   UNL     1      -3.180   4.046 -24.702  0.00  0.00    +0.174 C 
ATOM      5  C   UNL     1      -3.495   3.542 -23.546  0.00  0.00    +0.101 A 
ATOM      6  C   UNL     1      -4.717   3.627 -23.112  0.00  0.00    +0.134 A 
ATOM      7  C   UNL     1      -5.033   3.123 -21.955  0.00  0.00    +0.091 A 
ATOM      8  C   UNL     1      -4.126   2.534 -21.234  0.00  0.00    +0.124 A 
ATOM      9  C   UNL     1      -2.903   2.449 -21.669  0.00  0.00    +0.092 A 
ATOM     10  C   UNL     1      -2.588   2.953 -22.825  0.00  0.00    +0.139 A 
ATOM     11  O   UNL     1      -4.087   4.636 -25.424  0.00  0.00    -0.292 OA
ATOM     12  C   UNL     1      -0.333   3.713 -25.445  0.00  0.00    +0.056 C 
ATOM     13  O   UNL     1      -1.366   2.868 -23.259  0.00  0.00    -0.485 OA
ENDROOT
BRANCH   8  14
ATOM     14  O   UNL     1      -4.441   2.030 -20.078  0.00  0.00    -0.507 OA
ATOM     15  H   UNL     1      -4.941   2.534 -19.468  0.00  0.00    +0.292 HD
ENDBRANCH   8  14
BRANCH   6  16
ATOM     16  O   UNL     1      -5.624   4.216 -23.833  0.00  0.00    -0.506 OA
ATOM     17  H   UNL     1      -6.471   4.389 -23.472  0.00  0.00    +0.292 HD
ENDBRANCH   6  16
TORSDOF 2
ENDMDL
MODEL 7
REMARK VINA RESULT:    -7.458      1.730      4.226
REMARK INTER + INTRA:          -7.894
REMARK INTER:                  -7.894
REMARK INTRA:                   0.000
REMARK UNBOUND:                 0.000
REMARK  Name = ZINC000000338165
REMARK  4 active torsions:
REMARK  status: ('A' for Active; 'I' for Inactive)
REMARK    1  A    between atoms: C_1  and  C_2
REMARK    2  A    between atoms: C_2  and  C_3
REMARK    3  A    between atoms: C_8  and  O_9
REMARK    4  A    between atoms: C_11  and  O_12
REMARK                            x       y       z     vdW  Elec       q    Type
REMARK                         _______ _______ _______ _____ _____    ______ ____
ROOT
ATOM      1  C   UNL     1      -3.527   3.383 -20.705  0.00  0.00    +0.056 C 
ATOM      2  C   UNL     1      -3.561   3.377 -22.003  0.00  0.00    +0.112 C 
ATOM      3  C   UNL     1      -4.038   3.363 -23.212  0.00  0.00    +0.127 C 
ATOM      4  C   UNL     1      -3.228   3.374 -24.230  0.00  0.00    +0.174 C 
ATOM      5  C   UNL     1      -1.943   3.398 -24.039  0.00  0.00    +0.101 A 
ATOM      6  C   UNL     1      -1.135   3.408 -25.056  0.00  0.00    +0.134 A 
ATOM      7  C   UNL     1       0.151   3.432 -24.865  0.00  0.00    +0.091 A 
ATOM      8  C   UNL     1       0.628   3.446 -23.656  0.00  0.00    +0.124 A 
ATOM      9  C   UNL     1      -0.181   3.435 -22.638  0.00  0.00    +0.092 A 
ATOM     10  C   UNL     1      -1.467   3.411 -22.829  0.00  0.00    +0.139 A 
ATOM     11  O   UNL     1      -3.706   3.360 -25.441  0.00  0.00    -0.292 OA
ATOM     12  C   UNL     1      -4.835   3.355 -21.744  0.00  0.00    +0.056 C 
ATOM     13  O   UNL     1      -2.275   3.401 -21.812  0.00  0.00    -0.485 OA
ENDROOT
BRANCH   8  14
ATOM     14  O   UNL     1       1.913   3.470 -23.464  0.00  0.00    -0.507 OA
ATOM     15  H   UNL     1       2.284   3.041 -22.718  0.00  0.00    +0.292 HD
ENDBRANCH   8  14
BRANCH   6  16
ATOM     16  O   UNL     1      -1.611   3.394 -26.266  0.00  0.00    -0.506 OA
ATOM     17  H   UNL     1      -1.985   4.173 -26.631  0.00  0.00    +0.292 HD
ENDBRANCH   6  16
TORSDOF 2
ENDMDL
MODEL 8
REMARK VINA RESULT:    -6.999      1.555      3.267
REMARK INTER + INTRA:          -7.408
REMARK INTER:                  -7.408
REMARK INTRA:                   0.000
REMARK UNBOUND:                 0.000
REMARK  Name = ZINC000000338165
REMARK  4 active torsions:
REMARK  status: ('A' for Active; 'I' for Inactive)
REMARK    1  A    between atoms: C_1  and  C_2
REMARK    2  A    between atoms: C_2  and  C_3
REMARK    3  A    between atoms: C_8  and  O_9
REMARK    4  A    between atoms: C_11  and  O_12
REMARK                            x       y       z     vdW  Elec       q    Type
REMARK                         _______ _______ _______ _____ _____    ______ ____
ROOT
ATOM      1  C   UNL     1      -0.061   1.529 -20.931  0.00  0.00    +0.056 C 
ATOM      2  C   UNL     1       0.133   1.929 -22.151  0.00  0.00    +0.112 C 
ATOM      3  C   UNL     1       0.743   2.191 -23.269  0.00  0.00    +0.127 C 
ATOM      4  C   UNL     1       0.085   2.711 -24.263  0.00  0.00    +0.174 C 
ATOM      5  C   UNL     1      -1.183   2.968 -24.139  0.00  0.00    +0.101 A 
ATOM      6  C   UNL     1      -1.841   3.487 -25.133  0.00  0.00    +0.134 A 
ATOM      7  C   UNL     1      -3.110   3.745 -25.009  0.00  0.00    +0.091 A 
ATOM      8  C   UNL     1      -3.720   3.482 -23.892  0.00  0.00    +0.124 A 
ATOM      9  C   UNL     1      -3.062   2.962 -22.898  0.00  0.00    +0.092 A 
ATOM     10  C   UNL     1      -1.794   2.705 -23.022  0.00  0.00    +0.139 A 
ATOM     11  O   UNL     1       0.696   2.974 -25.381  0.00  0.00    -0.292 OA
ATOM     12  C   UNL     1       1.334   1.533 -21.851  0.00  0.00    +0.056 C 
ATOM     13  O   UNL     1      -1.136   2.186 -22.028  0.00  0.00    -0.485 OA
ENDROOT
BRANCH   8  14
ATOM     14  O   UNL     1      -4.988   3.739 -23.768  0.00  0.00    -0.507 OA
ATOM     15  H   UNL     1      -5.597   3.405 -24.397  0.00  0.00    +0.292 HD
ENDBRANCH   8  14
BRANCH   6  16
ATOM     16  O   UNL     1      -1.230   3.750 -26.250  0.00  0.00    -0.506 OA
ATOM     17  H   UNL     1      -0.702   3.094 -26.661  0.00  0.00    +0.292 HD
ENDBRANCH   6  16
TORSDOF 2
ENDMDL
MODEL 9
REMARK VINA RESULT:    -6.987      2.575      4.537
REMARK INTER + INTRA:          -7.396
REMARK INTER:                  -7.396
REMARK INTRA:                   0.000
REMARK UNBOUND:                 0.000
REMARK  Name = ZINC000000338165
REMARK  4 active torsions:
REMARK  status: ('A' for Active; 'I' for Inactive)
REMARK    1  A    between atoms: C_1  and  C_2
REMARK    2  A    between atoms: C_2  and  C_3
REMARK    3  A    between atoms: C_8  and  O_9
REMARK    4  A    between atoms: C_11  and  O_12
REMARK                            x       y       z     vdW  Elec       q    Type
REMARK                         _______ _______ _______ _____ _____    ______ ____
ROOT
ATOM      1  C   UNL     1       2.754   0.759 -23.247  0.00  0.00    +0.056 C 
ATOM      2  C   UNL     1       2.410   1.995 -23.454  0.00  0.00    +0.112 C 
ATOM      3  C   UNL     1       2.481   3.236 -23.833  0.00  0.00    +0.127 C 
ATOM      4  C   UNL     1       1.472   4.034 -23.642  0.00  0.00    +0.174 C 
ATOM      5  C   UNL     1       0.392   3.590 -23.071  0.00  0.00    +0.101 A 
ATOM      6  C   UNL     1      -0.617   4.387 -22.880  0.00  0.00    +0.134 A 
ATOM      7  C   UNL     1      -1.698   3.943 -22.309  0.00  0.00    +0.091 A 
ATOM      8  C   UNL     1      -1.769   2.702 -21.930  0.00  0.00    +0.124 A 
ATOM      9  C   UNL     1      -0.760   1.905 -22.121  0.00  0.00    +0.092 A 
ATOM     10  C   UNL     1       0.320   2.348 -22.692  0.00  0.00    +0.139 A 
ATOM     11  O   UNL     1       1.544   5.276 -24.022  0.00  0.00    -0.292 OA
ATOM     12  C   UNL     1       3.610   2.010 -23.953  0.00  0.00    +0.056 C 
ATOM     13  O   UNL     1       1.329   1.551 -22.883  0.00  0.00    -0.485 OA
ENDROOT
BRANCH   8  14
ATOM     14  O   UNL     1      -2.849   2.258 -21.359  0.00  0.00    -0.507 OA
ATOM     15  H   UNL     1      -3.612   2.801 -21.314  0.00  0.00    +0.292 HD
ENDBRANCH   8  14
BRANCH   6  16
ATOM     16  O   UNL     1      -0.545   5.628 -23.260  0.00  0.00    -0.506 OA
ATOM     17  H   UNL     1       0.267   6.092 -23.197  0.00  0.00    +0.292 HD
ENDBRANCH   6  16
TORSDOF 2
ENDMDL
