MODEL 1
REMARK VINA RESULT:    -7.369      0.000      0.000
REMARK INTER + INTRA:          -8.432
REMARK INTER:                  -8.243
REMARK INTRA:                  -0.190
REMARK UNBOUND:                -0.202
REMARK  Name = ZINC000004324103
REMARK  4 active torsions:
REMARK  status: ('A' for Active; 'I' for Inactive)
REMARK    1  A    between atoms: C_1  and  O_2
REMARK    2  A    between atoms: O_2  and  C_3
REMARK    3  A    between atoms: C_8  and  O_9
REMARK    4  A    between atoms: O_9  and  C_10
REMARK                            x       y       z     vdW  Elec       q    Type
REMARK                         _______ _______ _______ _____ _____    ______ ____
ROOT
ATOM      1  C   UNL     1      -1.132   2.609 -22.737  0.00  0.00    +0.162 A 
ATOM      2  C   UNL     1      -2.235   2.617 -22.046  0.00  0.00    +0.053 A 
ATOM      3  C   UNL     1      -3.331   3.069 -22.578  0.00  0.00    -0.030 A 
ATOM      4  C   UNL     1      -3.327   3.513 -23.800  0.00  0.00    +0.044 A 
ATOM      5  C   UNL     1      -4.424   3.965 -24.332  0.00  0.00    +0.244 C 
ATOM      6  N   UNL     1      -5.526   3.973 -23.641  0.00  0.00    -0.311 N 
ATOM      7  H   UNL     1      -6.357   4.315 -24.043  0.00  0.00    +0.149 HD
ATOM      8  C   UNL     1      -5.530   3.528 -22.419  0.00  0.00    +0.109 C 
ATOM      9  O   UNL     1      -4.420   4.409 -25.553  0.00  0.00    -0.270 OA
ATOM     10  C   UNL     1      -2.226   3.505 -24.490  0.00  0.00    +0.062 A 
ATOM     11  C   UNL     1      -4.432   3.077 -21.888  0.00  0.00    +0.054 C 
ATOM     12  C   UNL     1      -1.128   3.054 -23.959  0.00  0.00    +0.162 A 
ENDROOT
BRANCH   1  14
ATOM     13  C   UNL     1      -0.086   1.434 -21.127  0.00  0.00    +0.277 C 
ATOM     14  O   UNL     1      -0.036   2.158 -22.206  0.00  0.00    -0.491 OA
ENDBRANCH   1  14
BRANCH  12  15
ATOM     15  O   UNL     1      -0.027   3.046 -24.649  0.00  0.00    -0.491 OA
ATOM     16  C   UNL     1       0.485   4.165 -25.070  0.00  0.00    +0.277 C 
ENDBRANCH  12  15
TORSDOF 2
ENDMDL
MODEL 2
REMARK VINA RESULT:    -7.161      1.290      2.851
REMARK INTER + INTRA:          -8.200
REMARK INTER:                  -8.005
REMARK INTRA:                  -0.195
REMARK UNBOUND:                -0.202
REMARK  Name = ZINC000004324103
REMARK  4 active torsions:
REMARK  status: ('A' for Active; 'I' for Inactive)
REMARK    1  A    between atoms: C_1  and  O_2
REMARK    2  A    between atoms: O_2  and  C_3
REMARK    3  A    between atoms: C_8  and  O_9
REMARK    4  A    between atoms: O_9  and  C_10
REMARK                            x       y       z     vdW  Elec       q    Type
REMARK                         _______ _______ _______ _____ _____    ______ ____
ROOT
ATOM      1  C   UNL     1      -0.820   3.102 -24.224  0.00  0.00    +0.162 A 
ATOM      2  C   UNL     1      -1.828   3.584 -24.891  0.00  0.00    +0.053 A 
ATOM      3  C   UNL     1      -2.998   3.663 -24.332  0.00  0.00    -0.030 A 
ATOM      4  C   UNL     1      -3.163   3.260 -23.107  0.00  0.00    +0.044 A 
ATOM      5  C   UNL     1      -4.334   3.339 -22.548  0.00  0.00    +0.244 C 
ATOM      6  N   UNL     1      -5.341   3.821 -23.215  0.00  0.00    -0.311 N 
ATOM      7  H   UNL     1      -6.228   3.881 -22.792  0.00  0.00    +0.149 HD
ATOM      8  C   UNL     1      -5.177   4.224 -24.439  0.00  0.00    +0.109 C 
ATOM      9  O   UNL     1      -4.499   2.936 -21.323  0.00  0.00    -0.270 OA
ATOM     10  C   UNL     1      -2.156   2.778 -22.441  0.00  0.00    +0.062 A 
ATOM     11  C   UNL     1      -4.005   4.145 -24.998  0.00  0.00    +0.054 C 
ATOM     12  C   UNL     1      -0.984   2.699 -22.999  0.00  0.00    +0.162 A 
ENDROOT
BRANCH   1  14
ATOM     13  C   UNL     1       0.923   4.094 -25.248  0.00  0.00    +0.277 C 
ATOM     14  O   UNL     1       0.351   3.023 -24.783  0.00  0.00    -0.491 OA
ENDBRANCH   1  14
BRANCH  12  15
ATOM     15  O   UNL     1       0.022   2.217 -22.333  0.00  0.00    -0.491 OA
ATOM     16  C   UNL     1      -0.186   1.413 -21.333  0.00  0.00    +0.277 C 
ENDBRANCH  12  15
TORSDOF 2
ENDMDL
MODEL 3
REMARK VINA RESULT:    -6.987      1.495      2.968
REMARK INTER + INTRA:          -8.006
REMARK INTER:                  -8.022
REMARK INTRA:                   0.016
REMARK UNBOUND:                -0.202
REMARK  Name = ZINC000004324103
REMARK  4 active torsions:
REMARK  status: ('A' for Active; 'I' for Inactive)
REMARK    1  A    between atoms: C_1  and  O_2
REMARK    2  A    between atoms: O_2  and  C_3
REMARK    3  A    between atoms: C_8  and  O_9
REMARK    4  A    between atoms: O_9  and  C_10
REMARK                            x       y       z     vdW  Elec       q    Type
REMARK                         _______ _______ _______ _____ _____    ______ ____
ROOT
ATOM      1  C   UNL     1      -1.163   2.933 -22.783  0.00  0.00    +0.162 A 
ATOM      2  C   UNL     1      -1.200   3.006 -24.081  0.00  0.00    +0.053 A 
ATOM      3  C   UNL     1      -2.323   3.249 -24.687  0.00  0.00    -0.030 A 
ATOM      4  C   UNL     1      -3.411   3.419 -23.996  0.00  0.00    +0.044 A 
ATOM      5  C   UNL     1      -4.536   3.662 -24.601  0.00  0.00    +0.244 C 
ATOM      6  N   UNL     1      -4.572   3.735 -25.900  0.00  0.00    -0.311 N 
ATOM      7  H   UNL     1      -5.423   3.919 -26.359  0.00  0.00    +0.149 HD
ATOM      8  C   UNL     1      -3.484   3.565 -26.591  0.00  0.00    +0.109 C 
ATOM      9  O   UNL     1      -5.624   3.832 -23.911  0.00  0.00    -0.270 OA
ATOM     10  C   UNL     1      -3.375   3.346 -22.699  0.00  0.00    +0.062 A 
ATOM     11  C   UNL     1      -2.360   3.322 -25.984  0.00  0.00    +0.054 C 
ATOM     12  C   UNL     1      -2.251   3.103 -22.092  0.00  0.00    +0.162 A 
ENDROOT
BRANCH   1  14
ATOM     13  C   UNL     1       0.270   1.472 -21.844  0.00  0.00    +0.277 C 
ATOM     14  O   UNL     1      -0.040   2.690 -22.177  0.00  0.00    -0.491 OA
ENDBRANCH   1  14
BRANCH  12  15
ATOM     15  O   UNL     1      -2.215   3.030 -20.794  0.00  0.00    -0.491 OA
ATOM     16  C   UNL     1      -3.083   3.686 -20.082  0.00  0.00    +0.277 C 
ENDBRANCH  12  15
TORSDOF 2
ENDMDL
MODEL 4
REMARK VINA RESULT:    -6.892      1.607      2.630
REMARK INTER + INTRA:          -7.900
REMARK INTER:                  -7.707
REMARK INTRA:                  -0.193
REMARK UNBOUND:                -0.202
REMARK  Name = ZINC000004324103
REMARK  4 active torsions:
REMARK  status: ('A' for Active; 'I' for Inactive)
REMARK    1  A    between atoms: C_1  and  O_2
REMARK    2  A    between atoms: O_2  and  C_3
REMARK    3  A    between atoms: C_8  and  O_9
REMARK    4  A    between atoms: O_9  and  C_10
REMARK                            x       y       z     vdW  Elec       q    Type
REMARK                         _______ _______ _______ _____ _____    ______ ____
ROOT
ATOM      1  C   UNL     1      -1.073   3.373 -24.326  0.00  0.00    +0.162 A 
ATOM      2  C   UNL     1      -1.068   3.367 -23.026  0.00  0.00    +0.053 A 
ATOM      3  C   UNL     1      -2.189   3.412 -22.371  0.00  0.00    -0.030 A 
ATOM      4  C   UNL     1      -3.317   3.464 -23.016  0.00  0.00    +0.044 A 
ATOM      5  C   UNL     1      -4.440   3.509 -22.362  0.00  0.00    +0.244 C 
ATOM      6  N   UNL     1      -4.434   3.503 -21.061  0.00  0.00    -0.311 N 
ATOM      7  H   UNL     1      -5.283   3.537 -20.565  0.00  0.00    +0.149 HD
ATOM      8  C   UNL     1      -3.307   3.451 -20.416  0.00  0.00    +0.109 C 
ATOM      9  O   UNL     1      -5.568   3.561 -23.006  0.00  0.00    -0.270 OA
ATOM     10  C   UNL     1      -3.323   3.470 -24.316  0.00  0.00    +0.062 A 
ATOM     11  C   UNL     1      -2.184   3.406 -21.072  0.00  0.00    +0.054 C 
ATOM     12  C   UNL     1      -2.201   3.424 -24.971  0.00  0.00    +0.162 A 
ENDROOT
BRANCH   1  14
ATOM     13  C   UNL     1       0.992   4.180 -24.714  0.00  0.00    +0.277 C 
ATOM     14  O   UNL     1       0.049   3.327 -24.981  0.00  0.00    -0.491 OA
ENDBRANCH   1  14
BRANCH  12  15
ATOM     15  O   UNL     1      -2.207   3.431 -26.271  0.00  0.00    -0.491 OA
ATOM     16  C   UNL     1      -3.335   3.463 -26.916  0.00  0.00    +0.277 C 
ENDBRANCH  12  15
TORSDOF 2
ENDMDL
MODEL 5
REMARK VINA RESULT:    -6.869      2.174      4.249
REMARK INTER + INTRA:          -7.874
REMARK INTER:                  -7.686
REMARK INTRA:                  -0.188
REMARK UNBOUND:                -0.202
REMARK  Name = ZINC000004324103
REMARK  4 active torsions:
REMARK  status: ('A' for Active; 'I' for Inactive)
REMARK    1  A    between atoms: C_1  and  O_2
REMARK    2  A    between atoms: O_2  and  C_3
REMARK    3  A    between atoms: C_8  and  O_9
REMARK    4  A    between atoms: O_9  and  C_10
REMARK                            x       y       z     vdW  Elec       q    Type
REMARK                         _______ _______ _______ _____ _____    ______ ____
ROOT
ATOM      1  C   UNL     1      -3.329   3.233 -23.272  0.00  0.00    +0.162 A 
ATOM      2  C   UNL     1      -2.721   2.669 -22.271  0.00  0.00    +0.053 A 
ATOM      3  C   UNL     1      -1.455   2.385 -22.356  0.00  0.00    -0.030 A 
ATOM      4  C   UNL     1      -0.798   2.664 -23.442  0.00  0.00    +0.044 A 
ATOM      5  C   UNL     1       0.468   2.380 -23.527  0.00  0.00    +0.244 C 
ATOM      6  N   UNL     1       1.077   1.817 -22.526  0.00  0.00    -0.311 N 
ATOM      7  H   UNL     1       2.035   1.601 -22.589  0.00  0.00    +0.149 HD
ATOM      8  C   UNL     1       0.419   1.537 -21.439  0.00  0.00    +0.109 C 
ATOM      9  O   UNL     1       1.126   2.659 -24.613  0.00  0.00    -0.270 OA
ATOM     10  C   UNL     1      -1.406   3.228 -24.443  0.00  0.00    +0.062 A 
ATOM     11  C   UNL     1      -0.847   1.822 -21.355  0.00  0.00    +0.054 C 
ATOM     12  C   UNL     1      -2.672   3.512 -24.358  0.00  0.00    +0.162 A 
ENDROOT
BRANCH   1  14
ATOM     13  C   UNL     1      -5.234   3.312 -22.074  0.00  0.00    +0.277 C 
ATOM     14  O   UNL     1      -4.595   3.517 -23.188  0.00  0.00    -0.491 OA
ENDBRANCH   1  14
BRANCH  12  15
ATOM     15  O   UNL     1      -3.280   4.076 -25.360  0.00  0.00    -0.491 OA
ATOM     16  C   UNL     1      -3.357   3.461 -26.503  0.00  0.00    +0.277 C 
ENDBRANCH  12  15
TORSDOF 2
ENDMDL
MODEL 6
REMARK VINA RESULT:    -6.648      2.372      5.102
REMARK INTER + INTRA:          -7.627
REMARK INTER:                  -7.439
REMARK INTRA:                  -0.188
REMARK UNBOUND:                -0.202
REMARK  Name = ZINC000004324103
REMARK  4 active torsions:
REMARK  status: ('A' for Active; 'I' for Inactive)
REMARK    1  A    between atoms: C_1  and  O_2
REMARK    2  A    between atoms: O_2  and  C_3
REMARK    3  A    between atoms: C_8  and  O_9
REMARK    4  A    between atoms: O_9  and  C_10
REMARK                            x       y       z     vdW  Elec       q    Type
REMARK                         _______ _______ _______ _____ _____    ______ ____
ROOT
ATOM      1  C   UNL     1      -2.948   3.558 -23.780  0.00  0.00    +0.162 A 
ATOM      2  C   UNL     1      -1.796   3.582 -24.383  0.00  0.00    +0.053 A 
ATOM      3  C   UNL     1      -0.763   3.013 -23.836  0.00  0.00    -0.030 A 
ATOM      4  C   UNL     1      -0.882   2.419 -22.685  0.00  0.00    +0.044 A 
ATOM      5  C   UNL     1       0.150   1.850 -22.137  0.00  0.00    +0.244 C 
ATOM      6  N   UNL     1       1.302   1.873 -22.740  0.00  0.00    -0.311 N 
ATOM      7  H   UNL     1       2.084   1.442 -22.326  0.00  0.00    +0.149 HD
ATOM      8  C   UNL     1       1.421   2.467 -23.891  0.00  0.00    +0.109 C 
ATOM      9  O   UNL     1       0.032   1.256 -20.986  0.00  0.00    -0.270 OA
ATOM     10  C   UNL     1      -2.033   2.395 -22.082  0.00  0.00    +0.062 A 
ATOM     11  C   UNL     1       0.388   3.036 -24.438  0.00  0.00    +0.054 C 
ATOM     12  C   UNL     1      -3.066   2.965 -22.629  0.00  0.00    +0.162 A 
ENDROOT
BRANCH   1  14
ATOM     13  C   UNL     1      -4.432   3.696 -25.467  0.00  0.00    +0.277 C 
ATOM     14  O   UNL     1      -3.980   4.128 -24.327  0.00  0.00    -0.491 OA
ENDBRANCH   1  14
BRANCH  12  15
ATOM     15  O   UNL     1      -4.218   2.941 -22.026  0.00  0.00    -0.491 OA
ATOM     16  C   UNL     1      -4.345   2.316 -20.893  0.00  0.00    +0.277 C 
ENDBRANCH  12  15
TORSDOF 2
ENDMDL
MODEL 7
REMARK VINA RESULT:    -6.546      1.733      2.307
REMARK INTER + INTRA:          -7.513
REMARK INTER:                  -7.383
REMARK INTRA:                  -0.130
REMARK UNBOUND:                -0.202
REMARK  Name = ZINC000004324103
REMARK  4 active torsions:
REMARK  status: ('A' for Active; 'I' for Inactive)
REMARK    1  A    between atoms: C_1  and  O_2
REMARK    2  A    between atoms: O_2  and  C_3
REMARK    3  A    between atoms: C_8  and  O_9
REMARK    4  A    between atoms: O_9  and  C_10
REMARK                            x       y       z     vdW  Elec       q    Type
REMARK                         _______ _______ _______ _____ _____    ______ ____
ROOT
ATOM      1  C   UNL     1       0.746   1.574 -22.104  0.00  0.00    +0.162 A 
ATOM      2  C   UNL     1      -0.313   1.773 -21.375  0.00  0.00    +0.053 A 
ATOM      3  C   UNL     1      -1.325   2.425 -21.863  0.00  0.00    -0.030 A 
ATOM      4  C   UNL     1      -1.280   2.879 -23.081  0.00  0.00    +0.044 A 
ATOM      5  C   UNL     1      -2.292   3.531 -23.570  0.00  0.00    +0.244 C 
ATOM      6  N   UNL     1      -3.351   3.730 -22.841  0.00  0.00    -0.311 N 
ATOM      7  H   UNL     1      -4.118   4.224 -23.210  0.00  0.00    +0.149 HD
ATOM      8  C   UNL     1      -3.396   3.276 -21.624  0.00  0.00    +0.109 C 
ATOM      9  O   UNL     1      -2.248   3.985 -24.788  0.00  0.00    -0.270 OA
ATOM     10  C   UNL     1      -0.222   2.680 -23.810  0.00  0.00    +0.062 A 
ATOM     11  C   UNL     1      -2.383   2.624 -21.135  0.00  0.00    +0.054 C 
ATOM     12  C   UNL     1       0.791   2.028 -23.321  0.00  0.00    +0.162 A 
ENDROOT
BRANCH   1  14
ATOM     13  C   UNL     1       2.586   1.516 -20.808  0.00  0.00    +0.277 C 
ATOM     14  O   UNL     1       1.759   0.922 -21.616  0.00  0.00    -0.491 OA
ENDBRANCH   1  14
BRANCH  12  15
ATOM     15  O   UNL     1       1.849   1.829 -24.050  0.00  0.00    -0.491 OA
ATOM     16  C   UNL     1       1.910   2.317 -25.254  0.00  0.00    +0.277 C 
ENDBRANCH  12  15
TORSDOF 2
ENDMDL
MODEL 8
REMARK VINA RESULT:    -6.497      2.333      3.991
REMARK INTER + INTRA:          -7.458
REMARK INTER:                  -7.269
REMARK INTRA:                  -0.189
REMARK UNBOUND:                -0.202
REMARK  Name = ZINC000004324103
REMARK  4 active torsions:
REMARK  status: ('A' for Active; 'I' for Inactive)
REMARK    1  A    between atoms: C_1  and  O_2
REMARK    2  A    between atoms: O_2  and  C_3
REMARK    3  A    between atoms: C_8  and  O_9
REMARK    4  A    between atoms: O_9  and  C_10
REMARK                            x       y       z     vdW  Elec       q    Type
REMARK                         _______ _______ _______ _____ _____    ______ ____
ROOT
ATOM      1  C   UNL     1      -3.099   3.367 -22.017  0.00  0.00    +0.162 A 
ATOM      2  C   UNL     1      -1.811   3.257 -22.161  0.00  0.00    +0.053 A 
ATOM      3  C   UNL     1      -1.287   3.276 -23.350  0.00  0.00    -0.030 A 
ATOM      4  C   UNL     1      -2.049   3.405 -24.395  0.00  0.00    +0.044 A 
ATOM      5  C   UNL     1      -1.525   3.425 -25.585  0.00  0.00    +0.244 C 
ATOM      6  N   UNL     1      -0.237   3.315 -25.729  0.00  0.00    -0.311 N 
ATOM      7  H   UNL     1       0.161   3.329 -26.629  0.00  0.00    +0.149 HD
ATOM      8  C   UNL     1       0.525   3.186 -24.684  0.00  0.00    +0.109 C 
ATOM      9  O   UNL     1      -2.287   3.554 -26.630  0.00  0.00    -0.270 OA
ATOM     10  C   UNL     1      -3.336   3.515 -24.251  0.00  0.00    +0.062 A 
ATOM     11  C   UNL     1      -0.000   3.166 -23.495  0.00  0.00    +0.054 C 
ATOM     12  C   UNL     1      -3.862   3.496 -23.062  0.00  0.00    +0.162 A 
ENDROOT
BRANCH   1  14
ATOM     13  C   UNL     1      -2.934   3.759 -19.806  0.00  0.00    +0.277 C 
ATOM     14  O   UNL     1      -3.624   3.347 -20.828  0.00  0.00    -0.491 OA
ENDBRANCH   1  14
BRANCH  12  15
ATOM     15  O   UNL     1      -5.149   3.606 -22.918  0.00  0.00    -0.491 OA
ATOM     16  C   UNL     1      -5.900   3.850 -23.950  0.00  0.00    +0.277 C 
ENDBRANCH  12  15
TORSDOF 2
ENDMDL
MODEL 9
REMARK VINA RESULT:    -6.280      4.360      7.103
REMARK INTER + INTRA:          -7.216
REMARK INTER:                  -7.015
REMARK INTRA:                  -0.202
REMARK UNBOUND:                -0.202
REMARK  Name = ZINC000004324103
REMARK  4 active torsions:
REMARK  status: ('A' for Active; 'I' for Inactive)
REMARK    1  A    between atoms: C_1  and  O_2
REMARK    2  A    between atoms: O_2  and  C_3
REMARK    3  A    between atoms: C_8  and  O_9
REMARK    4  A    between atoms: O_9  and  C_10
REMARK                            x       y       z     vdW  Elec       q    Type
REMARK                         _______ _______ _______ _____ _____    ______ ____
ROOT
ATOM      1  C   UNL     1       1.383   3.015 -23.254  0.00  0.00    +0.162 A 
ATOM      2  C   UNL     1       2.609   3.448 -23.204  0.00  0.00    +0.053 A 
ATOM      3  C   UNL     1       3.506   2.784 -22.538  0.00  0.00    -0.030 A 
ATOM      4  C   UNL     1       3.179   1.687 -21.922  0.00  0.00    +0.044 A 
ATOM      5  C   UNL     1       4.076   1.022 -21.256  0.00  0.00    +0.244 C 
ATOM      6  N   UNL     1       5.301   1.455 -21.206  0.00  0.00    -0.311 N 
ATOM      7  H   UNL     1       5.981   0.953 -20.702  0.00  0.00    +0.149 HD
ATOM      8  C   UNL     1       5.629   2.552 -21.822  0.00  0.00    +0.109 C 
ATOM      9  O   UNL     1       3.750  -0.075 -20.639  0.00  0.00    -0.270 OA
ATOM     10  C   UNL     1       1.954   1.254 -21.972  0.00  0.00    +0.062 A 
ATOM     11  C   UNL     1       4.730   3.216 -22.488  0.00  0.00    +0.054 C 
ATOM     12  C   UNL     1       1.056   1.918 -22.638  0.00  0.00    +0.162 A 
ENDROOT
BRANCH   1  14
ATOM     13  C   UNL     1       0.203   4.903 -23.586  0.00  0.00    +0.277 C 
ATOM     14  O   UNL     1       0.486   3.679 -23.920  0.00  0.00    -0.491 OA
ENDBRANCH   1  14
BRANCH  12  15
ATOM     15  O   UNL     1      -0.168   1.485 -22.688  0.00  0.00    -0.491 OA
ATOM     16  C   UNL     1      -0.913   1.517 -21.623  0.00  0.00    +0.277 C 
ENDBRANCH  12  15
TORSDOF 2
ENDMDL
