MODEL 1
REMARK VINA RESULT:    -9.214      0.000      0.000
REMARK INTER + INTRA:         -11.025
REMARK INTER:                 -10.813
REMARK INTRA:                  -0.212
REMARK UNBOUND:                -0.195
REMARK  Name = ZINC000006484559
REMARK  5 active torsions:
REMARK  status: ('A' for Active; 'I' for Inactive)
REMARK    1  A    between atoms: C_1  and  O_2
REMARK    2  A    between atoms: O_2  and  C_3
REMARK    3  A    between atoms: C_6  and  C_7
REMARK    4  A    between atoms: C_12  and  O_13
REMARK    5  A    between atoms: C_14  and  O_15
REMARK                            x       y       z     vdW  Elec       q    Type
REMARK                         _______ _______ _______ _____ _____    ______ ____
ROOT
ATOM      1  C   UNL     1      -0.423   3.760 -23.111  0.00  0.00    +0.064 A 
ATOM      2  C   UNL     1       0.185   4.903 -23.226  0.00  0.00    +0.208 A 
ATOM      3  O   UNL     1       1.468   4.939 -23.433  0.00  0.00    -0.462 OA
ATOM      4  C   UNL     1       2.143   3.831 -23.526  0.00  0.00    +0.142 A 
ATOM      5  C   UNL     1       3.425   3.867 -23.733  0.00  0.00    +0.096 A 
ATOM      6  C   UNL     1       4.099   2.760 -23.826  0.00  0.00    +0.162 A 
ATOM      7  C   UNL     1       3.491   1.617 -23.712  0.00  0.00    +0.159 A 
ATOM      8  C   UNL     1       2.209   1.581 -23.504  0.00  0.00    +0.064 A 
ATOM      9  C   UNL     1       1.534   2.688 -23.412  0.00  0.00    +0.068 A 
ATOM     10  C   UNL     1       0.251   2.653 -23.204  0.00  0.00    +0.200 A 
ATOM     11  O   UNL     1      -0.357   1.510 -23.090  0.00  0.00    -0.286 OA
ENDROOT
BRANCH   1  15
ATOM     12  C   UNL     1      -4.272   3.650 -22.488  0.00  0.00    +0.120 A 
ATOM     13  C   UNL     1      -3.813   3.755 -23.699  0.00  0.00    +0.046 A 
ATOM     14  C   UNL     1      -2.530   3.792 -23.908  0.00  0.00    +0.012 A 
ATOM     15  C   UNL     1      -1.706   3.723 -22.904  0.00  0.00    -0.011 A 
ATOM     16  C   UNL     1      -2.166   3.617 -21.692  0.00  0.00    +0.012 A 
ATOM     17  C   UNL     1      -3.448   3.581 -21.484  0.00  0.00    +0.046 A 
BRANCH  12  19
ATOM     18  C   UNL     1      -6.075   2.634 -21.599  0.00  0.00    +0.277 C 
ATOM     19  O   UNL     1      -5.554   3.613 -22.280  0.00  0.00    -0.495 OA
ENDBRANCH  12  19
ENDBRANCH   1  15
BRANCH   7  20
ATOM     20  O   UNL     1       4.166   0.509 -23.805  0.00  0.00    -0.503 OA
ATOM     21  H   UNL     1       3.729  -0.314 -23.716  0.00  0.00    +0.292 HD
ENDBRANCH   7  20
BRANCH   6  22
ATOM     22  O   UNL     1       5.383   2.795 -24.033  0.00  0.00    -0.503 OA
ATOM     23  H   UNL     1       5.950   2.223 -23.554  0.00  0.00    +0.292 HD
ENDBRANCH   6  22
TORSDOF 4
ENDMDL
MODEL 2
REMARK VINA RESULT:    -8.888      2.131      3.071
REMARK INTER + INTRA:         -10.642
REMARK INTER:                 -10.468
REMARK INTRA:                  -0.174
REMARK UNBOUND:                -0.195
REMARK  Name = ZINC000006484559
REMARK  5 active torsions:
REMARK  status: ('A' for Active; 'I' for Inactive)
REMARK    1  A    between atoms: C_1  and  O_2
REMARK    2  A    between atoms: O_2  and  C_3
REMARK    3  A    between atoms: C_6  and  C_7
REMARK    4  A    between atoms: C_12  and  O_13
REMARK    5  A    between atoms: C_14  and  O_15
REMARK                            x       y       z     vdW  Elec       q    Type
REMARK                         _______ _______ _______ _____ _____    ______ ____
ROOT
ATOM      1  C   UNL     1       0.601   2.344 -22.352  0.00  0.00    +0.064 A 
ATOM      2  C   UNL     1       0.387   1.739 -21.222  0.00  0.00    +0.208 A 
ATOM      3  O   UNL     1       1.365   1.141 -20.609  0.00  0.00    -0.462 OA
ATOM      4  C   UNL     1       2.558   1.148 -21.127  0.00  0.00    +0.142 A 
ATOM      5  C   UNL     1       3.536   0.550 -20.515  0.00  0.00    +0.096 A 
ATOM      6  C   UNL     1       4.728   0.558 -21.033  0.00  0.00    +0.162 A 
ATOM      7  C   UNL     1       4.943   1.163 -22.163  0.00  0.00    +0.159 A 
ATOM      8  C   UNL     1       3.965   1.761 -22.775  0.00  0.00    +0.064 A 
ATOM      9  C   UNL     1       2.772   1.754 -22.258  0.00  0.00    +0.068 A 
ATOM     10  C   UNL     1       1.794   2.352 -22.870  0.00  0.00    +0.200 A 
ATOM     11  O   UNL     1       2.008   2.957 -24.000  0.00  0.00    -0.286 OA
ENDROOT
BRANCH   1  15
ATOM     12  C   UNL     1      -2.331   4.141 -24.192  0.00  0.00    +0.120 A 
ATOM     13  C   UNL     1      -2.220   2.848 -24.255  0.00  0.00    +0.046 A 
ATOM     14  C   UNL     1      -1.243   2.248 -23.642  0.00  0.00    +0.012 A 
ATOM     15  C   UNL     1      -0.376   2.943 -22.966  0.00  0.00    -0.011 A 
ATOM     16  C   UNL     1      -0.488   4.237 -22.903  0.00  0.00    +0.012 A 
ATOM     17  C   UNL     1      -1.465   4.836 -23.515  0.00  0.00    +0.046 A 
BRANCH  12  19
ATOM     18  C   UNL     1      -4.441   4.126 -24.978  0.00  0.00    +0.277 C 
ATOM     19  O   UNL     1      -3.308   4.740 -24.805  0.00  0.00    -0.495 OA
ENDBRANCH  12  19
ENDBRANCH   1  15
BRANCH   7  20
ATOM     20  O   UNL     1       6.136   1.170 -22.681  0.00  0.00    -0.503 OA
ATOM     21  H   UNL     1       6.719   0.455 -22.523  0.00  0.00    +0.292 HD
ENDBRANCH   7  20
BRANCH   6  22
ATOM     22  O   UNL     1       5.707  -0.041 -20.420  0.00  0.00    -0.503 OA
ATOM     23  H   UNL     1       6.305   0.457 -19.897  0.00  0.00    +0.292 HD
ENDBRANCH   6  22
TORSDOF 4
ENDMDL
MODEL 3
REMARK VINA RESULT:    -8.810      1.455      2.348
REMARK INTER + INTRA:         -10.550
REMARK INTER:                 -10.572
REMARK INTRA:                   0.022
REMARK UNBOUND:                -0.195
REMARK  Name = ZINC000006484559
REMARK  5 active torsions:
REMARK  status: ('A' for Active; 'I' for Inactive)
REMARK    1  A    between atoms: C_1  and  O_2
REMARK    2  A    between atoms: O_2  and  C_3
REMARK    3  A    between atoms: C_6  and  C_7
REMARK    4  A    between atoms: C_12  and  O_13
REMARK    5  A    between atoms: C_14  and  O_15
REMARK                            x       y       z     vdW  Elec       q    Type
REMARK                         _______ _______ _______ _____ _____    ______ ____
ROOT
ATOM      1  C   UNL     1       0.116   2.265 -22.353  0.00  0.00    +0.064 A 
ATOM      2  C   UNL     1       0.375   1.449 -21.375  0.00  0.00    +0.208 A 
ATOM      3  O   UNL     1       1.596   1.056 -21.162  0.00  0.00    -0.462 OA
ATOM      4  C   UNL     1       2.558   1.479 -21.927  0.00  0.00    +0.142 A 
ATOM      5  C   UNL     1       3.779   1.087 -21.715  0.00  0.00    +0.096 A 
ATOM      6  C   UNL     1       4.740   1.510 -22.480  0.00  0.00    +0.162 A 
ATOM      7  C   UNL     1       4.481   2.327 -23.458  0.00  0.00    +0.159 A 
ATOM      8  C   UNL     1       3.261   2.720 -23.671  0.00  0.00    +0.064 A 
ATOM      9  C   UNL     1       2.299   2.296 -22.905  0.00  0.00    +0.068 A 
ATOM     10  C   UNL     1       1.078   2.689 -23.118  0.00  0.00    +0.200 A 
ATOM     11  O   UNL     1       0.819   3.505 -24.096  0.00  0.00    -0.286 OA
ENDROOT
BRANCH   1  15
ATOM     12  C   UNL     1      -3.545   3.444 -22.995  0.00  0.00    +0.120 A 
ATOM     13  C   UNL     1      -2.953   3.745 -21.878  0.00  0.00    +0.046 A 
ATOM     14  C   UNL     1      -1.732   3.352 -21.663  0.00  0.00    +0.012 A 
ATOM     15  C   UNL     1      -1.104   2.659 -22.566  0.00  0.00    -0.011 A 
ATOM     16  C   UNL     1      -1.698   2.358 -23.684  0.00  0.00    +0.012 A 
ATOM     17  C   UNL     1      -2.918   2.751 -23.898  0.00  0.00    +0.046 A 
BRANCH  12  19
ATOM     18  C   UNL     1      -5.732   3.397 -22.459  0.00  0.00    +0.277 C 
ATOM     19  O   UNL     1      -4.766   3.837 -23.209  0.00  0.00    -0.495 OA
ENDBRANCH  12  19
ENDBRANCH   1  15
BRANCH   7  20
ATOM     20  O   UNL     1       5.444   2.750 -24.223  0.00  0.00    -0.503 OA
ATOM     21  H   UNL     1       6.091   3.334 -23.881  0.00  0.00    +0.292 HD
ENDBRANCH   7  20
BRANCH   6  22
ATOM     22  O   UNL     1       5.962   1.117 -22.267  0.00  0.00    -0.503 OA
ATOM     23  H   UNL     1       6.413   0.619 -22.920  0.00  0.00    +0.292 HD
ENDBRANCH   6  22
TORSDOF 4
ENDMDL
MODEL 4
REMARK VINA RESULT:    -8.806      1.431      6.984
REMARK INTER + INTRA:         -10.546
REMARK INTER:                 -10.338
REMARK INTRA:                  -0.208
REMARK UNBOUND:                -0.195
REMARK  Name = ZINC000006484559
REMARK  5 active torsions:
REMARK  status: ('A' for Active; 'I' for Inactive)
REMARK    1  A    between atoms: C_1  and  O_2
REMARK    2  A    between atoms: O_2  and  C_3
REMARK    3  A    between atoms: C_6  and  C_7
REMARK    4  A    between atoms: C_12  and  O_13
REMARK    5  A    between atoms: C_14  and  O_15
REMARK                            x       y       z     vdW  Elec       q    Type
REMARK                         _______ _______ _______ _____ _____    ______ ____
ROOT
ATOM      1  C   UNL     1      -0.033   3.180 -23.225  0.00  0.00    +0.064 A 
ATOM      2  C   UNL     1      -0.554   2.823 -22.088  0.00  0.00    +0.208 A 
ATOM      3  O   UNL     1      -1.840   2.885 -21.915  0.00  0.00    -0.462 OA
ATOM      4  C   UNL     1      -2.607   3.303 -22.879  0.00  0.00    +0.142 A 
ATOM      5  C   UNL     1      -3.893   3.365 -22.706  0.00  0.00    +0.096 A 
ATOM      6  C   UNL     1      -4.659   3.783 -23.670  0.00  0.00    +0.162 A 
ATOM      7  C   UNL     1      -4.138   4.140 -24.806  0.00  0.00    +0.159 A 
ATOM      8  C   UNL     1      -2.852   4.078 -24.979  0.00  0.00    +0.064 A 
ATOM      9  C   UNL     1      -2.086   3.660 -24.016  0.00  0.00    +0.068 A 
ATOM     10  C   UNL     1      -0.798   3.598 -24.188  0.00  0.00    +0.200 A 
ATOM     11  O   UNL     1      -0.278   3.955 -25.325  0.00  0.00    -0.286 OA
ENDROOT
BRANCH   1  15
ATOM     12  C   UNL     1       3.828   2.998 -23.746  0.00  0.00    +0.120 A 
ATOM     13  C   UNL     1       3.100   1.935 -23.912  0.00  0.00    +0.046 A 
ATOM     14  C   UNL     1       1.812   1.995 -23.738  0.00  0.00    +0.012 A 
ATOM     15  C   UNL     1       1.254   3.119 -23.399  0.00  0.00    -0.011 A 
ATOM     16  C   UNL     1       1.984   4.183 -23.234  0.00  0.00    +0.012 A 
ATOM     17  C   UNL     1       3.270   4.122 -23.407  0.00  0.00    +0.046 A 
BRANCH  12  19
ATOM     18  C   UNL     1       5.897   3.756 -23.280  0.00  0.00    +0.277 C 
ATOM     19  O   UNL     1       5.115   2.938 -23.920  0.00  0.00    -0.495 OA
ENDBRANCH  12  19
ENDBRANCH   1  15
BRANCH   7  20
ATOM     20  O   UNL     1      -4.905   4.558 -25.770  0.00  0.00    -0.503 OA
ATOM     21  H   UNL     1      -5.315   5.398 -25.711  0.00  0.00    +0.292 HD
ENDBRANCH   7  20
BRANCH   6  22
ATOM     22  O   UNL     1      -5.947   3.845 -23.497  0.00  0.00    -0.503 OA
ATOM     23  H   UNL     1      -6.295   4.115 -22.670  0.00  0.00    +0.292 HD
ENDBRANCH   6  22
TORSDOF 4
ENDMDL
MODEL 5
REMARK VINA RESULT:    -8.691      1.651      1.916
REMARK INTER + INTRA:         -10.410
REMARK INTER:                 -10.423
REMARK INTRA:                   0.013
REMARK UNBOUND:                -0.195
REMARK  Name = ZINC000006484559
REMARK  5 active torsions:
REMARK  status: ('A' for Active; 'I' for Inactive)
REMARK    1  A    between atoms: C_1  and  O_2
REMARK    2  A    between atoms: O_2  and  C_3
REMARK    3  A    between atoms: C_6  and  C_7
REMARK    4  A    between atoms: C_12  and  O_13
REMARK    5  A    between atoms: C_14  and  O_15
REMARK                            x       y       z     vdW  Elec       q    Type
REMARK                         _______ _______ _______ _____ _____    ______ ____
ROOT
ATOM      1  C   UNL     1       0.344   2.653 -22.913  0.00  0.00    +0.064 A 
ATOM      2  C   UNL     1       1.054   3.240 -23.830  0.00  0.00    +0.208 A 
ATOM      3  O   UNL     1       2.328   2.996 -23.921  0.00  0.00    -0.462 OA
ATOM      4  C   UNL     1       2.892   2.164 -23.095  0.00  0.00    +0.142 A 
ATOM      5  C   UNL     1       4.165   1.921 -23.186  0.00  0.00    +0.096 A 
ATOM      6  C   UNL     1       4.728   1.090 -22.360  0.00  0.00    +0.162 A 
ATOM      7  C   UNL     1       4.017   0.502 -21.444  0.00  0.00    +0.159 A 
ATOM      8  C   UNL     1       2.744   0.746 -21.353  0.00  0.00    +0.064 A 
ATOM      9  C   UNL     1       2.181   1.577 -22.178  0.00  0.00    +0.068 A 
ATOM     10  C   UNL     1       0.907   1.822 -22.088  0.00  0.00    +0.200 A 
ATOM     11  O   UNL     1       0.197   1.234 -21.171  0.00  0.00    -0.286 OA
ENDROOT
BRANCH   1  15
ATOM     12  C   UNL     1      -3.477   3.384 -22.636  0.00  0.00    +0.120 A 
ATOM     13  C   UNL     1      -2.999   2.823 -23.707  0.00  0.00    +0.046 A 
ATOM     14  C   UNL     1      -1.725   2.579 -23.800  0.00  0.00    +0.012 A 
ATOM     15  C   UNL     1      -0.930   2.896 -22.822  0.00  0.00    -0.011 A 
ATOM     16  C   UNL     1      -1.409   3.457 -21.750  0.00  0.00    +0.012 A 
ATOM     17  C   UNL     1      -2.682   3.701 -21.658  0.00  0.00    +0.046 A 
BRANCH  12  19
ATOM     18  C   UNL     1      -5.459   3.801 -23.620  0.00  0.00    +0.277 C 
ATOM     19  O   UNL     1      -4.750   3.627 -22.544  0.00  0.00    -0.495 OA
ENDBRANCH  12  19
ENDBRANCH   1  15
BRANCH   7  20
ATOM     20  O   UNL     1       4.581  -0.329 -20.617  0.00  0.00    -0.503 OA
ATOM     21  H   UNL     1       5.107  -0.005 -19.914  0.00  0.00    +0.292 HD
ENDBRANCH   7  20
BRANCH   6  22
ATOM     22  O   UNL     1       6.002   0.845 -22.451  0.00  0.00    -0.503 OA
ATOM     23  H   UNL     1       6.518   0.761 -21.674  0.00  0.00    +0.292 HD
ENDBRANCH   6  22
TORSDOF 4
ENDMDL
MODEL 6
REMARK VINA RESULT:    -8.477      1.317      6.838
REMARK INTER + INTRA:         -10.159
REMARK INTER:                  -9.955
REMARK INTRA:                  -0.203
REMARK UNBOUND:                -0.195
REMARK  Name = ZINC000006484559
REMARK  5 active torsions:
REMARK  status: ('A' for Active; 'I' for Inactive)
REMARK    1  A    between atoms: C_1  and  O_2
REMARK    2  A    between atoms: O_2  and  C_3
REMARK    3  A    between atoms: C_6  and  C_7
REMARK    4  A    between atoms: C_12  and  O_13
REMARK    5  A    between atoms: C_14  and  O_15
REMARK                            x       y       z     vdW  Elec       q    Type
REMARK                         _______ _______ _______ _____ _____    ______ ____
ROOT
ATOM      1  C   UNL     1       0.257   3.424 -23.671  0.00  0.00    +0.064 A 
ATOM      2  C   UNL     1      -0.348   4.017 -24.658  0.00  0.00    +0.208 A 
ATOM      3  O   UNL     1      -1.643   4.128 -24.654  0.00  0.00    -0.462 OA
ATOM      4  C   UNL     1      -2.334   3.646 -23.664  0.00  0.00    +0.142 A 
ATOM      5  C   UNL     1      -3.629   3.757 -23.660  0.00  0.00    +0.096 A 
ATOM      6  C   UNL     1      -4.319   3.275 -22.670  0.00  0.00    +0.162 A 
ATOM      7  C   UNL     1      -3.715   2.682 -21.683  0.00  0.00    +0.159 A 
ATOM      8  C   UNL     1      -2.420   2.571 -21.687  0.00  0.00    +0.064 A 
ATOM      9  C   UNL     1      -1.730   3.053 -22.677  0.00  0.00    +0.068 A 
ATOM     10  C   UNL     1      -0.434   2.942 -22.681  0.00  0.00    +0.200 A 
ATOM     11  O   UNL     1       0.171   2.350 -21.694  0.00  0.00    -0.286 OA
ENDROOT
BRANCH   1  15
ATOM     12  C   UNL     1       4.142   3.088 -23.681  0.00  0.00    +0.120 A 
ATOM     13  C   UNL     1       3.587   4.187 -23.267  0.00  0.00    +0.046 A 
ATOM     14  C   UNL     1       2.291   4.300 -23.263  0.00  0.00    +0.012 A 
ATOM     15  C   UNL     1       1.552   3.313 -23.674  0.00  0.00    -0.011 A 
ATOM     16  C   UNL     1       2.109   2.213 -24.089  0.00  0.00    +0.012 A 
ATOM     17  C   UNL     1       3.403   2.100 -24.092  0.00  0.00    +0.046 A 
BRANCH  12  19
ATOM     18  C   UNL     1       6.064   2.648 -22.593  0.00  0.00    +0.277 C 
ATOM     19  O   UNL     1       5.437   2.976 -23.684  0.00  0.00    -0.495 OA
ENDBRANCH  12  19
ENDBRANCH   1  15
BRANCH   7  20
ATOM     20  O   UNL     1      -4.406   2.201 -20.692  0.00  0.00    -0.503 OA
ATOM     21  H   UNL     1      -5.236   1.798 -20.853  0.00  0.00    +0.292 HD
ENDBRANCH   7  20
BRANCH   6  22
ATOM     22  O   UNL     1      -5.615   3.386 -22.666  0.00  0.00    -0.503 OA
ATOM     23  H   UNL     1      -6.082   3.443 -23.476  0.00  0.00    +0.292 HD
ENDBRANCH   6  22
TORSDOF 4
ENDMDL
MODEL 7
REMARK VINA RESULT:    -8.430      1.905      6.660
REMARK INTER + INTRA:         -10.104
REMARK INTER:                 -10.292
REMARK INTRA:                   0.189
REMARK UNBOUND:                -0.195
REMARK  Name = ZINC000006484559
REMARK  5 active torsions:
REMARK  status: ('A' for Active; 'I' for Inactive)
REMARK    1  A    between atoms: C_1  and  O_2
REMARK    2  A    between atoms: O_2  and  C_3
REMARK    3  A    between atoms: C_6  and  C_7
REMARK    4  A    between atoms: C_12  and  O_13
REMARK    5  A    between atoms: C_14  and  O_15
REMARK                            x       y       z     vdW  Elec       q    Type
REMARK                         _______ _______ _______ _____ _____    ______ ____
ROOT
ATOM      1  C   UNL     1       0.167   2.906 -23.615  0.00  0.00    +0.064 A 
ATOM      2  C   UNL     1       0.257   3.136 -24.891  0.00  0.00    +0.208 A 
ATOM      3  O   UNL     1      -0.803   3.463 -25.568  0.00  0.00    -0.462 OA
ATOM      4  C   UNL     1      -1.953   3.561 -24.969  0.00  0.00    +0.142 A 
ATOM      5  C   UNL     1      -3.013   3.889 -25.646  0.00  0.00    +0.096 A 
ATOM      6  C   UNL     1      -4.163   3.986 -25.047  0.00  0.00    +0.162 A 
ATOM      7  C   UNL     1      -4.252   3.756 -23.771  0.00  0.00    +0.159 A 
ATOM      8  C   UNL     1      -3.192   3.429 -23.093  0.00  0.00    +0.064 A 
ATOM      9  C   UNL     1      -2.043   3.331 -23.693  0.00  0.00    +0.068 A 
ATOM     10  C   UNL     1      -0.982   3.003 -23.015  0.00  0.00    +0.200 A 
ATOM     11  O   UNL     1      -1.072   2.773 -21.739  0.00  0.00    -0.286 OA
ENDROOT
BRANCH   1  15
ATOM     12  C   UNL     1       3.347   1.924 -21.581  0.00  0.00    +0.120 A 
ATOM     13  C   UNL     1       2.289   1.171 -21.535  0.00  0.00    +0.046 A 
ATOM     14  C   UNL     1       1.228   1.498 -22.213  0.00  0.00    +0.012 A 
ATOM     15  C   UNL     1       1.227   2.578 -22.936  0.00  0.00    -0.011 A 
ATOM     16  C   UNL     1       2.286   3.331 -22.982  0.00  0.00    +0.012 A 
ATOM     17  C   UNL     1       3.346   3.004 -22.304  0.00  0.00    +0.046 A 
BRANCH  12  19
ATOM     18  C   UNL     1       4.770   0.351 -20.825  0.00  0.00    +0.277 C 
ATOM     19  O   UNL     1       4.407   1.597 -20.903  0.00  0.00    -0.495 OA
ENDBRANCH  12  19
ENDBRANCH   1  15
BRANCH   7  20
ATOM     20  O   UNL     1      -5.402   3.854 -23.172  0.00  0.00    -0.503 OA
ATOM     21  H   UNL     1      -5.708   3.155 -22.628  0.00  0.00    +0.292 HD
ENDBRANCH   7  20
BRANCH   6  22
ATOM     22  O   UNL     1      -5.223   4.314 -25.724  0.00  0.00    -0.503 OA
ATOM     23  H   UNL     1      -5.406   5.216 -25.900  0.00  0.00    +0.292 HD
ENDBRANCH   6  22
TORSDOF 4
ENDMDL
MODEL 8
REMARK VINA RESULT:    -7.778      1.523      6.889
REMARK INTER + INTRA:          -9.337
REMARK INTER:                  -9.142
REMARK INTRA:                  -0.195
REMARK UNBOUND:                -0.195
REMARK  Name = ZINC000006484559
REMARK  5 active torsions:
REMARK  status: ('A' for Active; 'I' for Inactive)
REMARK    1  A    between atoms: C_1  and  O_2
REMARK    2  A    between atoms: O_2  and  C_3
REMARK    3  A    between atoms: C_6  and  C_7
REMARK    4  A    between atoms: C_12  and  O_13
REMARK    5  A    between atoms: C_14  and  O_15
REMARK                            x       y       z     vdW  Elec       q    Type
REMARK                         _______ _______ _______ _____ _____    ______ ____
ROOT
ATOM      1  C   UNL     1       1.180   3.649 -23.752  0.00  0.00    +0.064 A 
ATOM      2  C   UNL     1       0.659   4.264 -24.772  0.00  0.00    +0.208 A 
ATOM      3  O   UNL     1      -0.630   4.400 -24.860  0.00  0.00    -0.462 OA
ATOM      4  C   UNL     1      -1.400   3.920 -23.928  0.00  0.00    +0.142 A 
ATOM      5  C   UNL     1      -2.690   4.056 -24.016  0.00  0.00    +0.096 A 
ATOM      6  C   UNL     1      -3.459   3.577 -23.084  0.00  0.00    +0.162 A 
ATOM      7  C   UNL     1      -2.938   2.962 -22.064  0.00  0.00    +0.159 A 
ATOM      8  C   UNL     1      -1.649   2.826 -21.976  0.00  0.00    +0.064 A 
ATOM      9  C   UNL     1      -0.880   3.305 -22.908  0.00  0.00    +0.068 A 
ATOM     10  C   UNL     1       0.411   3.170 -22.820  0.00  0.00    +0.200 A 
ATOM     11  O   UNL     1       0.931   2.555 -21.799  0.00  0.00    -0.286 OA
ENDROOT
BRANCH   1  15
ATOM     12  C   UNL     1       5.050   3.242 -23.483  0.00  0.00    +0.120 A 
ATOM     13  C   UNL     1       4.322   2.259 -23.922  0.00  0.00    +0.046 A 
ATOM     14  C   UNL     1       3.032   2.394 -24.011  0.00  0.00    +0.012 A 
ATOM     15  C   UNL     1       2.470   3.513 -23.663  0.00  0.00    -0.011 A 
ATOM     16  C   UNL     1       3.198   4.497 -23.224  0.00  0.00    +0.012 A 
ATOM     17  C   UNL     1       4.488   4.362 -23.135  0.00  0.00    +0.046 A 
BRANCH  12  19
ATOM     18  C   UNL     1       7.011   3.825 -22.543  0.00  0.00    +0.277 C 
ATOM     19  O   UNL     1       6.339   3.107 -23.394  0.00  0.00    -0.495 OA
ENDBRANCH  12  19
ENDBRANCH   1  15
BRANCH   7  20
ATOM     20  O   UNL     1      -3.708   2.483 -21.132  0.00  0.00    -0.503 OA
ATOM     21  H   UNL     1      -3.678   2.844 -20.269  0.00  0.00    +0.292 HD
ENDBRANCH   7  20
BRANCH   6  22
ATOM     22  O   UNL     1      -4.749   3.713 -23.172  0.00  0.00    -0.503 OA
ATOM     23  H   UNL     1      -5.180   4.401 -22.706  0.00  0.00    +0.292 HD
ENDBRANCH   6  22
TORSDOF 4
ENDMDL
MODEL 9
REMARK VINA RESULT:    -7.406      2.340      4.327
REMARK INTER + INTRA:          -8.899
REMARK INTER:                  -8.680
REMARK INTRA:                  -0.219
REMARK UNBOUND:                -0.195
REMARK  Name = ZINC000006484559
REMARK  5 active torsions:
REMARK  status: ('A' for Active; 'I' for Inactive)
REMARK    1  A    between atoms: C_1  and  O_2
REMARK    2  A    between atoms: O_2  and  C_3
REMARK    3  A    between atoms: C_6  and  C_7
REMARK    4  A    between atoms: C_12  and  O_13
REMARK    5  A    between atoms: C_14  and  O_15
REMARK                            x       y       z     vdW  Elec       q    Type
REMARK                         _______ _______ _______ _____ _____    ______ ____
ROOT
ATOM      1  C   UNL     1       2.976   3.396 -23.746  0.00  0.00    +0.064 A 
ATOM      2  C   UNL     1       3.670   2.354 -24.096  0.00  0.00    +0.208 A 
ATOM      3  O   UNL     1       4.958   2.343 -23.925  0.00  0.00    -0.462 OA
ATOM      4  C   UNL     1       5.553   3.374 -23.403  0.00  0.00    +0.142 A 
ATOM      5  C   UNL     1       6.842   3.363 -23.232  0.00  0.00    +0.096 A 
ATOM      6  C   UNL     1       7.436   4.395 -22.710  0.00  0.00    +0.162 A 
ATOM      7  C   UNL     1       6.743   5.437 -22.360  0.00  0.00    +0.159 A 
ATOM      8  C   UNL     1       5.455   5.448 -22.531  0.00  0.00    +0.064 A 
ATOM      9  C   UNL     1       4.860   4.416 -23.053  0.00  0.00    +0.068 A 
ATOM     10  C   UNL     1       3.571   4.427 -23.224  0.00  0.00    +0.200 A 
ATOM     11  O   UNL     1       2.877   5.469 -22.873  0.00  0.00    -0.286 OA
ENDROOT
BRANCH   1  15
ATOM     12  C   UNL     1      -0.890   3.432 -24.260  0.00  0.00    +0.120 A 
ATOM     13  C   UNL     1      -0.386   2.958 -23.160  0.00  0.00    +0.046 A 
ATOM     14  C   UNL     1       0.903   2.946 -22.988  0.00  0.00    +0.012 A 
ATOM     15  C   UNL     1       1.687   3.407 -23.917  0.00  0.00    -0.011 A 
ATOM     16  C   UNL     1       1.182   3.881 -25.018  0.00  0.00    +0.012 A 
ATOM     17  C   UNL     1      -0.106   3.893 -25.189  0.00  0.00    +0.046 A 
BRANCH  12  19
ATOM     18  C   UNL     1      -2.972   3.333 -23.407  0.00  0.00    +0.277 C 
ATOM     19  O   UNL     1      -2.178   3.444 -24.432  0.00  0.00    -0.495 OA
ENDBRANCH  12  19
ENDBRANCH   1  15
BRANCH   7  20
ATOM     20  O   UNL     1       7.339   6.468 -21.838  0.00  0.00    -0.503 OA
ATOM     21  H   UNL     1       7.355   6.578 -20.908  0.00  0.00    +0.292 HD
ENDBRANCH   7  20
BRANCH   6  22
ATOM     22  O   UNL     1       8.726   4.384 -22.539  0.00  0.00    -0.503 OA
ATOM     23  H   UNL     1       9.122   4.982 -21.936  0.00  0.00    +0.292 HD
ENDBRANCH   6  22
TORSDOF 4
ENDMDL
