MODEL 1
REMARK VINA RESULT:    -9.370      0.000      0.000
REMARK INTER + INTRA:          -9.946
REMARK INTER:                  -9.816
REMARK INTRA:                  -0.131
REMARK UNBOUND:                -0.028
REMARK  Name = ZINC000004098812
REMARK  5 active torsions:
REMARK  status: ('A' for Active; 'I' for Inactive)
REMARK    1  A    between atoms: C_1  and  O_2
REMARK    2  A    between atoms: O_2  and  C_3
REMARK    3  A    between atoms: N_17  and  C_18
REMARK    4  A    between atoms: C_21  and  C_22
REMARK    5  A    between atoms: C_21  and  C_23
REMARK                            x       y       z     vdW  Elec       q    Type
REMARK                         _______ _______ _______ _____ _____    ______ ____
ROOT
ATOM      1  C   UNL     1      -1.857   3.365 -25.076  0.00  0.00    +0.136 A 
ATOM      2  C   UNL     1      -3.065   3.406 -24.595  0.00  0.00    +0.092 A 
ATOM      3  C   UNL     1      -3.283   3.073 -23.357  0.00  0.00    +0.134 A 
ATOM      4  C   UNL     1      -2.294   2.699 -22.601  0.00  0.00    +0.041 A 
ATOM      5  C   UNL     1      -2.512   2.365 -21.363  0.00  0.00    +0.013 C 
ATOM      6  C   UNL     1      -3.718   2.406 -20.882  0.00  0.00    +0.020 C 
ATOM      7  C   UNL     1      -4.707   2.781 -21.639  0.00  0.00    +0.124 C 
ATOM      8  C   UNL     1      -5.918   3.075 -22.009  0.00  0.00    +0.060 C 
ATOM      9  C   UNL     1      -5.346   2.550 -20.530  0.00  0.00    +0.060 C 
ATOM     10  C   UNL     1      -1.086   2.657 -23.083  0.00  0.00    +0.067 A 
ATOM     11  N   UNL     1      -0.098   2.283 -22.326  0.00  0.00    -0.342 N 
ATOM     12  C   UNL     1      -0.316   1.949 -21.089  0.00  0.00    +0.149 C 
ATOM     13  C   UNL     1       1.109   2.241 -22.808  0.00  0.00    +0.053 A 
ATOM     14  C   UNL     1       2.098   1.867 -22.051  0.00  0.00    +0.026 A 
ATOM     15  C   UNL     1       3.305   1.826 -22.533  0.00  0.00    +0.002 A 
ATOM     16  C   UNL     1       3.523   2.159 -23.771  0.00  0.00    +0.001 A 
ATOM     17  C   UNL     1       2.534   2.533 -24.526  0.00  0.00    +0.014 A 
ATOM     18  C   UNL     1       1.327   2.575 -24.045  0.00  0.00    +0.046 A 
ATOM     19  C   UNL     1       0.338   2.949 -24.801  0.00  0.00    +0.201 A 
ATOM     20  O   UNL     1       0.556   3.283 -26.039  0.00  0.00    -0.286 OA
ATOM     21  O   UNL     1      -4.489   3.114 -22.875  0.00  0.00    -0.481 OA
ATOM     22  C   UNL     1      -0.869   2.990 -24.319  0.00  0.00    +0.088 A 
ENDROOT
BRANCH   1  24
ATOM     23  C   UNL     1      -2.609   3.659 -27.178  0.00  0.00    +0.277 C 
ATOM     24  O   UNL     1      -1.639   3.698 -26.313  0.00  0.00    -0.494 OA
ENDBRANCH   1  24
TORSDOF 1
ENDMDL
MODEL 2
REMARK VINA RESULT:    -9.154      1.043      5.477
REMARK INTER + INTRA:          -9.718
REMARK INTER:                 -10.121
REMARK INTRA:                   0.403
REMARK UNBOUND:                -0.028
REMARK  Name = ZINC000004098812
REMARK  5 active torsions:
REMARK  status: ('A' for Active; 'I' for Inactive)
REMARK    1  A    between atoms: C_1  and  O_2
REMARK    2  A    between atoms: O_2  and  C_3
REMARK    3  A    between atoms: N_17  and  C_18
REMARK    4  A    between atoms: C_21  and  C_22
REMARK    5  A    between atoms: C_21  and  C_23
REMARK                            x       y       z     vdW  Elec       q    Type
REMARK                         _______ _______ _______ _____ _____    ______ ____
ROOT
ATOM      1  C   UNL     1      -1.946   3.650 -25.394  0.00  0.00    +0.136 A 
ATOM      2  C   UNL     1      -0.669   3.468 -25.562  0.00  0.00    +0.092 A 
ATOM      3  C   UNL     1       0.047   2.965 -24.601  0.00  0.00    +0.134 A 
ATOM      4  C   UNL     1      -0.512   2.644 -23.472  0.00  0.00    +0.041 A 
ATOM      5  C   UNL     1       0.204   2.141 -22.511  0.00  0.00    +0.013 C 
ATOM      6  C   UNL     1       1.480   1.959 -22.679  0.00  0.00    +0.020 C 
ATOM      7  C   UNL     1       2.039   2.280 -23.807  0.00  0.00    +0.124 C 
ATOM      8  C   UNL     1       2.959   2.446 -24.711  0.00  0.00    +0.060 C 
ATOM      9  C   UNL     1       3.076   1.834 -23.160  0.00  0.00    +0.060 C 
ATOM     10  C   UNL     1      -1.789   2.826 -23.305  0.00  0.00    +0.067 A 
ATOM     11  N   UNL     1      -2.349   2.505 -22.177  0.00  0.00    -0.342 N 
ATOM     12  C   UNL     1      -1.632   2.002 -21.215  0.00  0.00    +0.149 C 
ATOM     13  C   UNL     1      -3.625   2.687 -22.009  0.00  0.00    +0.053 A 
ATOM     14  C   UNL     1      -4.185   2.366 -20.880  0.00  0.00    +0.026 A 
ATOM     15  C   UNL     1      -5.461   2.548 -20.713  0.00  0.00    +0.002 A 
ATOM     16  C   UNL     1      -6.177   3.051 -21.674  0.00  0.00    +0.001 A 
ATOM     17  C   UNL     1      -5.618   3.372 -22.802  0.00  0.00    +0.014 A 
ATOM     18  C   UNL     1      -4.342   3.190 -22.970  0.00  0.00    +0.046 A 
ATOM     19  C   UNL     1      -3.782   3.511 -24.099  0.00  0.00    +0.201 A 
ATOM     20  O   UNL     1      -4.498   4.014 -25.060  0.00  0.00    -0.286 OA
ATOM     21  O   UNL     1       1.323   2.782 -24.768  0.00  0.00    -0.481 OA
ATOM     22  C   UNL     1      -2.505   3.329 -24.266  0.00  0.00    +0.088 A 
ENDROOT
BRANCH   1  24
ATOM     23  C   UNL     1      -2.914   3.446 -27.417  0.00  0.00    +0.277 C 
ATOM     24  O   UNL     1      -2.662   4.153 -26.355  0.00  0.00    -0.494 OA
ENDBRANCH   1  24
TORSDOF 1
ENDMDL
MODEL 3
REMARK VINA RESULT:    -8.876      1.383      2.248
REMARK INTER + INTRA:          -9.423
REMARK INTER:                  -9.495
REMARK INTRA:                   0.072
REMARK UNBOUND:                -0.028
REMARK  Name = ZINC000004098812
REMARK  5 active torsions:
REMARK  status: ('A' for Active; 'I' for Inactive)
REMARK    1  A    between atoms: C_1  and  O_2
REMARK    2  A    between atoms: O_2  and  C_3
REMARK    3  A    between atoms: N_17  and  C_18
REMARK    4  A    between atoms: C_21  and  C_22
REMARK    5  A    between atoms: C_21  and  C_23
REMARK                            x       y       z     vdW  Elec       q    Type
REMARK                         _______ _______ _______ _____ _____    ______ ____
ROOT
ATOM      1  C   UNL     1       0.570   2.958 -24.627  0.00  0.00    +0.136 A 
ATOM      2  C   UNL     1      -0.698   3.230 -24.536  0.00  0.00    +0.092 A 
ATOM      3  C   UNL     1      -1.343   2.959 -23.440  0.00  0.00    +0.134 A 
ATOM      4  C   UNL     1      -0.721   2.416 -22.437  0.00  0.00    +0.041 A 
ATOM      5  C   UNL     1      -1.366   2.144 -21.341  0.00  0.00    +0.013 C 
ATOM      6  C   UNL     1      -2.633   2.417 -21.249  0.00  0.00    +0.020 C 
ATOM      7  C   UNL     1      -3.255   2.960 -22.253  0.00  0.00    +0.124 C 
ATOM      8  C   UNL     1      -4.219   3.472 -22.960  0.00  0.00    +0.060 C 
ATOM      9  C   UNL     1      -4.236   2.867 -21.403  0.00  0.00    +0.060 C 
ATOM     10  C   UNL     1       0.548   2.143 -22.529  0.00  0.00    +0.067 A 
ATOM     11  N   UNL     1       1.170   1.599 -21.525  0.00  0.00    -0.342 N 
ATOM     12  C   UNL     1       0.525   1.328 -20.430  0.00  0.00    +0.149 C 
ATOM     13  C   UNL     1       2.437   1.327 -21.617  0.00  0.00    +0.053 A 
ATOM     14  C   UNL     1       3.060   0.783 -20.613  0.00  0.00    +0.026 A 
ATOM     15  C   UNL     1       4.328   0.511 -20.706  0.00  0.00    +0.002 A 
ATOM     16  C   UNL     1       4.973   0.782 -21.802  0.00  0.00    +0.001 A 
ATOM     17  C   UNL     1       4.351   1.325 -22.805  0.00  0.00    +0.014 A 
ATOM     18  C   UNL     1       3.083   1.598 -22.713  0.00  0.00    +0.046 A 
ATOM     19  C   UNL     1       2.460   2.142 -23.717  0.00  0.00    +0.201 A 
ATOM     20  O   UNL     1       3.105   2.413 -24.812  0.00  0.00    -0.286 OA
ATOM     21  O   UNL     1      -2.611   3.231 -23.347  0.00  0.00    -0.481 OA
ATOM     22  C   UNL     1       1.193   2.414 -23.624  0.00  0.00    +0.088 A 
ENDROOT
BRANCH   1  24
ATOM     23  C   UNL     1       1.184   4.431 -26.216  0.00  0.00    +0.277 C 
ATOM     24  O   UNL     1       1.216   3.229 -25.723  0.00  0.00    -0.494 OA
ENDBRANCH   1  24
TORSDOF 1
ENDMDL
MODEL 4
REMARK VINA RESULT:    -8.776      1.458      5.317
REMARK INTER + INTRA:          -9.318
REMARK INTER:                  -9.218
REMARK INTRA:                  -0.100
REMARK UNBOUND:                -0.028
REMARK  Name = ZINC000004098812
REMARK  5 active torsions:
REMARK  status: ('A' for Active; 'I' for Inactive)
REMARK    1  A    between atoms: C_1  and  O_2
REMARK    2  A    between atoms: O_2  and  C_3
REMARK    3  A    between atoms: N_17  and  C_18
REMARK    4  A    between atoms: C_21  and  C_22
REMARK    5  A    between atoms: C_21  and  C_23
REMARK                            x       y       z     vdW  Elec       q    Type
REMARK                         _______ _______ _______ _____ _____    ______ ____
ROOT
ATOM      1  C   UNL     1       0.004   3.198 -24.579  0.00  0.00    +0.136 A 
ATOM      2  C   UNL     1       1.110   2.797 -24.025  0.00  0.00    +0.092 A 
ATOM      3  C   UNL     1       1.099   2.339 -22.809  0.00  0.00    +0.134 A 
ATOM      4  C   UNL     1      -0.018   2.282 -22.145  0.00  0.00    +0.041 A 
ATOM      5  C   UNL     1      -0.029   1.824 -20.929  0.00  0.00    +0.013 C 
ATOM      6  C   UNL     1       1.076   1.423 -20.375  0.00  0.00    +0.020 C 
ATOM      7  C   UNL     1       2.192   1.480 -21.038  0.00  0.00    +0.124 C 
ATOM      8  C   UNL     1       3.458   1.362 -21.311  0.00  0.00    +0.060 C 
ATOM      9  C   UNL     1       2.621   0.981 -19.916  0.00  0.00    +0.060 C 
ATOM     10  C   UNL     1      -1.124   2.684 -22.700  0.00  0.00    +0.067 A 
ATOM     11  N   UNL     1      -2.240   2.628 -22.037  0.00  0.00    -0.342 N 
ATOM     12  C   UNL     1      -2.252   2.170 -20.820  0.00  0.00    +0.149 C 
ATOM     13  C   UNL     1      -3.346   3.029 -22.590  0.00  0.00    +0.053 A 
ATOM     14  C   UNL     1      -4.463   2.973 -21.927  0.00  0.00    +0.026 A 
ATOM     15  C   UNL     1      -5.568   3.375 -22.482  0.00  0.00    +0.002 A 
ATOM     16  C   UNL     1      -5.557   3.833 -23.698  0.00  0.00    +0.001 A 
ATOM     17  C   UNL     1      -4.440   3.889 -24.360  0.00  0.00    +0.014 A 
ATOM     18  C   UNL     1      -3.335   3.487 -23.807  0.00  0.00    +0.046 A 
ATOM     19  C   UNL     1      -2.217   3.544 -24.470  0.00  0.00    +0.201 A 
ATOM     20  O   UNL     1      -2.206   4.002 -25.687  0.00  0.00    -0.286 OA
ATOM     21  O   UNL     1       2.204   1.937 -22.254  0.00  0.00    -0.481 OA
ATOM     22  C   UNL     1      -1.112   3.142 -23.916  0.00  0.00    +0.088 A 
ENDROOT
BRANCH   1  24
ATOM     23  C   UNL     1       1.053   4.305 -26.236  0.00  0.00    +0.277 C 
ATOM     24  O   UNL     1       0.016   3.656 -25.795  0.00  0.00    -0.494 OA
ENDBRANCH   1  24
TORSDOF 1
ENDMDL
MODEL 5
REMARK VINA RESULT:    -8.152      1.652      3.850
REMARK INTER + INTRA:          -8.656
REMARK INTER:                  -8.534
REMARK INTRA:                  -0.123
REMARK UNBOUND:                -0.028
REMARK  Name = ZINC000004098812
REMARK  5 active torsions:
REMARK  status: ('A' for Active; 'I' for Inactive)
REMARK    1  A    between atoms: C_1  and  O_2
REMARK    2  A    between atoms: O_2  and  C_3
REMARK    3  A    between atoms: N_17  and  C_18
REMARK    4  A    between atoms: C_21  and  C_22
REMARK    5  A    between atoms: C_21  and  C_23
REMARK                            x       y       z     vdW  Elec       q    Type
REMARK                         _______ _______ _______ _____ _____    ______ ____
ROOT
ATOM      1  C   UNL     1      -1.947   2.448 -22.083  0.00  0.00    +0.136 A 
ATOM      2  C   UNL     1      -2.934   2.739 -22.877  0.00  0.00    +0.092 A 
ATOM      3  C   UNL     1      -2.702   3.015 -24.126  0.00  0.00    +0.134 A 
ATOM      4  C   UNL     1      -1.484   3.002 -24.581  0.00  0.00    +0.041 A 
ATOM      5  C   UNL     1      -1.253   3.278 -25.829  0.00  0.00    +0.013 C 
ATOM      6  C   UNL     1      -2.239   3.569 -26.624  0.00  0.00    +0.020 C 
ATOM      7  C   UNL     1      -3.457   3.583 -26.170  0.00  0.00    +0.124 C 
ATOM      8  C   UNL     1      -4.751   3.708 -26.148  0.00  0.00    +0.060 C 
ATOM      9  C   UNL     1      -3.675   3.903 -27.412  0.00  0.00    +0.060 C 
ATOM     10  C   UNL     1      -0.497   2.711 -23.785  0.00  0.00    +0.067 A 
ATOM     11  N   UNL     1       0.721   2.697 -24.239  0.00  0.00    -0.342 N 
ATOM     12  C   UNL     1       0.952   2.973 -25.488  0.00  0.00    +0.149 C 
ATOM     13  C   UNL     1       1.707   2.406 -23.444  0.00  0.00    +0.053 A 
ATOM     14  C   UNL     1       2.926   2.392 -23.898  0.00  0.00    +0.026 A 
ATOM     15  C   UNL     1       3.912   2.101 -23.102  0.00  0.00    +0.002 A 
ATOM     16  C   UNL     1       3.680   1.825 -21.854  0.00  0.00    +0.001 A 
ATOM     17  C   UNL     1       2.462   1.839 -21.400  0.00  0.00    +0.014 A 
ATOM     18  C   UNL     1       1.476   2.129 -22.195  0.00  0.00    +0.046 A 
ATOM     19  C   UNL     1       0.257   2.143 -21.741  0.00  0.00    +0.201 A 
ATOM     20  O   UNL     1       0.026   1.867 -20.492  0.00  0.00    -0.286 OA
ATOM     21  O   UNL     1      -3.688   3.306 -24.922  0.00  0.00    -0.481 OA
ATOM     22  C   UNL     1      -0.729   2.434 -22.537  0.00  0.00    +0.088 A 
ENDROOT
BRANCH   1  24
ATOM     23  C   UNL     1      -3.242   2.639 -20.250  0.00  0.00    +0.277 C 
ATOM     24  O   UNL     1      -2.178   2.171 -20.834  0.00  0.00    -0.494 OA
ENDBRANCH   1  24
TORSDOF 1
ENDMDL
MODEL 6
REMARK VINA RESULT:    -7.843      3.636      7.920
REMARK INTER + INTRA:          -8.330
REMARK INTER:                  -8.199
REMARK INTRA:                  -0.131
REMARK UNBOUND:                -0.028
REMARK  Name = ZINC000004098812
REMARK  5 active torsions:
REMARK  status: ('A' for Active; 'I' for Inactive)
REMARK    1  A    between atoms: C_1  and  O_2
REMARK    2  A    between atoms: O_2  and  C_3
REMARK    3  A    between atoms: N_17  and  C_18
REMARK    4  A    between atoms: C_21  and  C_22
REMARK    5  A    between atoms: C_21  and  C_23
REMARK                            x       y       z     vdW  Elec       q    Type
REMARK                         _______ _______ _______ _____ _____    ______ ____
ROOT
ATOM      1  C   UNL     1       4.505   1.476 -21.748  0.00  0.00    +0.136 A 
ATOM      2  C   UNL     1       5.672   2.051 -21.755  0.00  0.00    +0.092 A 
ATOM      3  C   UNL     1       5.786   3.283 -22.154  0.00  0.00    +0.134 A 
ATOM      4  C   UNL     1       4.735   3.940 -22.544  0.00  0.00    +0.041 A 
ATOM      5  C   UNL     1       4.849   5.173 -22.943  0.00  0.00    +0.013 C 
ATOM      6  C   UNL     1       6.014   5.747 -22.950  0.00  0.00    +0.020 C 
ATOM      7  C   UNL     1       7.066   5.090 -22.560  0.00  0.00    +0.124 C 
ATOM      8  C   UNL     1       8.307   4.830 -22.273  0.00  0.00    +0.060 C 
ATOM      9  C   UNL     1       7.611   6.232 -22.858  0.00  0.00    +0.060 C 
ATOM     10  C   UNL     1       3.568   3.365 -22.537  0.00  0.00    +0.067 A 
ATOM     11  N   UNL     1       2.517   4.022 -22.927  0.00  0.00    -0.342 N 
ATOM     12  C   UNL     1       2.631   5.254 -23.326  0.00  0.00    +0.149 C 
ATOM     13  C   UNL     1       1.351   3.447 -22.920  0.00  0.00    +0.053 A 
ATOM     14  C   UNL     1       0.299   4.105 -23.310  0.00  0.00    +0.026 A 
ATOM     15  C   UNL     1      -0.866   3.529 -23.303  0.00  0.00    +0.002 A 
ATOM     16  C   UNL     1      -0.981   2.297 -22.904  0.00  0.00    +0.001 A 
ATOM     17  C   UNL     1       0.071   1.640 -22.514  0.00  0.00    +0.014 A 
ATOM     18  C   UNL     1       1.236   2.215 -22.521  0.00  0.00    +0.046 A 
ATOM     19  C   UNL     1       2.288   1.558 -22.131  0.00  0.00    +0.201 A 
ATOM     20  O   UNL     1       2.174   0.326 -21.732  0.00  0.00    -0.286 OA
ATOM     21  O   UNL     1       6.951   3.859 -22.162  0.00  0.00    -0.481 OA
ATOM     22  C   UNL     1       3.454   2.133 -22.139  0.00  0.00    +0.088 A 
ENDROOT
BRANCH   1  24
ATOM     23  C   UNL     1       5.302  -0.279 -20.583  0.00  0.00    +0.277 C 
ATOM     24  O   UNL     1       4.391   0.244 -21.349  0.00  0.00    -0.494 OA
ENDBRANCH   1  24
TORSDOF 1
ENDMDL
MODEL 7
REMARK VINA RESULT:    -7.496      2.542      4.147
REMARK INTER + INTRA:          -7.963
REMARK INTER:                  -8.309
REMARK INTRA:                   0.347
REMARK UNBOUND:                -0.028
REMARK  Name = ZINC000004098812
REMARK  5 active torsions:
REMARK  status: ('A' for Active; 'I' for Inactive)
REMARK    1  A    between atoms: C_1  and  O_2
REMARK    2  A    between atoms: O_2  and  C_3
REMARK    3  A    between atoms: N_17  and  C_18
REMARK    4  A    between atoms: C_21  and  C_22
REMARK    5  A    between atoms: C_21  and  C_23
REMARK                            x       y       z     vdW  Elec       q    Type
REMARK                         _______ _______ _______ _____ _____    ______ ____
ROOT
ATOM      1  C   UNL     1       2.429   4.952 -23.217  0.00  0.00    +0.136 A 
ATOM      2  C   UNL     1       1.231   5.221 -23.644  0.00  0.00    +0.092 A 
ATOM      3  C   UNL     1       0.292   4.327 -23.548  0.00  0.00    +0.134 A 
ATOM      4  C   UNL     1       0.551   3.164 -23.027  0.00  0.00    +0.041 A 
ATOM      5  C   UNL     1      -0.388   2.270 -22.932  0.00  0.00    +0.013 C 
ATOM      6  C   UNL     1      -1.586   2.539 -23.358  0.00  0.00    +0.020 C 
ATOM      7  C   UNL     1      -1.845   3.701 -23.879  0.00  0.00    +0.124 C 
ATOM      8  C   UNL     1      -2.512   4.669 -24.434  0.00  0.00    +0.060 C 
ATOM      9  C   UNL     1      -3.016   3.143 -23.977  0.00  0.00    +0.060 C 
ATOM     10  C   UNL     1       1.750   2.896 -22.601  0.00  0.00    +0.067 A 
ATOM     11  N   UNL     1       2.009   1.734 -22.080  0.00  0.00    -0.342 N 
ATOM     12  C   UNL     1       1.070   0.840 -21.984  0.00  0.00    +0.149 C 
ATOM     13  C   UNL     1       3.207   1.465 -21.654  0.00  0.00    +0.053 A 
ATOM     14  C   UNL     1       3.467   0.302 -21.132  0.00  0.00    +0.026 A 
ATOM     15  C   UNL     1       4.666   0.035 -20.706  0.00  0.00    +0.002 A 
ATOM     16  C   UNL     1       5.605   0.929 -20.802  0.00  0.00    +0.001 A 
ATOM     17  C   UNL     1       5.345   2.090 -21.323  0.00  0.00    +0.014 A 
ATOM     18  C   UNL     1       4.147   2.359 -21.749  0.00  0.00    +0.046 A 
ATOM     19  C   UNL     1       3.887   3.522 -22.270  0.00  0.00    +0.201 A 
ATOM     20  O   UNL     1       4.826   4.416 -22.366  0.00  0.00    -0.286 OA
ATOM     21  O   UNL     1      -0.907   4.594 -23.974  0.00  0.00    -0.481 OA
ATOM     22  C   UNL     1       2.688   3.789 -22.696  0.00  0.00    +0.088 A 
ENDROOT
BRANCH   1  24
ATOM     23  C   UNL     1       3.323   6.917 -22.579  0.00  0.00    +0.277 C 
ATOM     24  O   UNL     1       3.368   5.846 -23.313  0.00  0.00    -0.494 OA
ENDBRANCH   1  24
TORSDOF 1
ENDMDL
MODEL 8
REMARK VINA RESULT:    -7.321      2.386      6.165
REMARK INTER + INTRA:          -7.777
REMARK INTER:                  -7.749
REMARK INTRA:                  -0.028
REMARK UNBOUND:                -0.028
REMARK  Name = ZINC000004098812
REMARK  5 active torsions:
REMARK  status: ('A' for Active; 'I' for Inactive)
REMARK    1  A    between atoms: C_1  and  O_2
REMARK    2  A    between atoms: O_2  and  C_3
REMARK    3  A    between atoms: N_17  and  C_18
REMARK    4  A    between atoms: C_21  and  C_22
REMARK    5  A    between atoms: C_21  and  C_23
REMARK                            x       y       z     vdW  Elec       q    Type
REMARK                         _______ _______ _______ _____ _____    ______ ____
ROOT
ATOM      1  C   UNL     1       2.367   4.658 -23.068  0.00  0.00    +0.136 A 
ATOM      2  C   UNL     1       3.466   4.065 -22.705  0.00  0.00    +0.092 A 
ATOM      3  C   UNL     1       3.426   2.852 -22.240  0.00  0.00    +0.134 A 
ATOM      4  C   UNL     1       2.288   2.232 -22.137  0.00  0.00    +0.041 A 
ATOM      5  C   UNL     1       2.248   1.019 -21.672  0.00  0.00    +0.013 C 
ATOM      6  C   UNL     1       3.346   0.426 -21.309  0.00  0.00    +0.020 C 
ATOM      7  C   UNL     1       4.484   1.046 -21.411  0.00  0.00    +0.124 C 
ATOM      8  C   UNL     1       5.763   1.271 -21.344  0.00  0.00    +0.060 C 
ATOM      9  C   UNL     1       4.889  -0.090 -20.923  0.00  0.00    +0.060 C 
ATOM     10  C   UNL     1       1.189   2.826 -22.501  0.00  0.00    +0.067 A 
ATOM     11  N   UNL     1       0.052   2.206 -22.398  0.00  0.00    -0.342 N 
ATOM     12  C   UNL     1       0.012   0.992 -21.933  0.00  0.00    +0.149 C 
ATOM     13  C   UNL     1      -1.046   2.799 -22.761  0.00  0.00    +0.053 A 
ATOM     14  C   UNL     1      -2.185   2.179 -22.659  0.00  0.00    +0.026 A 
ATOM     15  C   UNL     1      -3.283   2.773 -23.022  0.00  0.00    +0.002 A 
ATOM     16  C   UNL     1      -3.243   3.986 -23.487  0.00  0.00    +0.001 A 
ATOM     17  C   UNL     1      -2.105   4.605 -23.589  0.00  0.00    +0.014 A 
ATOM     18  C   UNL     1      -1.007   4.012 -23.227  0.00  0.00    +0.046 A 
ATOM     19  C   UNL     1       0.132   4.632 -23.329  0.00  0.00    +0.201 A 
ATOM     20  O   UNL     1       0.172   5.845 -23.794  0.00  0.00    -0.286 OA
ATOM     21  O   UNL     1       4.524   2.258 -21.876  0.00  0.00    -0.481 OA
ATOM     22  C   UNL     1       1.229   4.038 -22.966  0.00  0.00    +0.088 A 
ENDROOT
BRANCH   1  24
ATOM     23  C   UNL     1       3.130   6.773 -22.937  0.00  0.00    +0.277 C 
ATOM     24  O   UNL     1       2.407   5.872 -23.533  0.00  0.00    -0.494 OA
ENDBRANCH   1  24
TORSDOF 1
ENDMDL
MODEL 9
REMARK VINA RESULT:    -7.243      3.395      5.542
REMARK INTER + INTRA:          -7.695
REMARK INTER:                  -8.464
REMARK INTRA:                   0.770
REMARK UNBOUND:                -0.028
REMARK  Name = ZINC000004098812
REMARK  5 active torsions:
REMARK  status: ('A' for Active; 'I' for Inactive)
REMARK    1  A    between atoms: C_1  and  O_2
REMARK    2  A    between atoms: O_2  and  C_3
REMARK    3  A    between atoms: N_17  and  C_18
REMARK    4  A    between atoms: C_21  and  C_22
REMARK    5  A    between atoms: C_21  and  C_23
REMARK                            x       y       z     vdW  Elec       q    Type
REMARK                         _______ _______ _______ _____ _____    ______ ____
ROOT
ATOM      1  C   UNL     1       3.118   1.549 -22.345  0.00  0.00    +0.136 A 
ATOM      2  C   UNL     1       1.836   1.535 -22.566  0.00  0.00    +0.092 A 
ATOM      3  C   UNL     1       1.220   2.636 -22.881  0.00  0.00    +0.134 A 
ATOM      4  C   UNL     1       1.884   3.749 -22.975  0.00  0.00    +0.041 A 
ATOM      5  C   UNL     1       1.267   4.850 -23.290  0.00  0.00    +0.013 C 
ATOM      6  C   UNL     1      -0.014   4.837 -23.510  0.00  0.00    +0.020 C 
ATOM      7  C   UNL     1      -0.678   3.723 -23.416  0.00  0.00    +0.124 C 
ATOM      8  C   UNL     1      -1.677   2.892 -23.433  0.00  0.00    +0.060 C 
ATOM      9  C   UNL     1      -1.642   4.535 -23.736  0.00  0.00    +0.060 C 
ATOM     10  C   UNL     1       3.166   3.762 -22.754  0.00  0.00    +0.067 A 
ATOM     11  N   UNL     1       3.830   4.875 -22.849  0.00  0.00    -0.342 N 
ATOM     12  C   UNL     1       3.213   5.976 -23.164  0.00  0.00    +0.149 C 
ATOM     13  C   UNL     1       5.110   4.889 -22.628  0.00  0.00    +0.053 A 
ATOM     14  C   UNL     1       5.775   6.002 -22.723  0.00  0.00    +0.026 A 
ATOM     15  C   UNL     1       7.056   6.015 -22.502  0.00  0.00    +0.002 A 
ATOM     16  C   UNL     1       7.673   4.914 -22.188  0.00  0.00    +0.001 A 
ATOM     17  C   UNL     1       7.008   3.802 -22.093  0.00  0.00    +0.014 A 
ATOM     18  C   UNL     1       5.728   3.789 -22.314  0.00  0.00    +0.046 A 
ATOM     19  C   UNL     1       5.063   2.675 -22.219  0.00  0.00    +0.201 A 
ATOM     20  O   UNL     1       5.679   1.574 -21.905  0.00  0.00    -0.286 OA
ATOM     21  O   UNL     1      -0.062   2.624 -23.101  0.00  0.00    -0.481 OA
ATOM     22  C   UNL     1       3.782   2.662 -22.440  0.00  0.00    +0.088 A 
ENDROOT
BRANCH   1  24
ATOM     23  C   UNL     1       3.736   0.034 -20.799  0.00  0.00    +0.277 C 
ATOM     24  O   UNL     1       3.734   0.449 -22.031  0.00  0.00    -0.494 OA
ENDBRANCH   1  24
TORSDOF 1
ENDMDL
