MODEL 1
REMARK VINA RESULT:    -9.772      0.000      0.000
REMARK INTER + INTRA:         -16.560
REMARK INTER:                 -14.779
REMARK INTRA:                  -1.782
REMARK UNBOUND:                -0.791
REMARK  Name = CCCCCCCCCCCc1c(O)c(=O)c2sc3ccccc3[nH]c=2c1=O                         ZINC000100392834
REMARK  12 active torsions:
REMARK  status: ('A' for Active; 'I' for Inactive)
REMARK    1  A    between atoms: C_1  and  C_2
REMARK    2  A    between atoms: C_2  and  C_3
REMARK    3  A    between atoms: C_3  and  C_4
REMARK    4  A    between atoms: C_4  and  C_5
REMARK    5  A    between atoms: C_5  and  C_6
REMARK    6  A    between atoms: C_6  and  C_7
REMARK    7  A    between atoms: C_7  and  C_8
REMARK    8  A    between atoms: C_8  and  C_9
REMARK    9  A    between atoms: C_9  and  C_10
REMARK   10  A    between atoms: C_10  and  C_11
REMARK   11  A    between atoms: C_11  and  C_12
REMARK   12  A    between atoms: C_13  and  O_14
REMARK                            x       y       z     vdW  Elec       q    Type
REMARK                         _______ _______ _______ _____ _____    ______ ____
ROOT
ATOM      1  C   UNL     1       0.069   3.445 -23.488  0.00  0.00    +0.047 A 
ATOM      2  C   UNL     1       0.219   2.240 -23.025  0.00  0.00    +0.172 A 
ATOM      3  C   UNL     1       1.393   1.823 -22.655  0.00  0.00    +0.236 A 
ATOM      4  C   UNL     1       2.422   2.616 -22.749  0.00  0.00    +0.090 A 
ATOM      5  S   UNL     1       3.596   2.202 -22.380  0.00  0.00    -0.081 S 
ATOM      6  C   UNL     1       4.622   2.996 -22.475  0.00  0.00    +0.036 A 
ATOM      7  C   UNL     1       5.800   2.580 -22.104  0.00  0.00    +0.017 A 
ATOM      8  C   UNL     1       6.825   3.373 -22.199  0.00  0.00    +0.001 A 
ATOM      9  C   UNL     1       6.680   4.579 -22.663  0.00  0.00    +0.002 A 
ATOM     10  C   UNL     1       5.501   4.991 -23.032  0.00  0.00    +0.027 A 
ATOM     11  C   UNL     1       4.477   4.202 -22.938  0.00  0.00    +0.054 A 
ATOM     12  N   UNL     1       3.300   4.613 -23.307  0.00  0.00    -0.350 N 
ATOM     13  H   UNL     1       3.187   5.525 -23.658  0.00  0.00    +0.166 HD
ATOM     14  C   UNL     1       2.272   3.821 -23.213  0.00  0.00    +0.105 A 
ATOM     15  O   UNL     1       1.541   0.619 -22.192  0.00  0.00    -0.283 OA
ATOM     16  C   UNL     1       1.098   4.235 -23.582  0.00  0.00    +0.210 A 
ATOM     17  O   UNL     1       0.949   5.441 -24.046  0.00  0.00    -0.285 OA
ENDROOT
BRANCH   2  18
ATOM     18  O   UNL     1      -0.810   1.448 -22.931  0.00  0.00    -0.503 OA
ATOM     19  H   UNL     1      -1.640   1.714 -23.274  0.00  0.00    +0.292 HD
ENDBRANCH   2  18
BRANCH   1  20
ATOM     20  C   UNL     1      -1.106   3.858 -23.857  0.00  0.00    +0.043 C 
BRANCH  20  21
ATOM     21  C   UNL     1      -1.507   3.672 -25.079  0.00  0.00    +0.005 C 
BRANCH  21  22
ATOM     22  C   UNL     1      -2.670   3.140 -25.307  0.00  0.00    +0.000 C 
BRANCH  22  23
ATOM     23  C   UNL     1      -3.627   3.861 -25.810  0.00  0.00    +0.000 C 
BRANCH  23  24
ATOM     24  C   UNL     1      -4.798   3.873 -25.244  0.00  0.00    +0.000 C 
BRANCH  24  25
ATOM     25  C   UNL     1      -4.924   4.293 -24.020  0.00  0.00    +0.000 C 
BRANCH  25  26
ATOM     26  C   UNL     1      -5.568   3.572 -23.151  0.00  0.00    -0.000 C 
BRANCH  26  27
ATOM     27  C   UNL     1      -5.090   3.422 -21.950  0.00  0.00    -0.000 C 
BRANCH  27  28
ATOM     28  C   UNL     1      -4.072   2.637 -21.749  0.00  0.00    -0.000 C 
BRANCH  28  30
ATOM     29  C   UNL     1      -2.936   4.168 -20.551  0.00  0.00    +0.004 C 
ATOM     30  C   UNL     1      -3.202   2.926 -20.828  0.00  0.00    -0.003 C 
ENDBRANCH  28  30
ENDBRANCH  27  28
ENDBRANCH  26  27
ENDBRANCH  25  26
ENDBRANCH  24  25
ENDBRANCH  23  24
ENDBRANCH  22  23
ENDBRANCH  21  22
ENDBRANCH  20  21
ENDBRANCH   1  20
TORSDOF 11
ENDMDL
MODEL 2
REMARK VINA RESULT:    -9.364      1.453      3.433
REMARK INTER + INTRA:         -15.903
REMARK INTER:                 -14.162
REMARK INTRA:                  -1.741
REMARK UNBOUND:                -0.791
REMARK  Name = CCCCCCCCCCCc1c(O)c(=O)c2sc3ccccc3[nH]c=2c1=O                         ZINC000100392834
REMARK  12 active torsions:
REMARK  status: ('A' for Active; 'I' for Inactive)
REMARK    1  A    between atoms: C_1  and  C_2
REMARK    2  A    between atoms: C_2  and  C_3
REMARK    3  A    between atoms: C_3  and  C_4
REMARK    4  A    between atoms: C_4  and  C_5
REMARK    5  A    between atoms: C_5  and  C_6
REMARK    6  A    between atoms: C_6  and  C_7
REMARK    7  A    between atoms: C_7  and  C_8
REMARK    8  A    between atoms: C_8  and  C_9
REMARK    9  A    between atoms: C_9  and  C_10
REMARK   10  A    between atoms: C_10  and  C_11
REMARK   11  A    between atoms: C_11  and  C_12
REMARK   12  A    between atoms: C_13  and  O_14
REMARK                            x       y       z     vdW  Elec       q    Type
REMARK                         _______ _______ _______ _____ _____    ______ ____
ROOT
ATOM      1  C   UNL     1      -0.769   3.588 -22.492  0.00  0.00    +0.047 A 
ATOM      2  C   UNL     1      -0.217   4.591 -23.109  0.00  0.00    +0.172 A 
ATOM      3  C   UNL     1       1.064   4.601 -23.324  0.00  0.00    +0.236 A 
ATOM      4  C   UNL     1       1.798   3.603 -22.921  0.00  0.00    +0.090 A 
ATOM      5  S   UNL     1       3.079   3.612 -23.135  0.00  0.00    -0.081 S 
ATOM      6  C   UNL     1       3.809   2.614 -22.731  0.00  0.00    +0.036 A 
ATOM      7  C   UNL     1       5.094   2.623 -22.946  0.00  0.00    +0.017 A 
ATOM      8  C   UNL     1       5.825   1.627 -22.543  0.00  0.00    +0.001 A 
ATOM      9  C   UNL     1       5.277   0.621 -21.926  0.00  0.00    +0.002 A 
ATOM     10  C   UNL     1       3.993   0.616 -21.713  0.00  0.00    +0.027 A 
ATOM     11  C   UNL     1       3.262   1.609 -22.114  0.00  0.00    +0.054 A 
ATOM     12  N   UNL     1       1.980   1.604 -21.901  0.00  0.00    -0.350 N 
ATOM     13  H   UNL     1       1.564   0.845 -21.435  0.00  0.00    +0.166 HD
ATOM     14  C   UNL     1       1.247   2.600 -22.304  0.00  0.00    +0.105 A 
ATOM     15  O   UNL     1       1.613   5.604 -23.940  0.00  0.00    -0.283 OA
ATOM     16  C   UNL     1      -0.033   2.592 -22.090  0.00  0.00    +0.210 A 
ATOM     17  O   UNL     1      -0.584   1.588 -21.473  0.00  0.00    -0.285 OA
ENDROOT
BRANCH   2  18
ATOM     18  O   UNL     1      -0.952   5.587 -23.511  0.00  0.00    -0.503 OA
ATOM     19  H   UNL     1      -1.286   5.600 -24.386  0.00  0.00    +0.292 HD
ENDBRANCH   2  18
BRANCH   1  20
ATOM     20  C   UNL     1      -2.050   3.580 -22.278  0.00  0.00    +0.043 C 
BRANCH  20  21
ATOM     21  C   UNL     1      -2.534   4.137 -21.210  0.00  0.00    +0.005 C 
BRANCH  21  22
ATOM     22  C   UNL     1      -3.697   3.774 -20.758  0.00  0.00    +0.000 C 
BRANCH  22  23
ATOM     23  C   UNL     1      -4.236   2.665 -21.168  0.00  0.00    +0.000 C 
BRANCH  23  24
ATOM     24  C   UNL     1      -5.416   2.677 -21.715  0.00  0.00    +0.000 C 
BRANCH  24  25
ATOM     25  C   UNL     1      -5.732   3.618 -22.555  0.00  0.00    +0.000 C 
BRANCH  25  26
ATOM     26  C   UNL     1      -5.352   3.536 -23.795  0.00  0.00    -0.000 C 
BRANCH  26  27
ATOM     27  C   UNL     1      -5.008   4.611 -24.442  0.00  0.00    -0.000 C 
BRANCH  27  28
ATOM     28  C   UNL     1      -3.903   4.630 -25.128  0.00  0.00    -0.000 C 
BRANCH  28  30
ATOM     29  C   UNL     1      -2.265   3.350 -25.992  0.00  0.00    +0.004 C 
ATOM     30  C   UNL     1      -3.530   3.574 -25.788  0.00  0.00    -0.003 C 
ENDBRANCH  28  30
ENDBRANCH  27  28
ENDBRANCH  26  27
ENDBRANCH  25  26
ENDBRANCH  24  25
ENDBRANCH  23  24
ENDBRANCH  22  23
ENDBRANCH  21  22
ENDBRANCH  20  21
ENDBRANCH   1  20
TORSDOF 11
ENDMDL
MODEL 3
REMARK VINA RESULT:    -9.166      1.013      2.367
REMARK INTER + INTRA:         -15.583
REMARK INTER:                 -14.200
REMARK INTRA:                  -1.383
REMARK UNBOUND:                -0.791
REMARK  Name = CCCCCCCCCCCc1c(O)c(=O)c2sc3ccccc3[nH]c=2c1=O                         ZINC000100392834
REMARK  12 active torsions:
REMARK  status: ('A' for Active; 'I' for Inactive)
REMARK    1  A    between atoms: C_1  and  C_2
REMARK    2  A    between atoms: C_2  and  C_3
REMARK    3  A    between atoms: C_3  and  C_4
REMARK    4  A    between atoms: C_4  and  C_5
REMARK    5  A    between atoms: C_5  and  C_6
REMARK    6  A    between atoms: C_6  and  C_7
REMARK    7  A    between atoms: C_7  and  C_8
REMARK    8  A    between atoms: C_8  and  C_9
REMARK    9  A    between atoms: C_9  and  C_10
REMARK   10  A    between atoms: C_10  and  C_11
REMARK   11  A    between atoms: C_11  and  C_12
REMARK   12  A    between atoms: C_13  and  O_14
REMARK                            x       y       z     vdW  Elec       q    Type
REMARK                         _______ _______ _______ _____ _____    ______ ____
ROOT
ATOM      1  C   UNL     1       0.805   3.967 -23.629  0.00  0.00    +0.047 A 
ATOM      2  C   UNL     1       1.021   2.689 -23.739  0.00  0.00    +0.172 A 
ATOM      3  C   UNL     1       2.225   2.217 -23.613  0.00  0.00    +0.236 A 
ATOM      4  C   UNL     1       3.218   3.026 -23.375  0.00  0.00    +0.090 A 
ATOM      5  S   UNL     1       4.421   2.555 -23.248  0.00  0.00    -0.081 S 
ATOM      6  C   UNL     1       5.411   3.365 -23.010  0.00  0.00    +0.036 A 
ATOM      7  C   UNL     1       6.619   2.893 -22.883  0.00  0.00    +0.017 A 
ATOM      8  C   UNL     1       7.608   3.701 -22.646  0.00  0.00    +0.001 A 
ATOM      9  C   UNL     1       7.396   4.980 -22.535  0.00  0.00    +0.002 A 
ATOM     10  C   UNL     1       6.188   5.448 -22.663  0.00  0.00    +0.027 A 
ATOM     11  C   UNL     1       5.200   4.643 -22.900  0.00  0.00    +0.054 A 
ATOM     12  N   UNL     1       3.994   5.110 -23.028  0.00  0.00    -0.350 N 
ATOM     13  H   UNL     1       3.831   6.077 -22.944  0.00  0.00    +0.166 HD
ATOM     14  C   UNL     1       3.002   4.303 -23.265  0.00  0.00    +0.105 A 
ATOM     15  O   UNL     1       2.439   0.940 -23.723  0.00  0.00    -0.283 OA
ATOM     16  C   UNL     1       1.799   4.772 -23.392  0.00  0.00    +0.210 A 
ATOM     17  O   UNL     1       1.583   6.051 -23.282  0.00  0.00    -0.285 OA
ENDROOT
BRANCH   2  18
ATOM     18  O   UNL     1       0.028   1.882 -23.977  0.00  0.00    -0.503 OA
ATOM     19  H   UNL     1      -0.767   2.212 -24.346  0.00  0.00    +0.292 HD
ENDBRANCH   2  18
BRANCH   1  20
ATOM     20  C   UNL     1      -0.399   4.436 -23.757  0.00  0.00    +0.043 C 
BRANCH  20  21
ATOM     21  C   UNL     1      -1.074   4.789 -22.705  0.00  0.00    +0.005 C 
BRANCH  21  22
ATOM     22  C   UNL     1      -1.831   3.925 -22.098  0.00  0.00    +0.000 C 
BRANCH  22  23
ATOM     23  C   UNL     1      -2.578   4.300 -21.103  0.00  0.00    +0.000 C 
BRANCH  23  24
ATOM     24  C   UNL     1      -3.773   3.806 -20.964  0.00  0.00    +0.000 C 
BRANCH  24  25
ATOM     25  C   UNL     1      -4.241   2.979 -21.851  0.00  0.00    +0.000 C 
BRANCH  25  26
ATOM     26  C   UNL     1      -5.285   3.304 -22.554  0.00  0.00    -0.000 C 
BRANCH  26  27
ATOM     27  C   UNL     1      -5.167   4.137 -23.547  0.00  0.00    -0.000 C 
BRANCH  27  28
ATOM     28  C   UNL     1      -4.905   3.691 -24.740  0.00  0.00    -0.000 C 
BRANCH  28  30
ATOM     29  C   UNL     1      -3.032   3.259 -25.913  0.00  0.00    +0.004 C 
ATOM     30  C   UNL     1      -3.852   4.113 -25.374  0.00  0.00    -0.003 C 
ENDBRANCH  28  30
ENDBRANCH  27  28
ENDBRANCH  26  27
ENDBRANCH  25  26
ENDBRANCH  24  25
ENDBRANCH  23  24
ENDBRANCH  22  23
ENDBRANCH  21  22
ENDBRANCH  20  21
ENDBRANCH   1  20
TORSDOF 11
ENDMDL
MODEL 4
REMARK VINA RESULT:    -8.670      2.276      7.937
REMARK INTER + INTRA:         -14.783
REMARK INTER:                 -13.398
REMARK INTRA:                  -1.385
REMARK UNBOUND:                -0.791
REMARK  Name = CCCCCCCCCCCc1c(O)c(=O)c2sc3ccccc3[nH]c=2c1=O                         ZINC000100392834
REMARK  12 active torsions:
REMARK  status: ('A' for Active; 'I' for Inactive)
REMARK    1  A    between atoms: C_1  and  C_2
REMARK    2  A    between atoms: C_2  and  C_3
REMARK    3  A    between atoms: C_3  and  C_4
REMARK    4  A    between atoms: C_4  and  C_5
REMARK    5  A    between atoms: C_5  and  C_6
REMARK    6  A    between atoms: C_6  and  C_7
REMARK    7  A    between atoms: C_7  and  C_8
REMARK    8  A    between atoms: C_8  and  C_9
REMARK    9  A    between atoms: C_9  and  C_10
REMARK   10  A    between atoms: C_10  and  C_11
REMARK   11  A    between atoms: C_11  and  C_12
REMARK   12  A    between atoms: C_13  and  O_14
REMARK                            x       y       z     vdW  Elec       q    Type
REMARK                         _______ _______ _______ _____ _____    ______ ____
ROOT
ATOM      1  C   UNL     1       0.837   2.343 -23.083  0.00  0.00    +0.047 A 
ATOM      2  C   UNL     1       0.570   2.875 -24.239  0.00  0.00    +0.172 A 
ATOM      3  C   UNL     1      -0.646   3.226 -24.532  0.00  0.00    +0.236 A 
ATOM      4  C   UNL     1      -1.601   3.046 -23.665  0.00  0.00    +0.090 A 
ATOM      5  S   UNL     1      -2.816   3.397 -23.956  0.00  0.00    -0.081 S 
ATOM      6  C   UNL     1      -3.768   3.215 -23.088  0.00  0.00    +0.036 A 
ATOM      7  C   UNL     1      -4.988   3.567 -23.380  0.00  0.00    +0.017 A 
ATOM      8  C   UNL     1      -5.939   3.386 -22.513  0.00  0.00    +0.001 A 
ATOM      9  C   UNL     1      -5.677   2.855 -21.355  0.00  0.00    +0.002 A 
ATOM     10  C   UNL     1      -4.457   2.505 -21.067  0.00  0.00    +0.027 A 
ATOM     11  C   UNL     1      -3.506   2.684 -21.930  0.00  0.00    +0.054 A 
ATOM     12  N   UNL     1      -2.288   2.334 -21.642  0.00  0.00    -0.350 N 
ATOM     13  H   UNL     1      -2.088   1.932 -20.767  0.00  0.00    +0.166 HD
ATOM     14  C   UNL     1      -1.334   2.514 -22.509  0.00  0.00    +0.105 A 
ATOM     15  O   UNL     1      -0.910   3.757 -25.688  0.00  0.00    -0.283 OA
ATOM     16  C   UNL     1      -0.119   2.164 -22.218  0.00  0.00    +0.210 A 
ATOM     17  O   UNL     1       0.147   1.632 -21.061  0.00  0.00    -0.285 OA
ENDROOT
BRANCH   2  18
ATOM     18  O   UNL     1       1.525   3.055 -25.106  0.00  0.00    -0.503 OA
ATOM     19  H   UNL     1       2.248   3.613 -24.898  0.00  0.00    +0.292 HD
ENDBRANCH   2  18
BRANCH   1  20
ATOM     20  C   UNL     1       2.053   1.993 -22.793  0.00  0.00    +0.043 C 
BRANCH  20  21
ATOM     21  C   UNL     1       2.372   0.735 -22.738  0.00  0.00    +0.005 C 
BRANCH  21  22
ATOM     22  C   UNL     1       3.476   0.369 -22.160  0.00  0.00    +0.000 C 
BRANCH  22  23
ATOM     23  C   UNL     1       3.832   0.914 -21.034  0.00  0.00    +0.000 C 
BRANCH  23  24
ATOM     24  C   UNL     1       5.055   1.325 -20.868  0.00  0.00    +0.000 C 
BRANCH  24  25
ATOM     25  C   UNL     1       5.411   2.496 -21.308  0.00  0.00    +0.000 C 
BRANCH  25  26
ATOM     26  C   UNL     1       6.054   2.598 -22.433  0.00  0.00    -0.000 C 
BRANCH  26  27
ATOM     27  C   UNL     1       5.802   3.590 -23.236  0.00  0.00    -0.000 C 
BRANCH  27  28
ATOM     28  C   UNL     1       5.055   4.576 -22.836  0.00  0.00    -0.000 C 
BRANCH  28  30
ATOM     29  C   UNL     1       3.073   5.645 -22.858  0.00  0.00    +0.004 C 
ATOM     30  C   UNL     1       3.873   4.746 -23.351  0.00  0.00    -0.003 C 
ENDBRANCH  28  30
ENDBRANCH  27  28
ENDBRANCH  26  27
ENDBRANCH  25  26
ENDBRANCH  24  25
ENDBRANCH  23  24
ENDBRANCH  22  23
ENDBRANCH  21  22
ENDBRANCH  20  21
ENDBRANCH   1  20
TORSDOF 11
ENDMDL
MODEL 5
REMARK VINA RESULT:    -8.516      1.352      2.078
REMARK INTER + INTRA:         -14.534
REMARK INTER:                 -13.152
REMARK INTRA:                  -1.383
REMARK UNBOUND:                -0.791
REMARK  Name = CCCCCCCCCCCc1c(O)c(=O)c2sc3ccccc3[nH]c=2c1=O                         ZINC000100392834
REMARK  12 active torsions:
REMARK  status: ('A' for Active; 'I' for Inactive)
REMARK    1  A    between atoms: C_1  and  C_2
REMARK    2  A    between atoms: C_2  and  C_3
REMARK    3  A    between atoms: C_3  and  C_4
REMARK    4  A    between atoms: C_4  and  C_5
REMARK    5  A    between atoms: C_5  and  C_6
REMARK    6  A    between atoms: C_6  and  C_7
REMARK    7  A    between atoms: C_7  and  C_8
REMARK    8  A    between atoms: C_8  and  C_9
REMARK    9  A    between atoms: C_9  and  C_10
REMARK   10  A    between atoms: C_10  and  C_11
REMARK   11  A    between atoms: C_11  and  C_12
REMARK   12  A    between atoms: C_13  and  O_14
REMARK                            x       y       z     vdW  Elec       q    Type
REMARK                         _______ _______ _______ _____ _____    ______ ____
ROOT
ATOM      1  C   UNL     1       2.129   2.788 -23.511  0.00  0.00    +0.047 A 
ATOM      2  C   UNL     1       2.778   1.716 -23.165  0.00  0.00    +0.172 A 
ATOM      3  C   UNL     1       3.996   1.803 -22.721  0.00  0.00    +0.236 A 
ATOM      4  C   UNL     1       4.569   2.969 -22.622  0.00  0.00    +0.090 A 
ATOM      5  S   UNL     1       5.786   3.058 -22.179  0.00  0.00    -0.081 S 
ATOM      6  C   UNL     1       6.355   4.223 -22.082  0.00  0.00    +0.036 A 
ATOM      7  C   UNL     1       7.576   4.313 -21.637  0.00  0.00    +0.017 A 
ATOM      8  C   UNL     1       8.146   5.476 -21.539  0.00  0.00    +0.001 A 
ATOM      9  C   UNL     1       7.501   6.552 -21.885  0.00  0.00    +0.002 A 
ATOM     10  C   UNL     1       6.281   6.459 -22.329  0.00  0.00    +0.027 A 
ATOM     11  C   UNL     1       5.711   5.298 -22.427  0.00  0.00    +0.054 A 
ATOM     12  N   UNL     1       4.493   5.205 -22.871  0.00  0.00    -0.350 N 
ATOM     13  H   UNL     1       4.003   6.017 -23.133  0.00  0.00    +0.166 HD
ATOM     14  C   UNL     1       3.920   4.041 -22.969  0.00  0.00    +0.105 A 
ATOM     15  O   UNL     1       4.642   0.731 -22.375  0.00  0.00    -0.283 OA
ATOM     16  C   UNL     1       2.704   3.951 -23.412  0.00  0.00    +0.210 A 
ATOM     17  O   UNL     1       2.056   5.025 -23.759  0.00  0.00    -0.285 OA
ENDROOT
BRANCH   2  18
ATOM     18  O   UNL     1       2.204   0.551 -23.263  0.00  0.00    -0.503 OA
ATOM     19  H   UNL     1       2.575  -0.109 -23.814  0.00  0.00    +0.292 HD
ENDBRANCH   2  18
BRANCH   1  20
ATOM     20  C   UNL     1       0.912   2.697 -23.955  0.00  0.00    +0.043 C 
BRANCH  20  21
ATOM     21  C   UNL     1      -0.086   2.704 -23.123  0.00  0.00    +0.005 C 
BRANCH  21  22
ATOM     22  C   UNL     1      -1.271   2.359 -23.528  0.00  0.00    +0.000 C 
BRANCH  22  23
ATOM     23  C   UNL     1      -1.874   3.058 -24.444  0.00  0.00    +0.000 C 
BRANCH  23  24
ATOM     24  C   UNL     1      -2.560   4.111 -24.112  0.00  0.00    +0.000 C 
BRANCH  24  25
ATOM     25  C   UNL     1      -3.797   4.228 -24.497  0.00  0.00    +0.000 C 
BRANCH  25  26
ATOM     26  C   UNL     1      -4.738   3.604 -23.854  0.00  0.00    -0.000 C 
BRANCH  26  27
ATOM     27  C   UNL     1      -4.921   3.835 -22.586  0.00  0.00    -0.000 C 
BRANCH  27  28
ATOM     28  C   UNL     1      -4.881   2.853 -21.735  0.00  0.00    -0.000 C 
BRANCH  28  30
ATOM     29  C   UNL     1      -3.288   3.782 -20.443  0.00  0.00    +0.004 C 
ATOM     30  C   UNL     1      -3.862   2.725 -20.938  0.00  0.00    -0.003 C 
ENDBRANCH  28  30
ENDBRANCH  27  28
ENDBRANCH  26  27
ENDBRANCH  25  26
ENDBRANCH  24  25
ENDBRANCH  23  24
ENDBRANCH  22  23
ENDBRANCH  21  22
ENDBRANCH  20  21
ENDBRANCH   1  20
TORSDOF 11
ENDMDL
MODEL 6
REMARK VINA RESULT:    -8.397      2.220      6.156
REMARK INTER + INTRA:         -14.343
REMARK INTER:                 -12.170
REMARK INTRA:                  -2.173
REMARK UNBOUND:                -0.791
REMARK  Name = CCCCCCCCCCCc1c(O)c(=O)c2sc3ccccc3[nH]c=2c1=O                         ZINC000100392834
REMARK  12 active torsions:
REMARK  status: ('A' for Active; 'I' for Inactive)
REMARK    1  A    between atoms: C_1  and  C_2
REMARK    2  A    between atoms: C_2  and  C_3
REMARK    3  A    between atoms: C_3  and  C_4
REMARK    4  A    between atoms: C_4  and  C_5
REMARK    5  A    between atoms: C_5  and  C_6
REMARK    6  A    between atoms: C_6  and  C_7
REMARK    7  A    between atoms: C_7  and  C_8
REMARK    8  A    between atoms: C_8  and  C_9
REMARK    9  A    between atoms: C_9  and  C_10
REMARK   10  A    between atoms: C_10  and  C_11
REMARK   11  A    between atoms: C_11  and  C_12
REMARK   12  A    between atoms: C_13  and  O_14
REMARK                            x       y       z     vdW  Elec       q    Type
REMARK                         _______ _______ _______ _____ _____    ______ ____
ROOT
ATOM      1  C   UNL     1       3.070   3.004 -23.952  0.00  0.00    +0.047 A 
ATOM      2  C   UNL     1       3.025   4.198 -23.440  0.00  0.00    +0.172 A 
ATOM      3  C   UNL     1       1.902   4.850 -23.397  0.00  0.00    +0.236 A 
ATOM      4  C   UNL     1       0.817   4.304 -23.869  0.00  0.00    +0.090 A 
ATOM      5  S   UNL     1      -0.306   4.954 -23.827  0.00  0.00    -0.081 S 
ATOM      6  C   UNL     1      -1.388   4.407 -24.300  0.00  0.00    +0.036 A 
ATOM      7  C   UNL     1      -2.515   5.059 -24.258  0.00  0.00    +0.017 A 
ATOM      8  C   UNL     1      -3.596   4.513 -24.729  0.00  0.00    +0.001 A 
ATOM      9  C   UNL     1      -3.557   3.319 -25.242  0.00  0.00    +0.002 A 
ATOM     10  C   UNL     1      -2.428   2.671 -25.282  0.00  0.00    +0.027 A 
ATOM     11  C   UNL     1      -1.348   3.213 -24.813  0.00  0.00    +0.054 A 
ATOM     12  N   UNL     1      -0.222   2.566 -24.853  0.00  0.00    -0.350 N 
ATOM     13  H   UNL     1      -0.190   1.662 -25.240  0.00  0.00    +0.166 HD
ATOM     14  C   UNL     1       0.861   3.110 -24.381  0.00  0.00    +0.105 A 
ATOM     15  O   UNL     1       1.859   6.043 -22.885  0.00  0.00    -0.283 OA
ATOM     16  C   UNL     1       1.985   2.462 -24.423  0.00  0.00    +0.210 A 
ATOM     17  O   UNL     1       2.028   1.267 -24.935  0.00  0.00    -0.285 OA
ENDROOT
BRANCH   2  18
ATOM     18  O   UNL     1       4.110   4.742 -22.968  0.00  0.00    -0.503 OA
ATOM     19  H   UNL     1       4.189   4.911 -22.050  0.00  0.00    +0.292 HD
ENDBRANCH   2  18
BRANCH   1  20
ATOM     20  C   UNL     1       4.194   2.355 -23.993  0.00  0.00    +0.043 C 
BRANCH  20  21
ATOM     21  C   UNL     1       4.375   1.319 -23.231  0.00  0.00    +0.005 C 
BRANCH  21  22
ATOM     22  C   UNL     1       4.200   1.417 -21.948  0.00  0.00    +0.000 C 
BRANCH  22  23
ATOM     23  C   UNL     1       3.352   0.637 -21.346  0.00  0.00    +0.000 C 
BRANCH  23  24
ATOM     24  C   UNL     1       2.461   1.140 -20.544  0.00  0.00    +0.000 C 
BRANCH  24  25
ATOM     25  C   UNL     1       1.512   1.893 -21.017  0.00  0.00    +0.000 C 
BRANCH  25  26
ATOM     26  C   UNL     1       0.305   1.424 -21.127  0.00  0.00    -0.000 C 
BRANCH  26  27
ATOM     27  C   UNL     1      -0.709   2.238 -21.139  0.00  0.00    -0.000 C 
BRANCH  27  28
ATOM     28  C   UNL     1      -1.845   1.854 -21.644  0.00  0.00    -0.000 C 
BRANCH  28  30
ATOM     29  C   UNL     1      -2.875   3.678 -20.818  0.00  0.00    +0.004 C 
ATOM     30  C   UNL     1      -2.938   2.489 -21.341  0.00  0.00    -0.003 C 
ENDBRANCH  28  30
ENDBRANCH  27  28
ENDBRANCH  26  27
ENDBRANCH  25  26
ENDBRANCH  24  25
ENDBRANCH  23  24
ENDBRANCH  22  23
ENDBRANCH  21  22
ENDBRANCH  20  21
ENDBRANCH   1  20
TORSDOF 11
ENDMDL
MODEL 7
REMARK VINA RESULT:    -8.183      2.137      8.124
REMARK INTER + INTRA:         -13.996
REMARK INTER:                 -12.688
REMARK INTRA:                  -1.308
REMARK UNBOUND:                -0.791
REMARK  Name = CCCCCCCCCCCc1c(O)c(=O)c2sc3ccccc3[nH]c=2c1=O                         ZINC000100392834
REMARK  12 active torsions:
REMARK  status: ('A' for Active; 'I' for Inactive)
REMARK    1  A    between atoms: C_1  and  C_2
REMARK    2  A    between atoms: C_2  and  C_3
REMARK    3  A    between atoms: C_3  and  C_4
REMARK    4  A    between atoms: C_4  and  C_5
REMARK    5  A    between atoms: C_5  and  C_6
REMARK    6  A    between atoms: C_6  and  C_7
REMARK    7  A    between atoms: C_7  and  C_8
REMARK    8  A    between atoms: C_8  and  C_9
REMARK    9  A    between atoms: C_9  and  C_10
REMARK   10  A    between atoms: C_10  and  C_11
REMARK   11  A    between atoms: C_11  and  C_12
REMARK   12  A    between atoms: C_13  and  O_14
REMARK                            x       y       z     vdW  Elec       q    Type
REMARK                         _______ _______ _______ _____ _____    ______ ____
ROOT
ATOM      1  C   UNL     1       1.679   2.935 -23.391  0.00  0.00    +0.047 A 
ATOM      2  C   UNL     1       1.331   2.226 -22.358  0.00  0.00    +0.172 A 
ATOM      3  C   UNL     1       0.079   2.123 -22.028  0.00  0.00    +0.236 A 
ATOM      4  C   UNL     1      -0.831   2.732 -22.733  0.00  0.00    +0.090 A 
ATOM      5  S   UNL     1      -2.083   2.630 -22.404  0.00  0.00    -0.081 S 
ATOM      6  C   UNL     1      -2.989   3.239 -23.111  0.00  0.00    +0.036 A 
ATOM      7  C   UNL     1      -4.246   3.137 -22.782  0.00  0.00    +0.017 A 
ATOM      8  C   UNL     1      -5.152   3.745 -23.487  0.00  0.00    +0.001 A 
ATOM      9  C   UNL     1      -4.809   4.455 -24.521  0.00  0.00    +0.002 A 
ATOM     10  C   UNL     1      -3.553   4.555 -24.848  0.00  0.00    +0.027 A 
ATOM     11  C   UNL     1      -2.647   3.949 -24.145  0.00  0.00    +0.054 A 
ATOM     12  N   UNL     1      -1.393   4.049 -24.471  0.00  0.00    -0.350 N 
ATOM     13  H   UNL     1      -1.131   4.585 -25.253  0.00  0.00    +0.166 HD
ATOM     14  C   UNL     1      -0.484   3.441 -23.766  0.00  0.00    +0.105 A 
ATOM     15  O   UNL     1      -0.267   1.414 -20.995  0.00  0.00    -0.283 OA
ATOM     16  C   UNL     1       0.768   3.542 -24.094  0.00  0.00    +0.210 A 
ATOM     17  O   UNL     1       1.115   4.252 -25.128  0.00  0.00    -0.285 OA
ENDROOT
BRANCH   2  18
ATOM     18  O   UNL     1       2.241   1.618 -21.653  0.00  0.00    -0.503 OA
ATOM     19  H   UNL     1       2.083   1.424 -20.750  0.00  0.00    +0.292 HD
ENDBRANCH   2  18
BRANCH   1  20
ATOM     20  C   UNL     1       2.931   3.036 -23.719  0.00  0.00    +0.043 C 
BRANCH  20  21
ATOM     21  C   UNL     1       3.677   3.945 -23.166  0.00  0.00    +0.005 C 
BRANCH  21  22
ATOM     22  C   UNL     1       4.970   3.879 -23.276  0.00  0.00    +0.000 C 
BRANCH  22  23
ATOM     23  C   UNL     1       5.641   3.026 -22.560  0.00  0.00    +0.000 C 
BRANCH  23  24
ATOM     24  C   UNL     1       6.236   3.416 -21.472  0.00  0.00    +0.000 C 
BRANCH  24  25
ATOM     25  C   UNL     1       7.223   4.259 -21.539  0.00  0.00    +0.000 C 
BRANCH  25  26
ATOM     26  C   UNL     1       7.644   4.852 -20.461  0.00  0.00    -0.000 C 
BRANCH  26  27
ATOM     27  C   UNL     1       7.043   5.923 -20.033  0.00  0.00    -0.000 C 
BRANCH  27  28
ATOM     28  C   UNL     1       7.098   7.021 -20.728  0.00  0.00    -0.000 C 
BRANCH  28  30
ATOM     29  C   UNL     1       5.124   7.365 -21.756  0.00  0.00    +0.004 C 
ATOM     30  C   UNL     1       6.026   7.737 -20.896  0.00  0.00    -0.003 C 
ENDBRANCH  28  30
ENDBRANCH  27  28
ENDBRANCH  26  27
ENDBRANCH  25  26
ENDBRANCH  24  25
ENDBRANCH  23  24
ENDBRANCH  22  23
ENDBRANCH  21  22
ENDBRANCH  20  21
ENDBRANCH   1  20
TORSDOF 11
ENDMDL
MODEL 8
REMARK VINA RESULT:    -8.108      1.624      2.703
REMARK INTER + INTRA:         -13.875
REMARK INTER:                 -12.604
REMARK INTRA:                  -1.271
REMARK UNBOUND:                -0.791
REMARK  Name = CCCCCCCCCCCc1c(O)c(=O)c2sc3ccccc3[nH]c=2c1=O                         ZINC000100392834
REMARK  12 active torsions:
REMARK  status: ('A' for Active; 'I' for Inactive)
REMARK    1  A    between atoms: C_1  and  C_2
REMARK    2  A    between atoms: C_2  and  C_3
REMARK    3  A    between atoms: C_3  and  C_4
REMARK    4  A    between atoms: C_4  and  C_5
REMARK    5  A    between atoms: C_5  and  C_6
REMARK    6  A    between atoms: C_6  and  C_7
REMARK    7  A    between atoms: C_7  and  C_8
REMARK    8  A    between atoms: C_8  and  C_9
REMARK    9  A    between atoms: C_9  and  C_10
REMARK   10  A    between atoms: C_10  and  C_11
REMARK   11  A    between atoms: C_11  and  C_12
REMARK   12  A    between atoms: C_13  and  O_14
REMARK                            x       y       z     vdW  Elec       q    Type
REMARK                         _______ _______ _______ _____ _____    ______ ____
ROOT
ATOM      1  C   UNL     1       1.841   3.629 -23.908  0.00  0.00    +0.047 A 
ATOM      2  C   UNL     1       1.852   4.813 -23.372  0.00  0.00    +0.172 A 
ATOM      3  C   UNL     1       2.977   5.359 -23.017  0.00  0.00    +0.236 A 
ATOM      4  C   UNL     1       4.096   4.718 -23.199  0.00  0.00    +0.090 A 
ATOM      5  S   UNL     1       5.220   5.262 -22.844  0.00  0.00    -0.081 S 
ATOM      6  C   UNL     1       6.336   4.619 -23.027  0.00  0.00    +0.036 A 
ATOM      7  C   UNL     1       7.464   5.165 -22.672  0.00  0.00    +0.017 A 
ATOM      8  C   UNL     1       8.579   4.524 -22.854  0.00  0.00    +0.001 A 
ATOM      9  C   UNL     1       8.573   3.338 -23.390  0.00  0.00    +0.002 A 
ATOM     10  C   UNL     1       7.444   2.796 -23.744  0.00  0.00    +0.027 A 
ATOM     11  C   UNL     1       6.330   3.435 -23.563  0.00  0.00    +0.054 A 
ATOM     12  N   UNL     1       5.202   2.893 -23.916  0.00  0.00    -0.350 N 
ATOM     13  H   UNL     1       5.195   1.997 -24.322  0.00  0.00    +0.166 HD
ATOM     14  C   UNL     1       4.084   3.534 -23.735  0.00  0.00    +0.105 A 
ATOM     15  O   UNL     1       2.986   6.543 -22.481  0.00  0.00    -0.283 OA
ATOM     16  C   UNL     1       2.960   2.991 -24.089  0.00  0.00    +0.210 A 
ATOM     17  O   UNL     1       2.950   1.805 -24.625  0.00  0.00    -0.285 OA
ENDROOT
BRANCH   2  18
ATOM     18  O   UNL     1       0.734   5.454 -23.190  0.00  0.00    -0.503 OA
ATOM     19  H   UNL     1       0.346   5.931 -23.897  0.00  0.00    +0.292 HD
ENDBRANCH   2  18
BRANCH   1  20
ATOM     20  C   UNL     1       0.716   3.086 -24.262  0.00  0.00    +0.043 C 
BRANCH  20  21
ATOM     21  C   UNL     1      -0.092   2.616 -23.360  0.00  0.00    +0.005 C 
BRANCH  21  22
ATOM     22  C   UNL     1      -1.376   2.672 -23.545  0.00  0.00    +0.000 C 
BRANCH  22  23
ATOM     23  C   UNL     1      -1.872   3.497 -24.419  0.00  0.00    +0.000 C 
BRANCH  23  24
ATOM     24  C   UNL     1      -3.003   4.093 -24.182  0.00  0.00    +0.000 C 
BRANCH  24  25
ATOM     25  C   UNL     1      -4.118   3.432 -24.283  0.00  0.00    +0.000 C 
BRANCH  25  26
ATOM     26  C   UNL     1      -5.119   3.726 -23.507  0.00  0.00    -0.000 C 
BRANCH  26  27
ATOM     27  C   UNL     1      -4.947   3.783 -22.219  0.00  0.00    -0.000 C 
BRANCH  27  28
ATOM     28  C   UNL     1      -4.768   2.689 -21.538  0.00  0.00    -0.000 C 
BRANCH  28  30
ATOM     29  C   UNL     1      -3.191   3.607 -20.219  0.00  0.00    +0.004 C 
ATOM     30  C   UNL     1      -3.720   2.560 -20.781  0.00  0.00    -0.003 C 
ENDBRANCH  28  30
ENDBRANCH  27  28
ENDBRANCH  26  27
ENDBRANCH  25  26
ENDBRANCH  24  25
ENDBRANCH  23  24
ENDBRANCH  22  23
ENDBRANCH  21  22
ENDBRANCH  20  21
ENDBRANCH   1  20
TORSDOF 11
ENDMDL
MODEL 9
REMARK VINA RESULT:    -7.439      2.623      4.070
REMARK INTER + INTRA:         -12.796
REMARK INTER:                 -12.005
REMARK INTRA:                  -0.791
REMARK UNBOUND:                -0.791
REMARK  Name = CCCCCCCCCCCc1c(O)c(=O)c2sc3ccccc3[nH]c=2c1=O                         ZINC000100392834
REMARK  12 active torsions:
REMARK  status: ('A' for Active; 'I' for Inactive)
REMARK    1  A    between atoms: C_1  and  C_2
REMARK    2  A    between atoms: C_2  and  C_3
REMARK    3  A    between atoms: C_3  and  C_4
REMARK    4  A    between atoms: C_4  and  C_5
REMARK    5  A    between atoms: C_5  and  C_6
REMARK    6  A    between atoms: C_6  and  C_7
REMARK    7  A    between atoms: C_7  and  C_8
REMARK    8  A    between atoms: C_8  and  C_9
REMARK    9  A    between atoms: C_9  and  C_10
REMARK   10  A    between atoms: C_10  and  C_11
REMARK   11  A    between atoms: C_11  and  C_12
REMARK   12  A    between atoms: C_13  and  O_14
REMARK                            x       y       z     vdW  Elec       q    Type
REMARK                         _______ _______ _______ _____ _____    ______ ____
ROOT
ATOM      1  C   UNL     1       3.769   3.713 -23.277  0.00  0.00    +0.047 A 
ATOM      2  C   UNL     1       4.888   3.051 -23.292  0.00  0.00    +0.172 A 
ATOM      3  C   UNL     1       5.994   3.629 -22.932  0.00  0.00    +0.236 A 
ATOM      4  C   UNL     1       5.983   4.876 -22.556  0.00  0.00    +0.090 A 
ATOM      5  S   UNL     1       7.088   5.455 -22.196  0.00  0.00    -0.081 S 
ATOM      6  C   UNL     1       7.073   6.700 -21.820  0.00  0.00    +0.036 A 
ATOM      7  C   UNL     1       8.182   7.281 -21.459  0.00  0.00    +0.017 A 
ATOM      8  C   UNL     1       8.168   8.525 -21.084  0.00  0.00    +0.001 A 
ATOM      9  C   UNL     1       7.051   9.192 -21.067  0.00  0.00    +0.002 A 
ATOM     10  C   UNL     1       5.946   8.608 -21.428  0.00  0.00    +0.027 A 
ATOM     11  C   UNL     1       5.957   7.366 -21.803  0.00  0.00    +0.054 A 
ATOM     12  N   UNL     1       4.853   6.783 -22.164  0.00  0.00    -0.350 N 
ATOM     13  H   UNL     1       4.007   7.286 -22.152  0.00  0.00    +0.166 HD
ATOM     14  C   UNL     1       4.864   5.538 -22.540  0.00  0.00    +0.105 A 
ATOM     15  O   UNL     1       7.111   2.966 -22.948  0.00  0.00    -0.283 OA
ATOM     16  C   UNL     1       3.760   4.958 -22.900  0.00  0.00    +0.210 A 
ATOM     17  O   UNL     1       2.641   5.622 -22.885  0.00  0.00    -0.285 OA
ENDROOT
BRANCH   2  18
ATOM     18  O   UNL     1       4.898   1.805 -23.669  0.00  0.00    -0.503 OA
ATOM     19  H   UNL     1       4.497   1.149 -23.133  0.00  0.00    +0.292 HD
ENDBRANCH   2  18
BRANCH   1  20
ATOM     20  C   UNL     1       2.664   3.133 -23.637  0.00  0.00    +0.043 C 
BRANCH  20  21
ATOM     21  C   UNL     1       2.133   3.404 -24.791  0.00  0.00    +0.005 C 
BRANCH  21  22
ATOM     22  C   UNL     1       0.909   3.049 -25.041  0.00  0.00    +0.000 C 
BRANCH  22  23
ATOM     23  C   UNL     1      -0.076   3.625 -24.417  0.00  0.00    +0.000 C 
BRANCH  23  24
ATOM     24  C   UNL     1      -0.977   2.904 -23.819  0.00  0.00    +0.000 C 
BRANCH  24  25
ATOM     25  C   UNL     1      -1.070   2.925 -22.522  0.00  0.00    +0.000 C 
BRANCH  25  26
ATOM     26  C   UNL     1      -1.995   3.637 -21.950  0.00  0.00    -0.000 C 
BRANCH  26  27
ATOM     27  C   UNL     1      -2.555   3.215 -20.854  0.00  0.00    -0.000 C 
BRANCH  27  28
ATOM     28  C   UNL     1      -3.850   3.238 -20.735  0.00  0.00    -0.000 C 
BRANCH  28  30
ATOM     29  C   UNL     1      -5.711   3.042 -21.987  0.00  0.00    +0.004 C 
ATOM     30  C   UNL     1      -4.586   3.640 -21.728  0.00  0.00    -0.003 C 
ENDBRANCH  28  30
ENDBRANCH  27  28
ENDBRANCH  26  27
ENDBRANCH  25  26
ENDBRANCH  24  25
ENDBRANCH  23  24
ENDBRANCH  22  23
ENDBRANCH  21  22
ENDBRANCH  20  21
ENDBRANCH   1  20
TORSDOF 11
ENDMDL
