MODEL 1
REMARK VINA RESULT:   -10.986      0.000      0.000
REMARK INTER + INTRA:         -12.088
REMARK INTER:                 -11.971
REMARK INTRA:                  -0.117
REMARK UNBOUND:                -0.138
REMARK  Name = COc1ccc2c3c1O[C@H]1[C@@H](O)C=C[C@H]4[C@H](C2)N(C=O)CC[C@@]341       ZINC000100393479
REMARK  3 active torsions:
REMARK  status: ('A' for Active; 'I' for Inactive)
REMARK    1  A    between atoms: C_1  and  O_2
REMARK    2  A    between atoms: O_2  and  C_3
REMARK    3  A    between atoms: C_11  and  O_12
REMARK                            x       y       z     vdW  Elec       q    Type
REMARK                         _______ _______ _______ _____ _____    ______ ____
ROOT
ATOM      1  C   UNL     1       0.868   2.660 -23.918  0.00  0.00    +0.162 A 
ATOM      2  C   UNL     1       1.012   2.181 -22.755  0.00  0.00    +0.050 A 
ATOM      3  C   UNL     1       0.029   2.065 -21.992  0.00  0.00    +0.008 A 
ATOM      4  C   UNL     1      -1.105   2.427 -22.380  0.00  0.00    -0.038 A 
ATOM      5  C   UNL     1      -1.272   2.906 -23.531  0.00  0.00    +0.012 A 
ATOM      6  C   UNL     1      -2.406   3.265 -23.913  0.00  0.00    +0.049 C 
ATOM      7  C   UNL     1      -3.647   3.707 -24.458  0.00  0.00    +0.035 C 
ATOM      8  C   UNL     1      -4.775   3.590 -23.620  0.00  0.00    +0.109 C 
ATOM      9  N   UNL     1      -4.576   3.051 -22.331  0.00  0.00    -0.300 N 
ATOM     10  C   UNL     1      -5.526   2.908 -21.511  0.00  0.00    +0.328 C 
ATOM     11  O   UNL     1      -6.693   3.244 -21.821  0.00  0.00    -0.279 OA
ATOM     12  C   UNL     1      -3.246   2.672 -21.991  0.00  0.00    +0.088 C 
ATOM     13  C   UNL     1      -3.392   3.151 -23.151  0.00  0.00    +0.046 C 
ATOM     14  C   UNL     1      -4.540   3.515 -23.539  0.00  0.00    -0.022 C 
ATOM     15  C   UNL     1      -4.688   3.989 -24.687  0.00  0.00    +0.004 C 
ATOM     16  C   UNL     1      -3.699   4.109 -25.465  0.00  0.00    +0.178 C 
ATOM     17  C   UNL     1      -2.565   3.748 -25.077  0.00  0.00    +0.217 C 
ATOM     18  O   UNL     1      -1.099   3.609 -25.419  0.00  0.00    -0.481 OA
ATOM     19  C   UNL     1      -2.112   2.311 -21.604  0.00  0.00    +0.058 C 
ATOM     20  C   UNL     1      -0.281   3.024 -24.306  0.00  0.00    +0.167 A 
ENDROOT
BRANCH   1  22
ATOM     21  C   UNL     1       2.706   1.859 -24.741  0.00  0.00    +0.277 C 
ATOM     22  O   UNL     1       1.854   2.773 -24.678  0.00  0.00    -0.491 OA
ENDBRANCH   1  22
BRANCH  16  23
ATOM     23  O   UNL     1      -3.853   4.584 -26.611  0.00  0.00    -0.384 OA
ATOM     24  H   UNL     1      -3.029   4.486 -27.114  0.00  0.00    +0.210 HD
ENDBRANCH  16  23
TORSDOF 2
ENDMDL
MODEL 2
REMARK VINA RESULT:   -10.615      1.933      5.298
REMARK INTER + INTRA:         -11.684
REMARK INTER:                 -11.574
REMARK INTRA:                  -0.111
REMARK UNBOUND:                -0.138
REMARK  Name = COc1ccc2c3c1O[C@H]1[C@@H](O)C=C[C@H]4[C@H](C2)N(C=O)CC[C@@]341       ZINC000100393479
REMARK  3 active torsions:
REMARK  status: ('A' for Active; 'I' for Inactive)
REMARK    1  A    between atoms: C_1  and  O_2
REMARK    2  A    between atoms: O_2  and  C_3
REMARK    3  A    between atoms: C_11  and  O_12
REMARK                            x       y       z     vdW  Elec       q    Type
REMARK                         _______ _______ _______ _____ _____    ______ ____
ROOT
ATOM      1  C   UNL     1      -3.543   3.480 -23.000  0.00  0.00    +0.162 A 
ATOM      2  C   UNL     1      -3.709   2.833 -21.925  0.00  0.00    +0.050 A 
ATOM      3  C   UNL     1      -2.763   2.195 -21.416  0.00  0.00    +0.008 A 
ATOM      4  C   UNL     1      -1.642   2.195 -21.975  0.00  0.00    -0.038 A 
ATOM      5  C   UNL     1      -1.453   2.831 -23.044  0.00  0.00    +0.012 A 
ATOM      6  C   UNL     1      -0.333   2.828 -23.597  0.00  0.00    +0.049 C 
ATOM      7  C   UNL     1       0.896   2.899 -24.317  0.00  0.00    +0.035 C 
ATOM      8  C   UNL     1       1.983   2.188 -23.767  0.00  0.00    +0.109 C 
ATOM      9  N   UNL     1       1.760   1.479 -22.568  0.00  0.00    -0.300 N 
ATOM     10  C   UNL     1       2.673   0.815 -22.003  0.00  0.00    +0.328 C 
ATOM     11  O   UNL     1       3.824   0.763 -22.497  0.00  0.00    -0.279 OA
ATOM     12  C   UNL     1       0.449   1.545 -22.017  0.00  0.00    +0.088 C 
ATOM     13  C   UNL     1       0.617   2.190 -23.091  0.00  0.00    +0.046 C 
ATOM     14  C   UNL     1       1.751   2.188 -23.651  0.00  0.00    -0.022 C 
ATOM     15  C   UNL     1       1.922   2.825 -24.714  0.00  0.00    +0.004 C 
ATOM     16  C   UNL     1       0.969   3.473 -25.235  0.00  0.00    +0.178 C 
ATOM     17  C   UNL     1      -0.151   3.472 -24.676  0.00  0.00    +0.217 C 
ATOM     18  O   UNL     1      -1.581   3.961 -24.716  0.00  0.00    -0.481 OA
ATOM     19  C   UNL     1      -0.672   1.545 -21.459  0.00  0.00    +0.058 C 
ATOM     20  C   UNL     1      -2.407   3.477 -23.561  0.00  0.00    +0.167 A 
ENDROOT
BRANCH   1  22
ATOM     21  C   UNL     1      -4.978   3.756 -24.600  0.00  0.00    +0.277 C 
ATOM     22  O   UNL     1      -4.493   4.117 -23.505  0.00  0.00    -0.491 OA
ENDBRANCH   1  22
BRANCH  16  23
ATOM     23  O   UNL     1       1.145   4.108 -26.297  0.00  0.00    -0.384 OA
ATOM     24  H   UNL     1       0.665   4.950 -26.253  0.00  0.00    +0.210 HD
ENDBRANCH  16  23
TORSDOF 2
ENDMDL
MODEL 3
REMARK VINA RESULT:   -10.482      1.790      3.194
REMARK INTER + INTRA:         -11.540
REMARK INTER:                 -11.431
REMARK INTRA:                  -0.109
REMARK UNBOUND:                -0.138
REMARK  Name = COc1ccc2c3c1O[C@H]1[C@@H](O)C=C[C@H]4[C@H](C2)N(C=O)CC[C@@]341       ZINC000100393479
REMARK  3 active torsions:
REMARK  status: ('A' for Active; 'I' for Inactive)
REMARK    1  A    between atoms: C_1  and  O_2
REMARK    2  A    between atoms: O_2  and  C_3
REMARK    3  A    between atoms: C_11  and  O_12
REMARK                            x       y       z     vdW  Elec       q    Type
REMARK                         _______ _______ _______ _____ _____    ______ ____
ROOT
ATOM      1  C   UNL     1       1.327   1.683 -22.176  0.00  0.00    +0.162 A 
ATOM      2  C   UNL     1       1.876   2.095 -23.239  0.00  0.00    +0.050 A 
ATOM      3  C   UNL     1       1.211   2.716 -24.097  0.00  0.00    +0.008 A 
ATOM      4  C   UNL     1      -0.007   2.931 -23.902  0.00  0.00    -0.038 A 
ATOM      5  C   UNL     1      -0.574   2.530 -22.852  0.00  0.00    +0.012 A 
ATOM      6  C   UNL     1      -1.790   2.748 -22.663  0.00  0.00    +0.049 C 
ATOM      7  C   UNL     1      -3.165   2.935 -22.338  0.00  0.00    +0.035 C 
ATOM      8  C   UNL     1      -3.942   3.632 -23.286  0.00  0.00    +0.109 C 
ATOM      9  N   UNL     1      -3.296   4.077 -24.458  0.00  0.00    -0.300 N 
ATOM     10  C   UNL     1      -3.909   4.709 -25.363  0.00  0.00    +0.328 C 
ATOM     11  O   UNL     1      -5.131   4.966 -25.246  0.00  0.00    -0.279 OA
ATOM     12  C   UNL     1      -1.908   3.780 -24.580  0.00  0.00    +0.088 C 
ATOM     13  C   UNL     1      -2.459   3.368 -23.519  0.00  0.00    +0.046 C 
ATOM     14  C   UNL     1      -3.690   3.588 -23.326  0.00  0.00    -0.022 C 
ATOM     15  C   UNL     1      -4.238   3.183 -22.278  0.00  0.00    +0.004 C 
ATOM     16  C   UNL     1      -3.572   2.554 -21.406  0.00  0.00    +0.178 C 
ATOM     17  C   UNL     1      -2.354   2.339 -21.601  0.00  0.00    +0.217 C 
ATOM     18  O   UNL     1      -1.079   1.728 -21.066  0.00  0.00    -0.481 OA
ATOM     19  C   UNL     1      -0.690   3.564 -24.774  0.00  0.00    +0.058 C 
ATOM     20  C   UNL     1       0.095   1.903 -21.984  0.00  0.00    +0.167 A 
ENDROOT
BRANCH   1  22
ATOM     21  C   UNL     1       3.157   0.679 -21.591  0.00  0.00    +0.277 C 
ATOM     22  O   UNL     1       1.996   1.062 -21.322  0.00  0.00    -0.491 OA
ENDBRANCH   1  22
BRANCH  16  23
ATOM     23  O   UNL     1      -4.125   2.152 -20.360  0.00  0.00    -0.384 OA
ATOM     24  H   UNL     1      -3.492   2.189 -19.625  0.00  0.00    +0.210 HD
ENDBRANCH  16  23
TORSDOF 2
ENDMDL
MODEL 4
REMARK VINA RESULT:   -10.425      1.967      5.805
REMARK INTER + INTRA:         -11.478
REMARK INTER:                 -11.330
REMARK INTRA:                  -0.147
REMARK UNBOUND:                -0.138
REMARK  Name = COc1ccc2c3c1O[C@H]1[C@@H](O)C=C[C@H]4[C@H](C2)N(C=O)CC[C@@]341       ZINC000100393479
REMARK  3 active torsions:
REMARK  status: ('A' for Active; 'I' for Inactive)
REMARK    1  A    between atoms: C_1  and  O_2
REMARK    2  A    between atoms: O_2  and  C_3
REMARK    3  A    between atoms: C_11  and  O_12
REMARK                            x       y       z     vdW  Elec       q    Type
REMARK                         _______ _______ _______ _____ _____    ______ ____
ROOT
ATOM      1  C   UNL     1      -4.649   3.601 -22.662  0.00  0.00    +0.162 A 
ATOM      2  C   UNL     1      -4.839   4.084 -23.817  0.00  0.00    +0.050 A 
ATOM      3  C   UNL     1      -3.905   4.125 -24.647  0.00  0.00    +0.008 A 
ATOM      4  C   UNL     1      -2.775   3.686 -24.334  0.00  0.00    -0.038 A 
ATOM      5  C   UNL     1      -2.563   3.202 -23.192  0.00  0.00    +0.012 A 
ATOM      6  C   UNL     1      -1.434   2.766 -22.886  0.00  0.00    +0.049 C 
ATOM      7  C   UNL     1      -0.192   2.239 -22.423  0.00  0.00    +0.035 C 
ATOM      8  C   UNL     1       0.880   2.272 -23.338  0.00  0.00    +0.109 C 
ATOM      9  N   UNL     1       0.631   2.816 -24.615  0.00  0.00    -0.300 N 
ATOM     10  C   UNL     1       1.529   2.888 -25.499  0.00  0.00    +0.328 C 
ATOM     11  O   UNL     1       2.689   2.470 -25.268  0.00  0.00    -0.279 OA
ATOM     12  C   UNL     1      -0.689   3.287 -24.867  0.00  0.00    +0.088 C 
ATOM     13  C   UNL     1      -0.497   2.805 -23.715  0.00  0.00    +0.046 C 
ATOM     14  C   UNL     1       0.646   2.363 -23.403  0.00  0.00    -0.022 C 
ATOM     15  C   UNL     1       0.839   1.885 -22.263  0.00  0.00    +0.004 C 
ATOM     16  C   UNL     1      -0.099   1.840 -21.417  0.00  0.00    +0.178 C 
ATOM     17  C   UNL     1      -1.229   2.279 -21.730  0.00  0.00    +0.217 C 
ATOM     18  O   UNL     1      -2.654   2.523 -21.290  0.00  0.00    -0.481 OA
ATOM     19  C   UNL     1      -1.819   3.726 -25.179  0.00  0.00    +0.058 C 
ATOM     20  C   UNL     1      -3.504   3.159 -22.350  0.00  0.00    +0.167 A 
ENDROOT
BRANCH   1  22
ATOM     21  C   UNL     1      -6.321   2.553 -21.767  0.00  0.00    +0.277 C 
ATOM     22  O   UNL     1      -5.585   3.562 -21.835  0.00  0.00    -0.491 OA
ENDBRANCH   1  22
BRANCH  16  23
ATOM     23  O   UNL     1       0.100   1.361 -20.281  0.00  0.00    -0.384 OA
ATOM     24  H   UNL     1      -0.244   1.971 -19.608  0.00  0.00    +0.210 HD
ENDBRANCH  16  23
TORSDOF 2
ENDMDL
MODEL 5
REMARK VINA RESULT:   -10.082      2.965      6.719
REMARK INTER + INTRA:         -11.104
REMARK INTER:                 -10.985
REMARK INTRA:                  -0.119
REMARK UNBOUND:                -0.138
REMARK  Name = COc1ccc2c3c1O[C@H]1[C@@H](O)C=C[C@H]4[C@H](C2)N(C=O)CC[C@@]341       ZINC000100393479
REMARK  3 active torsions:
REMARK  status: ('A' for Active; 'I' for Inactive)
REMARK    1  A    between atoms: C_1  and  O_2
REMARK    2  A    between atoms: O_2  and  C_3
REMARK    3  A    between atoms: C_11  and  O_12
REMARK                            x       y       z     vdW  Elec       q    Type
REMARK                         _______ _______ _______ _____ _____    ______ ____
ROOT
ATOM      1  C   UNL     1      -1.758   3.291 -23.173  0.00  0.00    +0.162 A 
ATOM      2  C   UNL     1      -1.789   4.552 -23.272  0.00  0.00    +0.050 A 
ATOM      3  C   UNL     1      -0.728   5.213 -23.292  0.00  0.00    +0.008 A 
ATOM      4  C   UNL     1       0.373   4.623 -23.213  0.00  0.00    -0.038 A 
ATOM      5  C   UNL     1       0.429   3.370 -23.113  0.00  0.00    +0.012 A 
ATOM      6  C   UNL     1       1.531   2.787 -23.035  0.00  0.00    +0.049 C 
ATOM      7  C   UNL     1       2.724   2.012 -22.939  0.00  0.00    +0.035 C 
ATOM      8  C   UNL     1       3.938   2.730 -22.959  0.00  0.00    +0.109 C 
ATOM      9  N   UNL     1       3.863   4.134 -23.071  0.00  0.00    -0.300 N 
ATOM     10  C   UNL     1       4.896   4.860 -23.097  0.00  0.00    +0.328 C 
ATOM     11  O   UNL     1       6.038   4.349 -23.023  0.00  0.00    -0.279 OA
ATOM     12  C   UNL     1       2.560   4.704 -23.154  0.00  0.00    +0.088 C 
ATOM     13  C   UNL     1       2.594   3.445 -23.055  0.00  0.00    +0.046 C 
ATOM     14  C   UNL     1       3.710   2.853 -22.975  0.00  0.00    -0.022 C 
ATOM     15  C   UNL     1       3.747   1.606 -22.877  0.00  0.00    +0.004 C 
ATOM     16  C   UNL     1       2.679   0.931 -22.856  0.00  0.00    +0.178 C 
ATOM     17  C   UNL     1       1.578   1.521 -22.935  0.00  0.00    +0.217 C 
ATOM     18  O   UNL     1       0.073   1.385 -22.969  0.00  0.00    -0.481 OA
ATOM     19  C   UNL     1       1.459   5.293 -23.233  0.00  0.00    +0.058 C 
ATOM     20  C   UNL     1      -0.641   2.699 -23.093  0.00  0.00    +0.167 A 
ENDROOT
BRANCH   1  22
ATOM     21  C   UNL     1      -3.772   3.001 -22.426  0.00  0.00    +0.277 C 
ATOM     22  O   UNL     1      -2.821   2.634 -23.153  0.00  0.00    -0.491 OA
ENDBRANCH   1  22
BRANCH  16  23
ATOM     23  O   UNL     1       2.723  -0.314 -22.757  0.00  0.00    -0.384 OA
ATOM     24  H   UNL     1       2.837  -0.705 -23.638  0.00  0.00    +0.210 HD
ENDBRANCH  16  23
TORSDOF 2
ENDMDL
MODEL 6
REMARK VINA RESULT:    -9.701      2.145      3.677
REMARK INTER + INTRA:         -10.690
REMARK INTER:                 -10.552
REMARK INTRA:                  -0.138
REMARK UNBOUND:                -0.138
REMARK  Name = COc1ccc2c3c1O[C@H]1[C@@H](O)C=C[C@H]4[C@H](C2)N(C=O)CC[C@@]341       ZINC000100393479
REMARK  3 active torsions:
REMARK  status: ('A' for Active; 'I' for Inactive)
REMARK    1  A    between atoms: C_1  and  O_2
REMARK    2  A    between atoms: O_2  and  C_3
REMARK    3  A    between atoms: C_11  and  O_12
REMARK                            x       y       z     vdW  Elec       q    Type
REMARK                         _______ _______ _______ _____ _____    ______ ____
ROOT
ATOM      1  C   UNL     1       3.935   1.643 -21.973  0.00  0.00    +0.162 A 
ATOM      2  C   UNL     1       3.492   1.133 -20.902  0.00  0.00    +0.050 A 
ATOM      3  C   UNL     1       2.265   1.126 -20.664  0.00  0.00    +0.008 A 
ATOM      4  C   UNL     1       1.469   1.626 -21.491  0.00  0.00    -0.038 A 
ATOM      5  C   UNL     1       1.886   2.138 -22.562  0.00  0.00    +0.012 A 
ATOM      6  C   UNL     1       1.087   2.635 -23.383  0.00  0.00    +0.049 C 
ATOM      7  C   UNL     1       0.274   3.231 -24.392  0.00  0.00    +0.035 C 
ATOM      8  C   UNL     1      -1.115   3.238 -24.151  0.00  0.00    +0.109 C 
ATOM      9  N   UNL     1      -1.572   2.661 -22.947  0.00  0.00    -0.300 N 
ATOM     10  C   UNL     1      -2.797   2.621 -22.646  0.00  0.00    +0.328 C 
ATOM     11  O   UNL     1      -3.661   3.099 -23.419  0.00  0.00    -0.279 OA
ATOM     12  C   UNL     1      -0.582   2.120 -22.078  0.00  0.00    +0.088 C 
ATOM     13  C   UNL     1      -0.142   2.630 -23.148  0.00  0.00    +0.046 C 
ATOM     14  C   UNL     1      -0.951   3.134 -23.980  0.00  0.00    -0.022 C 
ATOM     15  C   UNL     1      -0.519   3.639 -25.040  0.00  0.00    +0.004 C 
ATOM     16  C   UNL     1       0.720   3.651 -25.288  0.00  0.00    +0.178 C 
ATOM     17  C   UNL     1       1.517   3.151 -24.462  0.00  0.00    +0.217 C 
ATOM     18  O   UNL     1       2.958   2.842 -24.125  0.00  0.00    -0.481 OA
ATOM     19  C   UNL     1       0.215   1.621 -21.252  0.00  0.00    +0.058 C 
ATOM     20  C   UNL     1       3.125   2.148 -22.806  0.00  0.00    +0.167 A 
ENDROOT
BRANCH   1  22
ATOM     21  C   UNL     1       5.816   2.711 -22.108  0.00  0.00    +0.277 C 
ATOM     22  O   UNL     1       5.163   1.648 -22.207  0.00  0.00    -0.491 OA
ENDBRANCH   1  22
BRANCH  16  23
ATOM     23  O   UNL     1       1.145   4.156 -26.348  0.00  0.00    -0.384 OA
ATOM     24  H   UNL     1       2.116   4.180 -26.329  0.00  0.00    +0.210 HD
ENDBRANCH  16  23
TORSDOF 2
ENDMDL
MODEL 7
REMARK VINA RESULT:    -9.593      2.999      6.882
REMARK INTER + INTRA:         -10.572
REMARK INTER:                 -10.430
REMARK INTRA:                  -0.142
REMARK UNBOUND:                -0.138
REMARK  Name = COc1ccc2c3c1O[C@H]1[C@@H](O)C=C[C@H]4[C@H](C2)N(C=O)CC[C@@]341       ZINC000100393479
REMARK  3 active torsions:
REMARK  status: ('A' for Active; 'I' for Inactive)
REMARK    1  A    between atoms: C_1  and  O_2
REMARK    2  A    between atoms: O_2  and  C_3
REMARK    3  A    between atoms: C_11  and  O_12
REMARK                            x       y       z     vdW  Elec       q    Type
REMARK                         _______ _______ _______ _____ _____    ______ ____
ROOT
ATOM      1  C   UNL     1      -1.648   2.821 -23.634  0.00  0.00    +0.162 A 
ATOM      2  C   UNL     1      -1.432   3.350 -24.764  0.00  0.00    +0.050 A 
ATOM      3  C   UNL     1      -0.263   3.576 -25.145  0.00  0.00    +0.008 A 
ATOM      4  C   UNL     1       0.701   3.277 -24.404  0.00  0.00    -0.038 A 
ATOM      5  C   UNL     1       0.511   2.750 -23.277  0.00  0.00    +0.012 A 
ATOM      6  C   UNL     1       1.477   2.454 -22.543  0.00  0.00    +0.049 C 
ATOM      7  C   UNL     1       2.495   2.073 -21.620  0.00  0.00    +0.035 C 
ATOM      8  C   UNL     1       3.824   2.316 -22.022  0.00  0.00    +0.109 C 
ATOM      9  N   UNL     1       4.025   2.907 -23.287  0.00  0.00    -0.300 N 
ATOM     10  C   UNL     1       5.179   3.162 -23.732  0.00  0.00    +0.328 C 
ATOM     11  O   UNL     1       6.199   2.894 -23.053  0.00  0.00    -0.279 OA
ATOM     12  C   UNL     1       2.860   3.207 -24.050  0.00  0.00    +0.088 C 
ATOM     13  C   UNL     1       2.648   2.679 -22.921  0.00  0.00    +0.046 C 
ATOM     14  C   UNL     1       3.625   2.378 -22.176  0.00  0.00    -0.022 C 
ATOM     15  C   UNL     1       3.418   1.855 -21.059  0.00  0.00    +0.004 C 
ATOM     16  C   UNL     1       2.240   1.623 -20.666  0.00  0.00    +0.178 C 
ATOM     17  C   UNL     1       1.276   1.922 -21.406  0.00  0.00    +0.217 C 
ATOM     18  O   UNL     1      -0.226   1.937 -21.579  0.00  0.00    -0.481 OA
ATOM     19  C   UNL     1       1.896   3.506 -24.789  0.00  0.00    +0.058 C 
ATOM     20  C   UNL     1      -0.669   2.520 -22.889  0.00  0.00    +0.167 A 
ENDROOT
BRANCH   1  22
ATOM     21  C   UNL     1      -3.355   3.337 -22.403  0.00  0.00    +0.277 C 
ATOM     22  O   UNL     1      -2.818   2.596 -23.257  0.00  0.00    -0.491 OA
ENDBRANCH   1  22
BRANCH  16  23
ATOM     23  O   UNL     1       2.039   1.101 -19.549  0.00  0.00    -0.384 OA
ATOM     24  H   UNL     1       1.349   0.423 -19.628  0.00  0.00    +0.210 HD
ENDBRANCH  16  23
TORSDOF 2
ENDMDL
MODEL 8
REMARK VINA RESULT:    -9.022      2.967      6.389
REMARK INTER + INTRA:          -9.952
REMARK INTER:                  -9.841
REMARK INTRA:                  -0.111
REMARK UNBOUND:                -0.138
REMARK  Name = COc1ccc2c3c1O[C@H]1[C@@H](O)C=C[C@H]4[C@H](C2)N(C=O)CC[C@@]341       ZINC000100393479
REMARK  3 active torsions:
REMARK  status: ('A' for Active; 'I' for Inactive)
REMARK    1  A    between atoms: C_1  and  O_2
REMARK    2  A    between atoms: O_2  and  C_3
REMARK    3  A    between atoms: C_11  and  O_12
REMARK                            x       y       z     vdW  Elec       q    Type
REMARK                         _______ _______ _______ _____ _____    ______ ____
ROOT
ATOM      1  C   UNL     1      -1.845   3.098 -22.343  0.00  0.00    +0.162 A 
ATOM      2  C   UNL     1      -1.867   1.877 -22.012  0.00  0.00    +0.050 A 
ATOM      3  C   UNL     1      -0.805   1.225 -21.920  0.00  0.00    +0.008 A 
ATOM      4  C   UNL     1       0.290   1.785 -22.158  0.00  0.00    -0.038 A 
ATOM      5  C   UNL     1       0.337   2.999 -22.489  0.00  0.00    +0.012 A 
ATOM      6  C   UNL     1       1.431   3.551 -22.725  0.00  0.00    +0.049 C 
ATOM      7  C   UNL     1       2.616   4.289 -23.018  0.00  0.00    +0.035 C 
ATOM      8  C   UNL     1       3.832   3.581 -22.923  0.00  0.00    +0.109 C 
ATOM      9  N   UNL     1       3.767   2.221 -22.551  0.00  0.00    -0.300 N 
ATOM     10  C   UNL     1       4.803   1.508 -22.440  0.00  0.00    +0.328 C 
ATOM     11  O   UNL     1       5.938   1.991 -22.661  0.00  0.00    -0.279 OA
ATOM     12  C   UNL     1       2.472   1.683 -22.303  0.00  0.00    +0.088 C 
ATOM     13  C   UNL     1       2.497   2.903 -22.635  0.00  0.00    +0.046 C 
ATOM     14  C   UNL     1       3.605   3.464 -22.874  0.00  0.00    -0.022 C 
ATOM     15  C   UNL     1       3.634   4.671 -23.202  0.00  0.00    +0.004 C 
ATOM     16  C   UNL     1       2.563   5.337 -23.297  0.00  0.00    +0.178 C 
ATOM     17  C   UNL     1       1.469   4.777 -23.059  0.00  0.00    +0.217 C 
ATOM     18  O   UNL     1      -0.033   4.925 -22.980  0.00  0.00    -0.481 OA
ATOM     19  C   UNL     1       1.378   1.125 -22.065  0.00  0.00    +0.058 C 
ATOM     20  C   UNL     1      -0.735   3.660 -22.583  0.00  0.00    +0.167 A 
ENDROOT
BRANCH   1  22
ATOM     21  C   UNL     1      -3.937   3.352 -21.836  0.00  0.00    +0.277 C 
ATOM     22  O   UNL     1      -2.911   3.745 -22.434  0.00  0.00    -0.491 OA
ENDBRANCH   1  22
BRANCH  16  23
ATOM     23  O   UNL     1       2.598   6.542 -23.626  0.00  0.00    -0.384 OA
ATOM     24  H   UNL     1       2.066   7.062 -23.003  0.00  0.00    +0.210 HD
ENDBRANCH  16  23
TORSDOF 2
ENDMDL
MODEL 9
REMARK VINA RESULT:    -8.679      2.626      4.671
REMARK INTER + INTRA:          -9.579
REMARK INTER:                  -9.441
REMARK INTRA:                  -0.138
REMARK UNBOUND:                -0.138
REMARK  Name = COc1ccc2c3c1O[C@H]1[C@@H](O)C=C[C@H]4[C@H](C2)N(C=O)CC[C@@]341       ZINC000100393479
REMARK  3 active torsions:
REMARK  status: ('A' for Active; 'I' for Inactive)
REMARK    1  A    between atoms: C_1  and  O_2
REMARK    2  A    between atoms: O_2  and  C_3
REMARK    3  A    between atoms: C_11  and  O_12
REMARK                            x       y       z     vdW  Elec       q    Type
REMARK                         _______ _______ _______ _____ _____    ______ ____
ROOT
ATOM      1  C   UNL     1       4.058   2.085 -21.747  0.00  0.00    +0.162 A 
ATOM      2  C   UNL     1       4.607   2.721 -22.693  0.00  0.00    +0.050 A 
ATOM      3  C   UNL     1       3.919   3.194 -23.623  0.00  0.00    +0.008 A 
ATOM      4  C   UNL     1       2.677   3.037 -23.618  0.00  0.00    -0.038 A 
ATOM      5  C   UNL     1       2.108   2.408 -22.688  0.00  0.00    +0.012 A 
ATOM      6  C   UNL     1       0.869   2.255 -22.688  0.00  0.00    +0.049 C 
ATOM      7  C   UNL     1      -0.533   2.017 -22.580  0.00  0.00    +0.035 C 
ATOM      8  C   UNL     1      -1.337   2.539 -23.615  0.00  0.00    +0.109 C 
ATOM      9  N   UNL     1      -0.689   3.242 -24.652  0.00  0.00    -0.300 N 
ATOM     10  C   UNL     1      -1.325   3.744 -25.620  0.00  0.00    +0.328 C 
ATOM     11  O   UNL     1      -2.572   3.632 -25.691  0.00  0.00    -0.279 OA
ATOM     12  C   UNL     1       0.727   3.362 -24.561  0.00  0.00    +0.088 C 
ATOM     13  C   UNL     1       0.176   2.727 -23.617  0.00  0.00    +0.046 C 
ATOM     14  C   UNL     1      -1.080   2.571 -23.616  0.00  0.00    -0.022 C 
ATOM     15  C   UNL     1      -1.628   1.944 -22.684  0.00  0.00    +0.004 C 
ATOM     16  C   UNL     1      -0.939   1.462 -21.740  0.00  0.00    +0.178 C 
ATOM     17  C   UNL     1       0.303   1.619 -21.745  0.00  0.00    +0.217 C 
ATOM     18  O   UNL     1       1.611   1.355 -21.035  0.00  0.00    -0.481 OA
ATOM     19  C   UNL     1       1.969   3.518 -24.565  0.00  0.00    +0.058 C 
ATOM     20  C   UNL     1       2.801   1.929 -21.746  0.00  0.00    +0.167 A 
ENDROOT
BRANCH   1  22
ATOM     21  C   UNL     1       4.963   0.382 -20.757  0.00  0.00    +0.277 C 
ATOM     22  O   UNL     1       4.751   1.614 -20.819  0.00  0.00    -0.491 OA
ENDBRANCH   1  22
BRANCH  16  23
ATOM     23  O   UNL     1      -1.493   0.837 -20.811  0.00  0.00    -0.384 OA
ATOM     24  H   UNL     1      -2.413   1.133 -20.724  0.00  0.00    +0.210 HD
ENDBRANCH  16  23
TORSDOF 2
ENDMDL
