MODEL 1
REMARK VINA RESULT:   -12.758      0.000      0.000
REMARK INTER + INTRA:         -13.131
REMARK INTER:                 -13.131
REMARK INTRA:                   0.000
REMARK UNBOUND:                 0.000
REMARK  Name = ZINC000004104652
REMARK  4 active torsions:
REMARK  status: ('A' for Active; 'I' for Inactive)
REMARK    1  A    between atoms: C_1  and  C_2
REMARK    2  A    between atoms: C_2  and  O_3
REMARK    3  A    between atoms: C_17  and  C_18
REMARK    4  A    between atoms: C_22  and  C_23
REMARK                            x       y       z     vdW  Elec       q    Type
REMARK                         _______ _______ _______ _____ _____    ______ ____
ROOT
ATOM      1  C   UNL     1      -5.185   4.029 -24.089  0.00  0.00    +0.042 C 
ATOM      2  C   UNL     1      -4.940   3.499 -22.931  0.00  0.00    +0.069 C 
ATOM      3  C   UNL     1      -5.019   3.019 -21.723  0.00  0.00    +0.035 C 
ATOM      4  C   UNL     1      -3.832   2.614 -21.370  0.00  0.00    +0.007 C 
ATOM      5  C   UNL     1      -3.018   2.844 -22.360  0.00  0.00    +0.002 C 
ATOM      6  C   UNL     1      -1.747   2.627 -22.509  0.00  0.00    +0.003 C 
ATOM      7  C   UNL     1      -1.061   2.080 -21.544  0.00  0.00    +0.078 C 
ATOM      8  C   UNL     1       0.212   1.865 -21.697  0.00  0.00    +0.138 C 
ATOM      9  C   UNL     1       0.803   2.193 -22.810  0.00  0.00    +0.068 C 
ATOM     10  C   UNL     1       2.076   1.977 -22.960  0.00  0.00    +0.086 C 
ATOM     11  C   UNL     1       2.668   2.306 -24.074  0.00  0.00    +0.134 C 
ATOM     12  C   UNL     1       1.979   2.852 -25.036  0.00  0.00    +0.075 C 
ATOM     13  C   UNL     1       0.706   3.068 -24.885  0.00  0.00    +0.015 C 
ATOM     14  O   UNL     1       3.941   2.090 -24.225  0.00  0.00    -0.297 OA
ATOM     15  C   UNL     1       0.116   2.739 -23.771  0.00  0.00    -0.019 C 
ATOM     16  C   UNL     1      -0.570   3.285 -24.733  0.00  0.00    +0.012 C 
ATOM     17  O   UNL     1       0.900   1.318 -20.735  0.00  0.00    -0.297 OA
ATOM     18  C   UNL     1      -1.159   2.956 -23.620  0.00  0.00    -0.001 C 
ATOM     19  C   UNL     1      -1.844   3.501 -24.582  0.00  0.00    +0.005 C 
ATOM     20  C   UNL     1      -3.113   3.719 -24.437  0.00  0.00    +0.010 C 
ATOM     21  C   UNL     1      -3.699   3.390 -23.327  0.00  0.00    -0.000 C 
ATOM     22  C   UNL     1      -4.425   3.919 -24.225  0.00  0.00    +0.014 C 
ENDROOT
BRANCH   2  23
ATOM     23  O   UNL     1      -6.212   3.704 -22.753  0.00  0.00    -0.388 OA
ATOM     24  H   UNL     1      -6.624   2.897 -22.405  0.00  0.00    +0.210 HD
ENDBRANCH   2  23
TORSDOF 1
ENDMDL
MODEL 2
REMARK VINA RESULT:   -12.592      1.090      2.632
REMARK INTER + INTRA:         -12.960
REMARK INTER:                 -12.960
REMARK INTRA:                   0.000
REMARK UNBOUND:                 0.000
REMARK  Name = ZINC000004104652
REMARK  4 active torsions:
REMARK  status: ('A' for Active; 'I' for Inactive)
REMARK    1  A    between atoms: C_1  and  C_2
REMARK    2  A    between atoms: C_2  and  O_3
REMARK    3  A    between atoms: C_17  and  C_18
REMARK    4  A    between atoms: C_22  and  C_23
REMARK                            x       y       z     vdW  Elec       q    Type
REMARK                         _______ _______ _______ _____ _____    ______ ____
ROOT
ATOM      1  C   UNL     1      -4.918   2.891 -21.420  0.00  0.00    +0.042 C 
ATOM      2  C   UNL     1      -4.677   3.390 -22.593  0.00  0.00    +0.069 C 
ATOM      3  C   UNL     1      -4.757   3.968 -23.757  0.00  0.00    +0.035 C 
ATOM      4  C   UNL     1      -3.579   3.925 -24.312  0.00  0.00    +0.007 C 
ATOM      5  C   UNL     1      -2.770   3.320 -23.491  0.00  0.00    +0.002 C 
ATOM      6  C   UNL     1      -1.507   3.027 -23.571  0.00  0.00    +0.003 C 
ATOM      7  C   UNL     1      -0.828   3.358 -24.634  0.00  0.00    +0.078 C 
ATOM      8  C   UNL     1       0.437   3.063 -24.710  0.00  0.00    +0.138 C 
ATOM      9  C   UNL     1       1.025   2.440 -23.730  0.00  0.00    +0.068 C 
ATOM     10  C   UNL     1       2.288   2.146 -23.809  0.00  0.00    +0.086 C 
ATOM     11  C   UNL     1       2.878   1.522 -22.828  0.00  0.00    +0.134 C 
ATOM     12  C   UNL     1       2.195   1.194 -21.768  0.00  0.00    +0.075 C 
ATOM     13  C   UNL     1       0.931   1.488 -21.690  0.00  0.00    +0.015 C 
ATOM     14  O   UNL     1       4.141   1.229 -22.907  0.00  0.00    -0.297 OA
ATOM     15  C   UNL     1       0.343   2.111 -22.671  0.00  0.00    -0.019 C 
ATOM     16  C   UNL     1      -0.336   1.782 -21.611  0.00  0.00    +0.012 C 
ATOM     17  O   UNL     1       1.118   3.392 -25.771  0.00  0.00    -0.297 OA
ATOM     18  C   UNL     1      -0.922   2.405 -22.592  0.00  0.00    -0.001 C 
ATOM     19  C   UNL     1      -1.601   2.076 -21.533  0.00  0.00    +0.005 C 
ATOM     20  C   UNL     1      -2.862   2.366 -21.449  0.00  0.00    +0.010 C 
ATOM     21  C   UNL     1      -3.444   2.987 -22.427  0.00  0.00    -0.000 C 
ATOM     22  C   UNL     1      -4.164   2.695 -21.423  0.00  0.00    +0.014 C 
ENDROOT
BRANCH   2  23
ATOM     23  O   UNL     1      -5.940   3.696 -22.540  0.00  0.00    -0.388 OA
ATOM     24  H   UNL     1      -6.467   2.953 -22.876  0.00  0.00    +0.210 HD
ENDBRANCH   2  23
TORSDOF 1
ENDMDL
MODEL 3
REMARK VINA RESULT:   -11.917      1.144      6.282
REMARK INTER + INTRA:         -12.266
REMARK INTER:                 -12.266
REMARK INTRA:                   0.000
REMARK UNBOUND:                 0.000
REMARK  Name = ZINC000004104652
REMARK  4 active torsions:
REMARK  status: ('A' for Active; 'I' for Inactive)
REMARK    1  A    between atoms: C_1  and  C_2
REMARK    2  A    between atoms: C_2  and  O_3
REMARK    3  A    between atoms: C_17  and  C_18
REMARK    4  A    between atoms: C_22  and  C_23
REMARK                            x       y       z     vdW  Elec       q    Type
REMARK                         _______ _______ _______ _____ _____    ______ ____
ROOT
ATOM      1  C   UNL     1       2.809   1.337 -21.805  0.00  0.00    +0.042 C 
ATOM      2  C   UNL     1       2.627   1.868 -22.975  0.00  0.00    +0.069 C 
ATOM      3  C   UNL     1       2.769   2.342 -24.178  0.00  0.00    +0.035 C 
ATOM      4  C   UNL     1       1.608   2.768 -24.586  0.00  0.00    +0.007 C 
ATOM      5  C   UNL     1       0.746   2.557 -23.633  0.00  0.00    +0.002 C 
ATOM      6  C   UNL     1      -0.527   2.798 -23.542  0.00  0.00    +0.003 C 
ATOM      7  C   UNL     1      -1.158   3.355 -24.538  0.00  0.00    +0.078 C 
ATOM      8  C   UNL     1      -2.433   3.595 -24.443  0.00  0.00    +0.138 C 
ATOM      9  C   UNL     1      -3.079   3.280 -23.357  0.00  0.00    +0.068 C 
ATOM     10  C   UNL     1      -4.353   3.521 -23.265  0.00  0.00    +0.086 C 
ATOM     11  C   UNL     1      -5.001   3.207 -22.178  0.00  0.00    +0.134 C 
ATOM     12  C   UNL     1      -4.366   2.651 -21.185  0.00  0.00    +0.075 C 
ATOM     13  C   UNL     1      -3.092   2.410 -21.278  0.00  0.00    +0.015 C 
ATOM     14  O   UNL     1      -6.275   3.447 -22.086  0.00  0.00    -0.297 OA
ATOM     15  C   UNL     1      -2.446   2.725 -22.364  0.00  0.00    -0.019 C 
ATOM     16  C   UNL     1      -1.815   2.169 -21.372  0.00  0.00    +0.012 C 
ATOM     17  O   UNL     1      -3.065   4.151 -25.437  0.00  0.00    -0.297 OA
ATOM     18  C   UNL     1      -1.170   2.484 -22.458  0.00  0.00    -0.001 C 
ATOM     19  C   UNL     1      -0.539   1.929 -21.465  0.00  0.00    +0.005 C 
ATOM     20  C   UNL     1       0.731   1.687 -21.552  0.00  0.00    +0.010 C 
ATOM     21  C   UNL     1       1.372   2.001 -22.635  0.00  0.00    -0.000 C 
ATOM     22  C   UNL     1       2.046   1.462 -21.704  0.00  0.00    +0.014 C 
ENDROOT
BRANCH   2  23
ATOM     23  O   UNL     1       3.902   1.638 -23.094  0.00  0.00    -0.388 OA
ATOM     24  H   UNL     1       4.293   2.289 -23.699  0.00  0.00    +0.210 HD
ENDBRANCH   2  23
TORSDOF 1
ENDMDL
MODEL 4
REMARK VINA RESULT:   -10.397      1.922      6.210
REMARK INTER + INTRA:         -10.701
REMARK INTER:                 -10.701
REMARK INTRA:                   0.000
REMARK UNBOUND:                 0.000
REMARK  Name = ZINC000004104652
REMARK  4 active torsions:
REMARK  status: ('A' for Active; 'I' for Inactive)
REMARK    1  A    between atoms: C_1  and  C_2
REMARK    2  A    between atoms: C_2  and  O_3
REMARK    3  A    between atoms: C_17  and  C_18
REMARK    4  A    between atoms: C_22  and  C_23
REMARK                            x       y       z     vdW  Elec       q    Type
REMARK                         _______ _______ _______ _____ _____    ______ ____
ROOT
ATOM      1  C   UNL     1       5.329   2.987 -23.274  0.00  0.00    +0.042 C 
ATOM      2  C   UNL     1       4.743   2.420 -22.265  0.00  0.00    +0.069 C 
ATOM      3  C   UNL     1       4.466   1.821 -21.143  0.00  0.00    +0.035 C 
ATOM      4  C   UNL     1       3.174   1.674 -21.070  0.00  0.00    +0.007 C 
ATOM      5  C   UNL     1       2.651   2.183 -22.148  0.00  0.00    +0.002 C 
ATOM      6  C   UNL     1       1.421   2.287 -22.553  0.00  0.00    +0.003 C 
ATOM      7  C   UNL     1       0.450   1.827 -21.815  0.00  0.00    +0.078 C 
ATOM      8  C   UNL     1      -0.780   1.933 -22.224  0.00  0.00    +0.138 C 
ATOM      9  C   UNL     1      -1.043   2.497 -23.367  0.00  0.00    +0.068 C 
ATOM     10  C   UNL     1      -2.273   2.602 -23.774  0.00  0.00    +0.086 C 
ATOM     11  C   UNL     1      -2.538   3.166 -24.918  0.00  0.00    +0.134 C 
ATOM     12  C   UNL     1      -1.565   3.626 -25.653  0.00  0.00    +0.075 C 
ATOM     13  C   UNL     1      -0.335   3.520 -25.246  0.00  0.00    +0.015 C 
ATOM     14  O   UNL     1      -3.768   3.271 -25.325  0.00  0.00    -0.297 OA
ATOM     15  C   UNL     1      -0.072   2.956 -24.102  0.00  0.00    -0.019 C 
ATOM     16  C   UNL     1       0.898   3.415 -24.838  0.00  0.00    +0.012 C 
ATOM     17  O   UNL     1      -1.752   1.473 -21.488  0.00  0.00    -0.297 OA
ATOM     18  C   UNL     1       1.160   2.851 -23.694  0.00  0.00    -0.001 C 
ATOM     19  C   UNL     1       2.129   3.310 -24.430  0.00  0.00    +0.005 C 
ATOM     20  C   UNL     1       3.358   3.208 -24.029  0.00  0.00    +0.010 C 
ATOM     21  C   UNL     1       3.617   2.645 -22.889  0.00  0.00    -0.000 C 
ATOM     22  C   UNL     1       4.608   3.072 -23.558  0.00  0.00    +0.014 C 
ENDROOT
BRANCH   2  23
ATOM     23  O   UNL     1       5.964   2.302 -21.834  0.00  0.00    -0.388 OA
ATOM     24  H   UNL     1       6.495   3.047 -22.157  0.00  0.00    +0.210 HD
ENDBRANCH   2  23
TORSDOF 1
ENDMDL
MODEL 5
REMARK VINA RESULT:   -10.336      1.451      3.212
REMARK INTER + INTRA:         -10.638
REMARK INTER:                 -10.638
REMARK INTRA:                   0.000
REMARK UNBOUND:                 0.000
REMARK  Name = ZINC000004104652
REMARK  4 active torsions:
REMARK  status: ('A' for Active; 'I' for Inactive)
REMARK    1  A    between atoms: C_1  and  C_2
REMARK    2  A    between atoms: C_2  and  O_3
REMARK    3  A    between atoms: C_17  and  C_18
REMARK    4  A    between atoms: C_22  and  C_23
REMARK                            x       y       z     vdW  Elec       q    Type
REMARK                         _______ _______ _______ _____ _____    ______ ____
ROOT
ATOM      1  C   UNL     1      -3.952   2.900 -22.351  0.00  0.00    +0.042 C 
ATOM      2  C   UNL     1      -3.330   3.233 -23.439  0.00  0.00    +0.069 C 
ATOM      3  C   UNL     1      -3.008   3.662 -24.625  0.00  0.00    +0.035 C 
ATOM      4  C   UNL     1      -1.726   3.492 -24.784  0.00  0.00    +0.007 C 
ATOM      5  C   UNL     1      -1.255   2.958 -23.695  0.00  0.00    +0.002 C 
ATOM      6  C   UNL     1      -0.055   2.597 -23.352  0.00  0.00    +0.003 C 
ATOM      7  C   UNL     1       0.937   2.756 -24.183  0.00  0.00    +0.078 C 
ATOM      8  C   UNL     1       2.136   2.394 -23.836  0.00  0.00    +0.138 C 
ATOM      9  C   UNL     1       2.349   1.872 -22.662  0.00  0.00    +0.068 C 
ATOM     10  C   UNL     1       3.549   1.510 -22.317  0.00  0.00    +0.086 C 
ATOM     11  C   UNL     1       3.762   0.988 -21.142  0.00  0.00    +0.134 C 
ATOM     12  C   UNL     1       2.768   0.830 -20.315  0.00  0.00    +0.075 C 
ATOM     13  C   UNL     1       1.568   1.192 -20.660  0.00  0.00    +0.015 C 
ATOM     14  O   UNL     1       4.962   0.626 -20.798  0.00  0.00    -0.297 OA
ATOM     15  C   UNL     1       1.356   1.714 -21.834  0.00  0.00    -0.019 C 
ATOM     16  C   UNL     1       0.366   1.555 -21.006  0.00  0.00    +0.012 C 
ATOM     17  O   UNL     1       3.129   2.552 -24.665  0.00  0.00    -0.297 OA
ATOM     18  C   UNL     1       0.155   2.076 -22.180  0.00  0.00    -0.001 C 
ATOM     19  C   UNL     1      -0.835   1.917 -21.352  0.00  0.00    +0.005 C 
ATOM     20  C   UNL     1      -2.034   2.276 -21.691  0.00  0.00    +0.010 C 
ATOM     21  C   UNL     1      -2.242   2.796 -22.861  0.00  0.00    -0.000 C 
ATOM     22  C   UNL     1      -3.251   2.668 -22.101  0.00  0.00    +0.014 C 
ENDROOT
BRANCH   2  23
ATOM     23  O   UNL     1      -4.520   3.604 -23.810  0.00  0.00    -0.388 OA
ATOM     24  H   UNL     1      -4.540   3.709 -24.774  0.00  0.00    +0.210 HD
ENDBRANCH   2  23
TORSDOF 1
ENDMDL
