MODEL 1
REMARK VINA RESULT:   -11.557      0.000      0.000
REMARK INTER + INTRA:         -12.678
REMARK INTER:                 -12.581
REMARK INTRA:                  -0.096
REMARK UNBOUND:                -0.107
REMARK  Name = ZINC000013423839
REMARK  4 active torsions:
REMARK  status: ('A' for Active; 'I' for Inactive)
REMARK    1  A    between atoms: C_1  and  C_2
REMARK    2  A    between atoms: C_11  and  O_12
REMARK    3  A    between atoms: C_15  and  C_16
REMARK    4  A    between atoms: C_21  and  C_22
REMARK                            x       y       z     vdW  Elec       q    Type
REMARK                         _______ _______ _______ _____ _____    ______ ____
ROOT
ATOM      1  C   UNL     1      -2.791   2.420 -21.453  0.00  0.00    +0.016 C 
ATOM      2  C   UNL     1      -1.977   2.633 -22.444  0.00  0.00    -0.008 C 
ATOM      3  C   UNL     1      -1.425   2.049 -21.422  0.00  0.00    +0.011 C 
ATOM      4  C   UNL     1      -0.164   1.735 -21.457  0.00  0.00    +0.005 C 
ATOM      5  C   UNL     1       0.545   2.004 -22.513  0.00  0.00    +0.003 C 
ATOM      6  C   UNL     1      -0.007   2.588 -23.534  0.00  0.00    +0.001 C 
ATOM      7  C   UNL     1       0.701   2.857 -24.591  0.00  0.00    +0.031 C 
ATOM      8  C   UNL     1       1.961   2.542 -24.625  0.00  0.00    -0.027 C 
ATOM      9  C   UNL     1       2.514   1.958 -23.603  0.00  0.00    -0.065 C 
ATOM     10  C   UNL     1       3.775   1.643 -23.638  0.00  0.00    +0.062 C 
ATOM     11  C   UNL     1       4.327   1.059 -22.616  0.00  0.00    +0.119 C 
ATOM     12  C   UNL     1       3.619   0.790 -21.560  0.00  0.00    +0.032 C 
ATOM     13  C   UNL     1       2.357   1.105 -21.526  0.00  0.00    +0.014 C 
ATOM     14  C   UNL     1       1.805   1.689 -22.547  0.00  0.00    -0.008 C 
ATOM     15  C   UNL     1       1.097   1.420 -21.491  0.00  0.00    +0.016 C 
ATOM     16  C   UNL     1      -3.191   3.044 -22.660  0.00  0.00    -0.060 C 
ATOM     17  C   UNL     1      -4.189   2.948 -21.832  0.00  0.00    +0.042 C 
ATOM     18  C   UNL     1      -3.234   3.567 -23.849  0.00  0.00    +0.032 C 
ATOM     19  C   UNL     1      -2.046   3.479 -24.368  0.00  0.00    +0.009 C 
ATOM     20  C   UNL     1      -1.269   2.903 -23.500  0.00  0.00    +0.003 C 
ENDROOT
BRANCH  11  21
ATOM     21  O   UNL     1       5.588   0.744 -22.651  0.00  0.00    -0.391 OA
ATOM     22  H   UNL     1       5.826   0.458 -23.546  0.00  0.00    +0.210 HD
ENDBRANCH  11  21
BRANCH  17  23
ATOM     23  C   UNL     1      -5.360   3.400 -22.169  0.00  0.00    +0.251 C 
ATOM     24  O   UNL     1      -6.434   2.804 -21.745  0.00  0.00    -0.296 OA
ENDBRANCH  17  23
TORSDOF 2
ENDMDL
MODEL 2
REMARK VINA RESULT:   -11.505      0.699      6.438
REMARK INTER + INTRA:         -12.621
REMARK INTER:                 -12.528
REMARK INTRA:                  -0.093
REMARK UNBOUND:                -0.107
REMARK  Name = ZINC000013423839
REMARK  4 active torsions:
REMARK  status: ('A' for Active; 'I' for Inactive)
REMARK    1  A    between atoms: C_1  and  C_2
REMARK    2  A    between atoms: C_11  and  O_12
REMARK    3  A    between atoms: C_15  and  C_16
REMARK    4  A    between atoms: C_21  and  C_22
REMARK                            x       y       z     vdW  Elec       q    Type
REMARK                         _______ _______ _______ _____ _____    ______ ____
ROOT
ATOM      1  C   UNL     1       2.006   1.473 -21.642  0.00  0.00    +0.016 C 
ATOM      2  C   UNL     1       1.298   2.089 -22.541  0.00  0.00    -0.008 C 
ATOM      3  C   UNL     1       0.615   1.698 -21.507  0.00  0.00    +0.011 C 
ATOM      4  C   UNL     1      -0.661   1.936 -21.443  0.00  0.00    +0.005 C 
ATOM      5  C   UNL     1      -1.255   2.564 -22.414  0.00  0.00    +0.003 C 
ATOM      6  C   UNL     1      -0.572   2.955 -23.448  0.00  0.00    +0.001 C 
ATOM      7  C   UNL     1      -1.165   3.583 -24.420  0.00  0.00    +0.031 C 
ATOM      8  C   UNL     1      -2.441   3.821 -24.356  0.00  0.00    -0.027 C 
ATOM      9  C   UNL     1      -3.125   3.430 -23.321  0.00  0.00    -0.065 C 
ATOM     10  C   UNL     1      -4.401   3.668 -23.258  0.00  0.00    +0.062 C 
ATOM     11  C   UNL     1      -5.084   3.277 -22.223  0.00  0.00    +0.119 C 
ATOM     12  C   UNL     1      -4.491   2.648 -21.252  0.00  0.00    +0.032 C 
ATOM     13  C   UNL     1      -3.214   2.411 -21.316  0.00  0.00    +0.014 C 
ATOM     14  C   UNL     1      -2.531   2.802 -22.350  0.00  0.00    -0.008 C 
ATOM     15  C   UNL     1      -1.938   2.173 -21.379  0.00  0.00    +0.016 C 
ATOM     16  C   UNL     1       2.558   1.979 -22.844  0.00  0.00    -0.060 C 
ATOM     17  C   UNL     1       3.472   1.409 -22.117  0.00  0.00    +0.042 C 
ATOM     18  C   UNL     1       2.743   2.539 -24.003  0.00  0.00    +0.032 C 
ATOM     19  C   UNL     1       1.598   2.996 -24.416  0.00  0.00    +0.009 C 
ATOM     20  C   UNL     1       0.705   2.717 -23.512  0.00  0.00    +0.003 C 
ENDROOT
BRANCH  11  21
ATOM     21  O   UNL     1      -6.361   3.514 -22.159  0.00  0.00    -0.391 OA
ATOM     22  H   UNL     1      -6.698   3.238 -21.294  0.00  0.00    +0.210 HD
ENDBRANCH  11  21
BRANCH  17  23
ATOM     23  C   UNL     1       4.702   1.364 -22.535  0.00  0.00    +0.251 C 
ATOM     24  O   UNL     1       5.497   0.425 -22.119  0.00  0.00    -0.296 OA
ENDBRANCH  17  23
TORSDOF 2
ENDMDL
MODEL 3
REMARK VINA RESULT:   -10.775      1.368      6.880
REMARK INTER + INTRA:         -11.827
REMARK INTER:                 -11.737
REMARK INTRA:                  -0.090
REMARK UNBOUND:                -0.107
REMARK  Name = ZINC000013423839
REMARK  4 active torsions:
REMARK  status: ('A' for Active; 'I' for Inactive)
REMARK    1  A    between atoms: C_1  and  C_2
REMARK    2  A    between atoms: C_11  and  O_12
REMARK    3  A    between atoms: C_15  and  C_16
REMARK    4  A    between atoms: C_21  and  C_22
REMARK                            x       y       z     vdW  Elec       q    Type
REMARK                         _______ _______ _______ _____ _____    ______ ____
ROOT
ATOM      1  C   UNL     1       2.669   3.749 -24.042  0.00  0.00    +0.016 C 
ATOM      2  C   UNL     1       1.826   3.170 -23.240  0.00  0.00    -0.008 C 
ATOM      3  C   UNL     1       1.267   3.920 -24.143  0.00  0.00    +0.011 C 
ATOM      4  C   UNL     1      -0.027   4.035 -24.181  0.00  0.00    +0.005 C 
ATOM      5  C   UNL     1      -0.763   3.401 -23.317  0.00  0.00    +0.003 C 
ATOM      6  C   UNL     1      -0.204   2.651 -22.415  0.00  0.00    +0.001 C 
ATOM      7  C   UNL     1      -0.939   2.016 -21.550  0.00  0.00    +0.031 C 
ATOM      8  C   UNL     1      -2.233   2.131 -21.589  0.00  0.00    -0.027 C 
ATOM      9  C   UNL     1      -2.792   2.881 -22.492  0.00  0.00    -0.065 C 
ATOM     10  C   UNL     1      -4.086   2.996 -22.531  0.00  0.00    +0.062 C 
ATOM     11  C   UNL     1      -4.645   3.746 -23.434  0.00  0.00    +0.119 C 
ATOM     12  C   UNL     1      -3.910   4.381 -24.298  0.00  0.00    +0.032 C 
ATOM     13  C   UNL     1      -2.615   4.266 -24.259  0.00  0.00    +0.014 C 
ATOM     14  C   UNL     1      -2.057   3.516 -23.356  0.00  0.00    -0.008 C 
ATOM     15  C   UNL     1      -1.322   4.151 -24.220  0.00  0.00    +0.016 C 
ATOM     16  C   UNL     1       3.071   2.892 -22.990  0.00  0.00    -0.060 C 
ATOM     17  C   UNL     1       4.101   3.341 -23.643  0.00  0.00    +0.042 C 
ATOM     18  C   UNL     1       3.105   2.084 -21.971  0.00  0.00    +0.032 C 
ATOM     19  C   UNL     1       1.882   1.865 -21.592  0.00  0.00    +0.009 C 
ATOM     20  C   UNL     1       1.091   2.536 -22.376  0.00  0.00    +0.003 C 
ENDROOT
BRANCH  11  21
ATOM     21  O   UNL     1      -5.940   3.862 -23.473  0.00  0.00    -0.391 OA
ATOM     22  H   UNL     1      -6.267   4.126 -22.599  0.00  0.00    +0.210 HD
ENDBRANCH  11  21
BRANCH  17  23
ATOM     23  C   UNL     1       5.301   2.984 -23.292  0.00  0.00    +0.251 C 
ATOM     24  O   UNL     1       6.326   3.377 -23.986  0.00  0.00    -0.296 OA
ENDBRANCH  17  23
TORSDOF 2
ENDMDL
MODEL 4
REMARK VINA RESULT:   -10.746      1.237      2.598
REMARK INTER + INTRA:         -11.795
REMARK INTER:                 -11.687
REMARK INTRA:                  -0.108
REMARK UNBOUND:                -0.107
REMARK  Name = ZINC000013423839
REMARK  4 active torsions:
REMARK  status: ('A' for Active; 'I' for Inactive)
REMARK    1  A    between atoms: C_1  and  C_2
REMARK    2  A    between atoms: C_11  and  O_12
REMARK    3  A    between atoms: C_15  and  C_16
REMARK    4  A    between atoms: C_21  and  C_22
REMARK                            x       y       z     vdW  Elec       q    Type
REMARK                         _______ _______ _______ _____ _____    ______ ____
ROOT
ATOM      1  C   UNL     1      -1.855   3.752 -25.075  0.00  0.00    +0.016 C 
ATOM      2  C   UNL     1      -1.424   3.172 -23.995  0.00  0.00    -0.008 C 
ATOM      3  C   UNL     1      -0.487   3.468 -24.847  0.00  0.00    +0.011 C 
ATOM      4  C   UNL     1       0.751   3.181 -24.577  0.00  0.00    +0.005 C 
ATOM      5  C   UNL     1       1.053   2.597 -23.455  0.00  0.00    +0.003 C 
ATOM      6  C   UNL     1       0.117   2.300 -22.604  0.00  0.00    +0.001 C 
ATOM      7  C   UNL     1       0.419   1.716 -21.482  0.00  0.00    +0.031 C 
ATOM      8  C   UNL     1       1.657   1.429 -21.212  0.00  0.00    -0.027 C 
ATOM      9  C   UNL     1       2.594   1.725 -22.064  0.00  0.00    -0.065 C 
ATOM     10  C   UNL     1       3.832   1.437 -21.794  0.00  0.00    +0.062 C 
ATOM     11  C   UNL     1       4.769   1.733 -22.645  0.00  0.00    +0.119 C 
ATOM     12  C   UNL     1       4.467   2.317 -23.767  0.00  0.00    +0.032 C 
ATOM     13  C   UNL     1       3.228   2.605 -24.036  0.00  0.00    +0.014 C 
ATOM     14  C   UNL     1       2.292   2.309 -23.185  0.00  0.00    -0.008 C 
ATOM     15  C   UNL     1       1.990   2.893 -24.307  0.00  0.00    +0.016 C 
ATOM     16  C   UNL     1      -2.712   3.348 -24.022  0.00  0.00    -0.060 C 
ATOM     17  C   UNL     1      -3.388   3.902 -24.985  0.00  0.00    +0.042 C 
ATOM     18  C   UNL     1      -3.206   2.873 -22.918  0.00  0.00    +0.032 C 
ATOM     19  C   UNL     1      -2.224   2.403 -22.208  0.00  0.00    +0.009 C 
ATOM     20  C   UNL     1      -1.122   2.588 -22.874  0.00  0.00    +0.003 C 
ENDROOT
BRANCH  11  21
ATOM     21  O   UNL     1       6.008   1.446 -22.375  0.00  0.00    -0.391 OA
ATOM     22  H   UNL     1       6.045   0.620 -21.869  0.00  0.00    +0.210 HD
ENDBRANCH  11  21
BRANCH  17  23
ATOM     23  C   UNL     1      -4.678   4.019 -24.890  0.00  0.00    +0.251 C 
ATOM     24  O   UNL     1      -5.222   5.197 -24.822  0.00  0.00    -0.296 OA
ENDBRANCH  17  23
TORSDOF 2
ENDMDL
MODEL 5
REMARK VINA RESULT:    -9.926      2.095      3.297
REMARK INTER + INTRA:         -10.904
REMARK INTER:                 -10.807
REMARK INTRA:                  -0.097
REMARK UNBOUND:                -0.107
REMARK  Name = ZINC000013423839
REMARK  4 active torsions:
REMARK  status: ('A' for Active; 'I' for Inactive)
REMARK    1  A    between atoms: C_1  and  C_2
REMARK    2  A    between atoms: C_11  and  O_12
REMARK    3  A    between atoms: C_15  and  C_16
REMARK    4  A    between atoms: C_21  and  C_22
REMARK                            x       y       z     vdW  Elec       q    Type
REMARK                         _______ _______ _______ _____ _____    ______ ____
ROOT
ATOM      1  C   UNL     1      -0.572   4.456 -23.255  0.00  0.00    +0.016 C 
ATOM      2  C   UNL     1       0.186   3.470 -22.881  0.00  0.00    -0.008 C 
ATOM      3  C   UNL     1       0.842   4.525 -23.265  0.00  0.00    +0.011 C 
ATOM      4  C   UNL     1       2.141   4.524 -23.250  0.00  0.00    +0.005 C 
ATOM      5  C   UNL     1       2.786   3.468 -22.851  0.00  0.00    +0.003 C 
ATOM      6  C   UNL     1       2.131   2.413 -22.467  0.00  0.00    +0.001 C 
ATOM      7  C   UNL     1       2.776   1.356 -22.069  0.00  0.00    +0.031 C 
ATOM      8  C   UNL     1       4.075   1.355 -22.054  0.00  0.00    -0.027 C 
ATOM      9  C   UNL     1       4.731   2.411 -22.438  0.00  0.00    -0.065 C 
ATOM     10  C   UNL     1       6.030   2.410 -22.423  0.00  0.00    +0.062 C 
ATOM     11  C   UNL     1       6.686   3.465 -22.807  0.00  0.00    +0.119 C 
ATOM     12  C   UNL     1       6.041   4.521 -23.206  0.00  0.00    +0.032 C 
ATOM     13  C   UNL     1       4.741   4.522 -23.220  0.00  0.00    +0.014 C 
ATOM     14  C   UNL     1       4.086   3.467 -22.836  0.00  0.00    -0.008 C 
ATOM     15  C   UNL     1       3.441   4.523 -23.235  0.00  0.00    +0.016 C 
ATOM     16  C   UNL     1      -1.086   3.217 -22.801  0.00  0.00    -0.060 C 
ATOM     17  C   UNL     1      -2.049   4.034 -23.115  0.00  0.00    +0.042 C 
ATOM     18  C   UNL     1      -1.228   2.005 -22.353  0.00  0.00    +0.032 C 
ATOM     19  C   UNL     1      -0.044   1.509 -22.156  0.00  0.00    +0.009 C 
ATOM     20  C   UNL     1       0.831   2.414 -22.482  0.00  0.00    +0.003 C 
ENDROOT
BRANCH  11  21
ATOM     21  O   UNL     1       7.986   3.464 -22.792  0.00  0.00    -0.391 OA
ATOM     22  H   UNL     1       8.305   4.278 -22.375  0.00  0.00    +0.210 HD
ENDBRANCH  11  21
BRANCH  17  23
ATOM     23  C   UNL     1      -3.287   3.658 -22.989  0.00  0.00    +0.251 C 
ATOM     24  O   UNL     1      -4.177   4.055 -23.849  0.00  0.00    -0.296 OA
ENDBRANCH  17  23
TORSDOF 2
ENDMDL
MODEL 6
REMARK VINA RESULT:    -9.843      1.692      2.123
REMARK INTER + INTRA:         -10.813
REMARK INTER:                 -10.712
REMARK INTRA:                  -0.101
REMARK UNBOUND:                -0.107
REMARK  Name = ZINC000013423839
REMARK  4 active torsions:
REMARK  status: ('A' for Active; 'I' for Inactive)
REMARK    1  A    between atoms: C_1  and  C_2
REMARK    2  A    between atoms: C_11  and  O_12
REMARK    3  A    between atoms: C_15  and  C_16
REMARK    4  A    between atoms: C_21  and  C_22
REMARK                            x       y       z     vdW  Elec       q    Type
REMARK                         _______ _______ _______ _____ _____    ______ ____
ROOT
ATOM      1  C   UNL     1      -2.031   2.397 -23.546  0.00  0.00    +0.016 C 
ATOM      2  C   UNL     1      -0.831   2.745 -23.902  0.00  0.00    -0.008 C 
ATOM      3  C   UNL     1      -0.879   2.068 -22.794  0.00  0.00    +0.011 C 
ATOM      4  C   UNL     1       0.218   1.799 -22.150  0.00  0.00    +0.005 C 
ATOM      5  C   UNL     1       1.362   2.206 -22.613  0.00  0.00    +0.003 C 
ATOM      6  C   UNL     1       1.409   2.884 -23.722  0.00  0.00    +0.001 C 
ATOM      7  C   UNL     1       2.553   3.292 -24.186  0.00  0.00    +0.031 C 
ATOM      8  C   UNL     1       3.649   3.023 -23.542  0.00  0.00    -0.027 C 
ATOM      9  C   UNL     1       3.602   2.345 -22.433  0.00  0.00    -0.065 C 
ATOM     10  C   UNL     1       4.698   2.075 -21.789  0.00  0.00    +0.062 C 
ATOM     11  C   UNL     1       4.651   1.398 -20.681  0.00  0.00    +0.119 C 
ATOM     12  C   UNL     1       3.507   0.990 -20.216  0.00  0.00    +0.032 C 
ATOM     13  C   UNL     1       2.411   1.260 -20.861  0.00  0.00    +0.014 C 
ATOM     14  C   UNL     1       2.458   1.937 -21.969  0.00  0.00    -0.008 C 
ATOM     15  C   UNL     1       1.314   1.529 -21.505  0.00  0.00    +0.016 C 
ATOM     16  C   UNL     1      -1.761   3.139 -24.721  0.00  0.00    -0.060 C 
ATOM     17  C   UNL     1      -3.036   2.921 -24.593  0.00  0.00    +0.042 C 
ATOM     18  C   UNL     1      -1.191   3.791 -25.692  0.00  0.00    +0.032 C 
ATOM     19  C   UNL     1       0.089   3.799 -25.473  0.00  0.00    +0.009 C 
ATOM     20  C   UNL     1       0.312   3.154 -24.367  0.00  0.00    +0.003 C 
ENDROOT
BRANCH  11  21
ATOM     21  O   UNL     1       5.747   1.128 -20.036  0.00  0.00    -0.391 OA
ATOM     22  H   UNL     1       5.738   1.581 -19.179  0.00  0.00    +0.210 HD
ENDBRANCH  11  21
BRANCH  17  23
ATOM     23  C   UNL     1      -3.866   3.370 -25.486  0.00  0.00    +0.251 C 
ATOM     24  O   UNL     1      -4.958   3.971 -25.116  0.00  0.00    -0.296 OA
ENDBRANCH  17  23
TORSDOF 2
ENDMDL
MODEL 7
REMARK VINA RESULT:    -9.148      2.075      6.760
REMARK INTER + INTRA:         -10.057
REMARK INTER:                  -9.953
REMARK INTRA:                  -0.105
REMARK UNBOUND:                -0.107
REMARK  Name = ZINC000013423839
REMARK  4 active torsions:
REMARK  status: ('A' for Active; 'I' for Inactive)
REMARK    1  A    between atoms: C_1  and  C_2
REMARK    2  A    between atoms: C_11  and  O_12
REMARK    3  A    between atoms: C_15  and  C_16
REMARK    4  A    between atoms: C_21  and  C_22
REMARK                            x       y       z     vdW  Elec       q    Type
REMARK                         _______ _______ _______ _____ _____    ______ ____
ROOT
ATOM      1  C   UNL     1       4.413   2.279 -22.184  0.00  0.00    +0.016 C 
ATOM      2  C   UNL     1       3.571   3.204 -22.537  0.00  0.00    -0.008 C 
ATOM      3  C   UNL     1       3.010   2.115 -22.103  0.00  0.00    +0.011 C 
ATOM      4  C   UNL     1       1.714   2.028 -22.054  0.00  0.00    +0.005 C 
ATOM      5  C   UNL     1       0.979   3.029 -22.439  0.00  0.00    +0.003 C 
ATOM      6  C   UNL     1       1.541   4.118 -22.873  0.00  0.00    +0.001 C 
ATOM      7  C   UNL     1       0.807   5.119 -23.258  0.00  0.00    +0.031 C 
ATOM      8  C   UNL     1      -0.489   5.032 -23.208  0.00  0.00    -0.027 C 
ATOM      9  C   UNL     1      -1.051   3.943 -22.774  0.00  0.00    -0.065 C 
ATOM     10  C   UNL     1      -2.347   3.855 -22.725  0.00  0.00    +0.062 C 
ATOM     11  C   UNL     1      -2.909   2.766 -22.290  0.00  0.00    +0.119 C 
ATOM     12  C   UNL     1      -2.175   1.765 -21.905  0.00  0.00    +0.032 C 
ATOM     13  C   UNL     1      -0.878   1.853 -21.955  0.00  0.00    +0.014 C 
ATOM     14  C   UNL     1      -0.316   2.941 -22.389  0.00  0.00    -0.008 C 
ATOM     15  C   UNL     1       0.417   1.940 -22.004  0.00  0.00    +0.016 C 
ATOM     16  C   UNL     1       4.819   3.540 -22.684  0.00  0.00    -0.060 C 
ATOM     17  C   UNL     1       5.849   2.798 -22.404  0.00  0.00    +0.042 C 
ATOM     18  C   UNL     1       4.855   4.750 -23.160  0.00  0.00    +0.032 C 
ATOM     19  C   UNL     1       3.631   5.161 -23.307  0.00  0.00    +0.009 C 
ATOM     20  C   UNL     1       2.838   4.205 -22.922  0.00  0.00    +0.003 C 
ENDROOT
BRANCH  11  21
ATOM     21  O   UNL     1      -4.205   2.679 -22.241  0.00  0.00    -0.391 OA
ATOM     22  H   UNL     1      -4.598   3.462 -22.655  0.00  0.00    +0.210 HD
ENDBRANCH  11  21
BRANCH  17  23
ATOM     23  C   UNL     1       7.050   3.254 -22.597  0.00  0.00    +0.251 C 
ATOM     24  O   UNL     1       7.770   2.798 -23.579  0.00  0.00    -0.296 OA
ENDBRANCH  17  23
TORSDOF 2
ENDMDL
MODEL 8
REMARK VINA RESULT:    -8.862      2.937      7.485
REMARK INTER + INTRA:          -9.746
REMARK INTER:                  -9.640
REMARK INTRA:                  -0.106
REMARK UNBOUND:                -0.107
REMARK  Name = ZINC000013423839
REMARK  4 active torsions:
REMARK  status: ('A' for Active; 'I' for Inactive)
REMARK    1  A    between atoms: C_1  and  C_2
REMARK    2  A    between atoms: C_11  and  O_12
REMARK    3  A    between atoms: C_15  and  C_16
REMARK    4  A    between atoms: C_21  and  C_22
REMARK                            x       y       z     vdW  Elec       q    Type
REMARK                         _______ _______ _______ _____ _____    ______ ____
ROOT
ATOM      1  C   UNL     1       5.517   5.287 -22.923  0.00  0.00    +0.016 C 
ATOM      2  C   UNL     1       4.845   4.187 -22.761  0.00  0.00    -0.008 C 
ATOM      3  C   UNL     1       4.116   5.205 -23.107  0.00  0.00    +0.011 C 
ATOM      4  C   UNL     1       2.833   5.064 -23.260  0.00  0.00    +0.005 C 
ATOM      5  C   UNL     1       2.279   3.904 -23.066  0.00  0.00    +0.003 C 
ATOM      6  C   UNL     1       3.008   2.885 -22.720  0.00  0.00    +0.001 C 
ATOM      7  C   UNL     1       2.455   1.725 -22.526  0.00  0.00    +0.031 C 
ATOM      8  C   UNL     1       1.172   1.583 -22.679  0.00  0.00    -0.027 C 
ATOM      9  C   UNL     1       0.442   2.603 -23.025  0.00  0.00    -0.065 C 
ATOM     10  C   UNL     1      -0.841   2.461 -23.178  0.00  0.00    +0.062 C 
ATOM     11  C   UNL     1      -1.570   3.480 -23.524  0.00  0.00    +0.119 C 
ATOM     12  C   UNL     1      -1.017   4.640 -23.718  0.00  0.00    +0.032 C 
ATOM     13  C   UNL     1       0.267   4.781 -23.565  0.00  0.00    +0.014 C 
ATOM     14  C   UNL     1       0.996   3.762 -23.219  0.00  0.00    -0.008 C 
ATOM     15  C   UNL     1       1.550   4.923 -23.413  0.00  0.00    +0.016 C 
ATOM     16  C   UNL     1       6.122   4.063 -22.547  0.00  0.00    -0.060 C 
ATOM     17  C   UNL     1       7.008   5.010 -22.642  0.00  0.00    +0.042 C 
ATOM     18  C   UNL     1       6.357   2.827 -22.220  0.00  0.00    +0.032 C 
ATOM     19  C   UNL     1       5.226   2.186 -22.233  0.00  0.00    +0.009 C 
ATOM     20  C   UNL     1       4.292   3.026 -22.567  0.00  0.00    +0.003 C 
ENDROOT
BRANCH  11  21
ATOM     21  O   UNL     1      -2.854   3.339 -23.677  0.00  0.00    -0.391 OA
ATOM     22  H   UNL     1      -3.318   4.009 -23.153  0.00  0.00    +0.210 HD
ENDBRANCH  11  21
BRANCH  17  23
ATOM     23  C   UNL     1       8.260   4.756 -22.400  0.00  0.00    +0.251 C 
ATOM     24  O   UNL     1       8.822   5.220 -21.324  0.00  0.00    -0.296 OA
ENDBRANCH  17  23
TORSDOF 2
ENDMDL
