MODEL 1
REMARK VINA RESULT:    -8.125      0.000      0.000
REMARK INTER + INTRA:          -9.269
REMARK INTER:                  -9.082
REMARK INTRA:                  -0.187
REMARK UNBOUND:                -0.194
REMARK  Name = ZINC000000338166
REMARK  6 active torsions:
REMARK  status: ('A' for Active; 'I' for Inactive)
REMARK    1  A    between atoms: C_1  and  O_2
REMARK    2  A    between atoms: O_2  and  C_3
REMARK    3  A    between atoms: C_5  and  O_6
REMARK    4  A    between atoms: O_6  and  C_7
REMARK    5  A    between atoms: C_12  and  C_13
REMARK    6  A    between atoms: C_12  and  C_14
REMARK                            x       y       z     vdW  Elec       q    Type
REMARK                         _______ _______ _______ _____ _____    ______ ____
ROOT
ATOM      1  C   UNL     1       0.487   1.716 -22.025  0.00  0.00    +0.127 A 
ATOM      2  C   UNL     1       0.655   2.311 -23.170  0.00  0.00    +0.092 A 
ATOM      3  C   UNL     1      -0.348   2.901 -23.748  0.00  0.00    +0.138 A 
ATOM      4  C   UNL     1      -1.520   2.897 -23.183  0.00  0.00    +0.101 A 
ATOM      5  C   UNL     1      -1.687   2.302 -22.039  0.00  0.00    +0.139 A 
ATOM      6  O   UNL     1      -2.857   2.297 -21.474  0.00  0.00    -0.485 OA
ATOM      7  C   UNL     1      -3.861   2.887 -22.052  0.00  0.00    +0.112 C 
ATOM      8  C   UNL     1      -3.693   3.482 -23.196  0.00  0.00    +0.127 C 
ATOM      9  C   UNL     1      -5.067   3.323 -22.259  0.00  0.00    +0.056 C 
ATOM     10  C   UNL     1      -4.447   2.444 -20.980  0.00  0.00    +0.056 C 
ATOM     11  C   UNL     1      -2.523   3.487 -23.761  0.00  0.00    +0.174 C 
ATOM     12  O   UNL     1      -2.356   4.082 -24.905  0.00  0.00    -0.292 OA
ATOM     13  C   UNL     1      -0.683   1.712 -21.461  0.00  0.00    +0.092 A 
ENDROOT
BRANCH   1  15
ATOM     14  C   UNL     1       2.519   0.755 -22.149  0.00  0.00    +0.277 C 
ATOM     15  O   UNL     1       1.491   1.126 -21.447  0.00  0.00    -0.495 OA
ENDBRANCH   1  15
BRANCH   3  16
ATOM     16  O   UNL     1      -0.181   3.496 -24.892  0.00  0.00    -0.494 OA
ATOM     17  C   UNL     1       1.019   3.713 -25.342  0.00  0.00    +0.277 C 
ENDBRANCH   3  16
TORSDOF 2
ENDMDL
MODEL 2
REMARK VINA RESULT:    -7.657      1.317      3.103
REMARK INTER + INTRA:          -8.746
REMARK INTER:                  -8.566
REMARK INTRA:                  -0.179
REMARK UNBOUND:                -0.194
REMARK  Name = ZINC000000338166
REMARK  6 active torsions:
REMARK  status: ('A' for Active; 'I' for Inactive)
REMARK    1  A    between atoms: C_1  and  O_2
REMARK    2  A    between atoms: O_2  and  C_3
REMARK    3  A    between atoms: C_5  and  O_6
REMARK    4  A    between atoms: O_6  and  C_7
REMARK    5  A    between atoms: C_12  and  C_13
REMARK    6  A    between atoms: C_12  and  C_14
REMARK                            x       y       z     vdW  Elec       q    Type
REMARK                         _______ _______ _______ _____ _____    ______ ____
ROOT
ATOM      1  C   UNL     1       0.131   3.087 -24.587  0.00  0.00    +0.127 A 
ATOM      2  C   UNL     1       0.230   2.680 -23.355  0.00  0.00    +0.092 A 
ATOM      3  C   UNL     1      -0.824   2.644 -22.596  0.00  0.00    +0.138 A 
ATOM      4  C   UNL     1      -1.978   3.015 -23.067  0.00  0.00    +0.101 A 
ATOM      5  C   UNL     1      -2.077   3.421 -24.297  0.00  0.00    +0.139 A 
ATOM      6  O   UNL     1      -3.231   3.792 -24.768  0.00  0.00    -0.485 OA
ATOM      7  C   UNL     1      -4.285   3.756 -24.009  0.00  0.00    +0.112 C 
ATOM      8  C   UNL     1      -4.185   3.349 -22.778  0.00  0.00    +0.127 C 
ATOM      9  C   UNL     1      -5.522   3.875 -23.630  0.00  0.00    +0.056 C 
ATOM     10  C   UNL     1      -4.814   4.204 -25.108  0.00  0.00    +0.056 C 
ATOM     11  C   UNL     1      -3.032   2.979 -22.307  0.00  0.00    +0.174 C 
ATOM     12  O   UNL     1      -2.932   2.572 -21.076  0.00  0.00    -0.292 OA
ATOM     13  C   UNL     1      -1.023   3.457 -25.057  0.00  0.00    +0.092 A 
ENDROOT
BRANCH   1  15
ATOM     14  C   UNL     1       2.174   2.309 -25.126  0.00  0.00    +0.277 C 
ATOM     15  O   UNL     1       1.185   3.123 -25.347  0.00  0.00    -0.495 OA
ENDBRANCH   1  15
BRANCH   3  16
ATOM     16  O   UNL     1      -0.724   2.237 -21.365  0.00  0.00    -0.494 OA
ATOM     17  C   UNL     1       0.274   1.484 -21.008  0.00  0.00    +0.277 C 
ENDBRANCH   3  16
TORSDOF 2
ENDMDL
MODEL 3
REMARK VINA RESULT:    -7.546      1.565      5.062
REMARK INTER + INTRA:          -8.622
REMARK INTER:                  -8.456
REMARK INTRA:                  -0.166
REMARK UNBOUND:                -0.194
REMARK  Name = ZINC000000338166
REMARK  6 active torsions:
REMARK  status: ('A' for Active; 'I' for Inactive)
REMARK    1  A    between atoms: C_1  and  O_2
REMARK    2  A    between atoms: O_2  and  C_3
REMARK    3  A    between atoms: C_5  and  O_6
REMARK    4  A    between atoms: O_6  and  C_7
REMARK    5  A    between atoms: C_12  and  C_13
REMARK    6  A    between atoms: C_12  and  C_14
REMARK                            x       y       z     vdW  Elec       q    Type
REMARK                         _______ _______ _______ _____ _____    ______ ____
ROOT
ATOM      1  C   UNL     1      -3.282   3.737 -25.169  0.00  0.00    +0.127 A 
ATOM      2  C   UNL     1      -4.136   3.753 -24.187  0.00  0.00    +0.092 A 
ATOM      3  C   UNL     1      -3.772   3.356 -23.004  0.00  0.00    +0.138 A 
ATOM      4  C   UNL     1      -2.556   2.943 -22.802  0.00  0.00    +0.101 A 
ATOM      5  C   UNL     1      -1.704   2.926 -23.783  0.00  0.00    +0.139 A 
ATOM      6  O   UNL     1      -0.488   2.513 -23.581  0.00  0.00    -0.485 OA
ATOM      7  C   UNL     1      -0.125   2.116 -22.398  0.00  0.00    +0.112 C 
ATOM      8  C   UNL     1      -0.977   2.133 -21.417  0.00  0.00    +0.127 C 
ATOM      9  C   UNL     1       0.625   1.658 -21.440  0.00  0.00    +0.056 C 
ATOM     10  C   UNL     1       0.989   1.940 -23.047  0.00  0.00    +0.056 C 
ATOM     11  C   UNL     1      -2.193   2.546 -21.619  0.00  0.00    +0.174 C 
ATOM     12  O   UNL     1      -3.045   2.562 -20.637  0.00  0.00    -0.292 OA
ATOM     13  C   UNL     1      -2.067   3.323 -24.967  0.00  0.00    +0.092 A 
ENDROOT
BRANCH   1  15
ATOM     14  C   UNL     1      -3.316   3.439 -27.401  0.00  0.00    +0.277 C 
ATOM     15  O   UNL     1      -3.646   4.133 -26.353  0.00  0.00    -0.495 OA
ENDBRANCH   1  15
BRANCH   3  16
ATOM     16  O   UNL     1      -4.625   3.373 -22.023  0.00  0.00    -0.494 OA
ATOM     17  C   UNL     1      -5.898   3.271 -22.267  0.00  0.00    +0.277 C 
ENDBRANCH   3  16
TORSDOF 2
ENDMDL
MODEL 4
REMARK VINA RESULT:    -7.486      1.635      3.470
REMARK INTER + INTRA:          -8.555
REMARK INTER:                  -8.531
REMARK INTRA:                  -0.023
REMARK UNBOUND:                -0.194
REMARK  Name = ZINC000000338166
REMARK  6 active torsions:
REMARK  status: ('A' for Active; 'I' for Inactive)
REMARK    1  A    between atoms: C_1  and  O_2
REMARK    2  A    between atoms: O_2  and  C_3
REMARK    3  A    between atoms: C_5  and  O_6
REMARK    4  A    between atoms: O_6  and  C_7
REMARK    5  A    between atoms: C_12  and  C_13
REMARK    6  A    between atoms: C_12  and  C_14
REMARK                            x       y       z     vdW  Elec       q    Type
REMARK                         _______ _______ _______ _____ _____    ______ ____
ROOT
ATOM      1  C   UNL     1      -0.519   2.153 -22.322  0.00  0.00    +0.127 A 
ATOM      2  C   UNL     1      -1.396   2.347 -21.381  0.00  0.00    +0.092 A 
ATOM      3  C   UNL     1      -2.590   2.762 -21.682  0.00  0.00    +0.138 A 
ATOM      4  C   UNL     1      -2.909   2.984 -22.923  0.00  0.00    +0.101 A 
ATOM      5  C   UNL     1      -2.033   2.790 -23.863  0.00  0.00    +0.139 A 
ATOM      6  O   UNL     1      -2.351   3.012 -25.104  0.00  0.00    -0.485 OA
ATOM      7  C   UNL     1      -3.545   3.427 -25.404  0.00  0.00    +0.112 C 
ATOM      8  C   UNL     1      -4.421   3.620 -24.464  0.00  0.00    +0.127 C 
ATOM      9  C   UNL     1      -4.557   3.822 -26.117  0.00  0.00    +0.056 C 
ATOM     10  C   UNL     1      -3.020   3.371 -26.593  0.00  0.00    +0.056 C 
ATOM     11  C   UNL     1      -4.103   3.399 -23.223  0.00  0.00    +0.174 C 
ATOM     12  O   UNL     1      -4.980   3.593 -22.283  0.00  0.00    -0.292 OA
ATOM     13  C   UNL     1      -0.837   2.375 -23.562  0.00  0.00    +0.092 A 
ENDROOT
BRANCH   1  15
ATOM     14  C   UNL     1       1.693   2.113 -22.739  0.00  0.00    +0.277 C 
ATOM     15  O   UNL     1       0.676   1.738 -22.022  0.00  0.00    -0.495 OA
ENDBRANCH   1  15
BRANCH   3  16
ATOM     16  O   UNL     1      -3.467   2.956 -20.741  0.00  0.00    -0.494 OA
ATOM     17  C   UNL     1      -3.156   3.670 -19.700  0.00  0.00    +0.277 C 
ENDBRANCH   3  16
TORSDOF 2
ENDMDL
MODEL 5
REMARK VINA RESULT:    -7.454      1.731      2.575
REMARK INTER + INTRA:          -8.519
REMARK INTER:                  -8.528
REMARK INTRA:                   0.008
REMARK UNBOUND:                -0.194
REMARK  Name = ZINC000000338166
REMARK  6 active torsions:
REMARK  status: ('A' for Active; 'I' for Inactive)
REMARK    1  A    between atoms: C_1  and  O_2
REMARK    2  A    between atoms: O_2  and  C_3
REMARK    3  A    between atoms: C_5  and  O_6
REMARK    4  A    between atoms: O_6  and  C_7
REMARK    5  A    between atoms: C_12  and  C_13
REMARK    6  A    between atoms: C_12  and  C_14
REMARK                            x       y       z     vdW  Elec       q    Type
REMARK                         _______ _______ _______ _____ _____    ______ ____
ROOT
ATOM      1  C   UNL     1      -0.638   2.979 -24.227  0.00  0.00    +0.127 A 
ATOM      2  C   UNL     1      -1.297   3.471 -25.235  0.00  0.00    +0.092 A 
ATOM      3  C   UNL     1      -2.575   3.684 -25.135  0.00  0.00    +0.138 A 
ATOM      4  C   UNL     1      -3.195   3.405 -24.026  0.00  0.00    +0.101 A 
ATOM      5  C   UNL     1      -2.537   2.913 -23.019  0.00  0.00    +0.139 A 
ATOM      6  O   UNL     1      -3.157   2.634 -21.911  0.00  0.00    -0.485 OA
ATOM      7  C   UNL     1      -4.435   2.847 -21.810  0.00  0.00    +0.112 C 
ATOM      8  C   UNL     1      -5.093   3.339 -22.818  0.00  0.00    +0.127 C 
ATOM      9  C   UNL     1      -5.628   2.895 -21.298  0.00  0.00    +0.056 C 
ATOM     10  C   UNL     1      -4.191   2.372 -20.625  0.00  0.00    +0.056 C 
ATOM     11  C   UNL     1      -4.474   3.617 -23.926  0.00  0.00    +0.174 C 
ATOM     12  O   UNL     1      -5.132   4.109 -24.933  0.00  0.00    -0.292 OA
ATOM     13  C   UNL     1      -1.258   2.701 -23.120  0.00  0.00    +0.092 A 
ENDROOT
BRANCH   1  15
ATOM     14  C   UNL     1       1.287   3.175 -25.379  0.00  0.00    +0.277 C 
ATOM     15  O   UNL     1       0.640   2.767 -24.328  0.00  0.00    -0.495 OA
ENDBRANCH   1  15
BRANCH   3  16
ATOM     16  O   UNL     1      -3.233   4.175 -26.142  0.00  0.00    -0.494 OA
ATOM     17  C   UNL     1      -3.147   3.613 -27.312  0.00  0.00    +0.277 C 
ENDBRANCH   3  16
TORSDOF 2
ENDMDL
MODEL 6
REMARK VINA RESULT:    -7.334      1.225      4.486
REMARK INTER + INTRA:          -8.386
REMARK INTER:                  -8.231
REMARK INTRA:                  -0.155
REMARK UNBOUND:                -0.194
REMARK  Name = ZINC000000338166
REMARK  6 active torsions:
REMARK  status: ('A' for Active; 'I' for Inactive)
REMARK    1  A    between atoms: C_1  and  O_2
REMARK    2  A    between atoms: O_2  and  C_3
REMARK    3  A    between atoms: C_5  and  O_6
REMARK    4  A    between atoms: O_6  and  C_7
REMARK    5  A    between atoms: C_12  and  C_13
REMARK    6  A    between atoms: C_12  and  C_14
REMARK                            x       y       z     vdW  Elec       q    Type
REMARK                         _______ _______ _______ _____ _____    ______ ____
ROOT
ATOM      1  C   UNL     1      -4.250   3.324 -22.090  0.00  0.00    +0.127 A 
ATOM      2  C   UNL     1      -4.105   3.732 -23.316  0.00  0.00    +0.092 A 
ATOM      3  C   UNL     1      -2.954   3.612 -23.909  0.00  0.00    +0.138 A 
ATOM      4  C   UNL     1      -1.948   3.085 -23.276  0.00  0.00    +0.101 A 
ATOM      5  C   UNL     1      -2.093   2.678 -22.050  0.00  0.00    +0.139 A 
ATOM      6  O   UNL     1      -1.087   2.151 -21.417  0.00  0.00    -0.485 OA
ATOM      7  C   UNL     1       0.063   2.031 -22.010  0.00  0.00    +0.112 C 
ATOM      8  C   UNL     1       0.208   2.439 -23.236  0.00  0.00    +0.127 C 
ATOM      9  C   UNL     1       1.314   1.735 -22.201  0.00  0.00    +0.056 C 
ATOM     10  C   UNL     1       0.353   1.521 -20.850  0.00  0.00    +0.056 C 
ATOM     11  C   UNL     1      -0.798   2.966 -23.869  0.00  0.00    +0.174 C 
ATOM     12  O   UNL     1      -0.653   3.374 -25.095  0.00  0.00    -0.292 OA
ATOM     13  C   UNL     1      -3.244   2.797 -21.457  0.00  0.00    +0.092 A 
ENDROOT
BRANCH   1  15
ATOM     14  C   UNL     1      -6.397   2.689 -21.854  0.00  0.00    +0.277 C 
ATOM     15  O   UNL     1      -5.400   3.443 -21.497  0.00  0.00    -0.495 OA
ENDBRANCH   1  15
BRANCH   3  16
ATOM     16  O   UNL     1      -2.810   4.020 -25.135  0.00  0.00    -0.494 OA
ATOM     17  C   UNL     1      -3.824   4.005 -25.949  0.00  0.00    +0.277 C 
ENDBRANCH   3  16
TORSDOF 2
ENDMDL
MODEL 7
REMARK VINA RESULT:    -7.304      1.308      5.349
REMARK INTER + INTRA:          -8.351
REMARK INTER:                  -8.180
REMARK INTRA:                  -0.171
REMARK UNBOUND:                -0.194
REMARK  Name = ZINC000000338166
REMARK  6 active torsions:
REMARK  status: ('A' for Active; 'I' for Inactive)
REMARK    1  A    between atoms: C_1  and  O_2
REMARK    2  A    between atoms: O_2  and  C_3
REMARK    3  A    between atoms: C_5  and  O_6
REMARK    4  A    between atoms: O_6  and  C_7
REMARK    5  A    between atoms: C_12  and  C_13
REMARK    6  A    between atoms: C_12  and  C_14
REMARK                            x       y       z     vdW  Elec       q    Type
REMARK                         _______ _______ _______ _____ _____    ______ ____
ROOT
ATOM      1  C   UNL     1      -2.693   4.024 -24.283  0.00  0.00    +0.127 A 
ATOM      2  C   UNL     1      -2.940   3.694 -23.049  0.00  0.00    +0.092 A 
ATOM      3  C   UNL     1      -2.032   3.092 -22.342  0.00  0.00    +0.138 A 
ATOM      4  C   UNL     1      -0.874   2.817 -22.868  0.00  0.00    +0.101 A 
ATOM      5  C   UNL     1      -0.626   3.146 -24.101  0.00  0.00    +0.139 A 
ATOM      6  O   UNL     1       0.530   2.872 -24.627  0.00  0.00    -0.485 OA
ATOM      7  C   UNL     1       1.439   2.270 -23.920  0.00  0.00    +0.112 C 
ATOM      8  C   UNL     1       1.191   1.941 -22.687  0.00  0.00    +0.127 C 
ATOM      9  C   UNL     1       2.570   1.714 -23.603  0.00  0.00    +0.056 C 
ATOM     10  C   UNL     1       2.080   2.405 -25.043  0.00  0.00    +0.056 C 
ATOM     11  C   UNL     1       0.035   2.215 -22.161  0.00  0.00    +0.174 C 
ATOM     12  O   UNL     1      -0.213   1.886 -20.928  0.00  0.00    -0.292 OA
ATOM     13  C   UNL     1      -1.536   3.749 -24.808  0.00  0.00    +0.092 A 
ENDROOT
BRANCH   1  15
ATOM     14  C   UNL     1      -4.813   4.157 -25.027  0.00  0.00    +0.277 C 
ATOM     15  O   UNL     1      -3.601   4.626 -24.990  0.00  0.00    -0.495 OA
ENDBRANCH   1  15
BRANCH   3  16
ATOM     16  O   UNL     1      -2.279   2.763 -21.109  0.00  0.00    -0.494 OA
ATOM     17  C   UNL     1      -3.181   3.411 -20.432  0.00  0.00    +0.277 C 
ENDBRANCH   3  16
TORSDOF 2
ENDMDL
MODEL 8
REMARK VINA RESULT:    -7.203      2.126      3.735
REMARK INTER + INTRA:          -8.239
REMARK INTER:                  -8.063
REMARK INTRA:                  -0.177
REMARK UNBOUND:                -0.194
REMARK  Name = ZINC000000338166
REMARK  6 active torsions:
REMARK  status: ('A' for Active; 'I' for Inactive)
REMARK    1  A    between atoms: C_1  and  O_2
REMARK    2  A    between atoms: O_2  and  C_3
REMARK    3  A    between atoms: C_5  and  O_6
REMARK    4  A    between atoms: O_6  and  C_7
REMARK    5  A    between atoms: C_12  and  C_13
REMARK    6  A    between atoms: C_12  and  C_14
REMARK                            x       y       z     vdW  Elec       q    Type
REMARK                         _______ _______ _______ _____ _____    ______ ____
ROOT
ATOM      1  C   UNL     1       2.830   4.251 -23.159  0.00  0.00    +0.127 A 
ATOM      2  C   UNL     1       2.960   3.056 -22.660  0.00  0.00    +0.092 A 
ATOM      3  C   UNL     1       1.917   2.294 -22.520  0.00  0.00    +0.138 A 
ATOM      4  C   UNL     1       0.743   2.725 -22.879  0.00  0.00    +0.101 A 
ATOM      5  C   UNL     1       0.614   3.918 -23.377  0.00  0.00    +0.139 A 
ATOM      6  O   UNL     1      -0.559   4.349 -23.736  0.00  0.00    -0.485 OA
ATOM      7  C   UNL     1      -1.602   3.587 -23.597  0.00  0.00    +0.112 C 
ATOM      8  C   UNL     1      -1.472   2.393 -23.098  0.00  0.00    +0.127 C 
ATOM      9  C   UNL     1      -2.839   3.190 -23.634  0.00  0.00    +0.056 C 
ATOM     10  C   UNL     1      -2.162   4.643 -24.108  0.00  0.00    +0.056 C 
ATOM     11  C   UNL     1      -0.300   1.962 -22.739  0.00  0.00    +0.174 C 
ATOM     12  O   UNL     1      -0.170   0.768 -22.241  0.00  0.00    -0.292 OA
ATOM     13  C   UNL     1       1.658   4.681 -23.517  0.00  0.00    +0.092 A 
ENDROOT
BRANCH   1  15
ATOM     14  C   UNL     1       5.058   4.549 -23.035  0.00  0.00    +0.277 C 
ATOM     15  O   UNL     1       3.873   5.014 -23.298  0.00  0.00    -0.495 OA
ENDBRANCH   1  15
BRANCH   3  16
ATOM     16  O   UNL     1       2.046   1.100 -22.022  0.00  0.00    -0.494 OA
ATOM     17  C   UNL     1       3.205   0.509 -22.043  0.00  0.00    +0.277 C 
ENDBRANCH   3  16
TORSDOF 2
ENDMDL
MODEL 9
REMARK VINA RESULT:    -7.157      1.680      3.718
REMARK INTER + INTRA:          -8.187
REMARK INTER:                  -7.993
REMARK INTRA:                  -0.194
REMARK UNBOUND:                -0.194
REMARK  Name = ZINC000000338166
REMARK  6 active torsions:
REMARK  status: ('A' for Active; 'I' for Inactive)
REMARK    1  A    between atoms: C_1  and  O_2
REMARK    2  A    between atoms: O_2  and  C_3
REMARK    3  A    between atoms: C_5  and  O_6
REMARK    4  A    between atoms: O_6  and  C_7
REMARK    5  A    between atoms: C_12  and  C_13
REMARK    6  A    between atoms: C_12  and  C_14
REMARK                            x       y       z     vdW  Elec       q    Type
REMARK                         _______ _______ _______ _____ _____    ______ ____
ROOT
ATOM      1  C   UNL     1      -2.403   3.431 -25.742  0.00  0.00    +0.127 A 
ATOM      2  C   UNL     1      -1.216   3.224 -25.252  0.00  0.00    +0.092 A 
ATOM      3  C   UNL     1      -1.071   2.966 -23.987  0.00  0.00    +0.138 A 
ATOM      4  C   UNL     1      -2.113   2.914 -23.210  0.00  0.00    +0.101 A 
ATOM      5  C   UNL     1      -3.300   3.120 -23.700  0.00  0.00    +0.139 A 
ATOM      6  O   UNL     1      -4.341   3.069 -22.925  0.00  0.00    -0.485 OA
ATOM      7  C   UNL     1      -4.197   2.811 -21.659  0.00  0.00    +0.112 C 
ATOM      8  C   UNL     1      -3.011   2.604 -21.169  0.00  0.00    +0.127 C 
ATOM      9  C   UNL     1      -4.501   2.598 -20.413  0.00  0.00    +0.056 C 
ATOM     10  C   UNL     1      -5.489   2.943 -21.716  0.00  0.00    +0.056 C 
ATOM     11  C   UNL     1      -1.969   2.656 -21.945  0.00  0.00    +0.174 C 
ATOM     12  O   UNL     1      -0.782   2.449 -21.455  0.00  0.00    -0.292 OA
ATOM     13  C   UNL     1      -3.444   3.379 -24.966  0.00  0.00    +0.092 A 
ENDROOT
BRANCH   1  15
ATOM     14  C   UNL     1      -3.660   3.390 -27.609  0.00  0.00    +0.277 C 
ATOM     15  O   UNL     1      -2.547   3.689 -27.008  0.00  0.00    -0.495 OA
ENDBRANCH   1  15
BRANCH   3  16
ATOM     16  O   UNL     1       0.115   2.759 -23.497  0.00  0.00    -0.494 OA
ATOM     17  C   UNL     1       1.133   2.625 -24.294  0.00  0.00    +0.277 C 
ENDBRANCH   3  16
TORSDOF 2
ENDMDL
