MODEL 1
REMARK VINA RESULT:   -10.639      0.000      0.000
REMARK INTER + INTRA:         -10.950
REMARK INTER:                 -10.950
REMARK INTRA:                   0.000
REMARK UNBOUND:                 0.000
REMARK  Name = O=CN1CC[C@@]23CC(=O)CC[C@@H]2[C@H]1Cc1cc(Br)c(O)cc13                 ZINC000253505262
REMARK  1 active torsions:
REMARK  status: ('A' for Active; 'I' for Inactive)
REMARK    1  A    between atoms: C_19  and  O_20
REMARK                            x       y       z     vdW  Elec       q    Type
REMARK                         _______ _______ _______ _____ _____    ______ ____
ROOT
ATOM      1  O   UNL     1       1.189   3.868 -26.074  0.00  0.00    -0.279 OA
ATOM      2  C   UNL     1       0.224   3.760 -25.454  0.00  0.00    +0.328 C 
ATOM      3  N   UNL     1      -0.561   3.333 -24.164  0.00  0.00    -0.300 N 
ATOM      4  C   UNL     1      -1.252   3.046 -23.234  0.00  0.00    +0.109 C 
ATOM      5  C   UNL     1      -0.893   2.530 -22.179  0.00  0.00    +0.031 C 
ATOM      6  C   UNL     1       0.024   2.320 -22.042  0.00  0.00    +0.009 C 
ATOM      7  C   UNL     1       0.482   1.788 -20.986  0.00  0.00    +0.086 C 
ATOM      8  C   UNL     1       1.755   1.537 -20.892  0.00  0.00    +0.134 C 
ATOM      9  C   UNL     1       2.585   1.827 -21.883  0.00  0.00    +0.075 C 
ATOM     10  C   UNL     1       2.147   2.378 -22.990  0.00  0.00    +0.014 C 
ATOM     11  O   UNL     1       2.134   0.984 -19.756  0.00  0.00    -0.297 OA
ATOM     12  C   UNL     1      -1.585   2.741 -22.402  0.00  0.00    -0.034 A 
ATOM     13  C   UNL     1      -2.371   2.446 -21.417  0.00  0.00    +0.051 A 
ATOM     14  C   UNL     1      -3.626   2.693 -21.507  0.00  0.00    +0.131 A 
ATOM     15  C   UNL     1      -4.105   3.235 -22.580  0.00  0.00    +0.059 A 
ATOM     16 BR   UNL     1      -5.378   3.419 -22.519  0.00  0.00    -0.047 Br
ATOM     17  C   UNL     1      -3.315   3.533 -23.573  0.00  0.00    +0.023 A 
ATOM     18  C   UNL     1      -2.057   3.291 -23.493  0.00  0.00    -0.041 A 
ATOM     19  C   UNL     1      -1.287   3.553 -24.396  0.00  0.00    +0.058 C 
ATOM     20  C   UNL     1       0.915   2.640 -23.126  0.00  0.00    +0.021 C 
ATOM     21  C   UNL     1       0.303   3.206 -24.200  0.00  0.00    +0.084 C 
ENDROOT
BRANCH  14  22
ATOM     22  O   UNL     1      -4.348   2.352 -20.441  0.00  0.00    -0.506 OA
ATOM     23  H   UNL     1      -4.766   3.014 -19.927  0.00  0.00    +0.292 HD
ENDBRANCH  14  22
TORSDOF 1
ENDMDL
MODEL 2
REMARK VINA RESULT:   -10.356      1.299      3.410
REMARK INTER + INTRA:         -10.659
REMARK INTER:                 -10.659
REMARK INTRA:                   0.000
REMARK UNBOUND:                 0.000
REMARK  Name = O=CN1CC[C@@]23CC(=O)CC[C@@H]2[C@H]1Cc1cc(Br)c(O)cc13                 ZINC000253505262
REMARK  1 active torsions:
REMARK  status: ('A' for Active; 'I' for Inactive)
REMARK    1  A    between atoms: C_19  and  O_20
REMARK                            x       y       z     vdW  Elec       q    Type
REMARK                         _______ _______ _______ _____ _____    ______ ____
ROOT
ATOM      1  O   UNL     1       1.490   1.196 -20.304  0.00  0.00    -0.279 OA
ATOM      2  C   UNL     1       0.432   1.518 -20.628  0.00  0.00    +0.328 C 
ATOM      3  N   UNL     1      -0.572   2.188 -21.629  0.00  0.00    -0.300 N 
ATOM      4  C   UNL     1      -1.420   2.671 -22.318  0.00  0.00    +0.109 C 
ATOM      5  C   UNL     1      -1.262   3.220 -23.405  0.00  0.00    +0.031 C 
ATOM      6  C   UNL     1      -0.391   3.292 -23.779  0.00  0.00    +0.009 C 
ATOM      7  C   UNL     1      -0.138   3.841 -24.893  0.00  0.00    +0.086 C 
ATOM      8  C   UNL     1       1.089   3.891 -25.322  0.00  0.00    +0.134 C 
ATOM      9  C   UNL     1       2.083   3.376 -24.613  0.00  0.00    +0.075 C 
ATOM     10  C   UNL     1       1.859   2.800 -23.456  0.00  0.00    +0.014 C 
ATOM     11  O   UNL     1       1.251   4.481 -26.490  0.00  0.00    -0.297 OA
ATOM     12  C   UNL     1      -1.898   3.103 -23.010  0.00  0.00    -0.034 A 
ATOM     13  C   UNL     1      -2.848   3.615 -23.726  0.00  0.00    +0.051 A 
ATOM     14  C   UNL     1      -4.058   3.567 -23.305  0.00  0.00    +0.131 A 
ATOM     15  C   UNL     1      -4.330   3.009 -22.169  0.00  0.00    +0.059 A 
ATOM     16 BR   UNL     1      -5.585   3.040 -21.886  0.00  0.00    -0.047 Br
ATOM     17  C   UNL     1      -3.374   2.493 -21.448  0.00  0.00    +0.023 A 
ATOM     18  C   UNL     1      -2.159   2.536 -21.859  0.00  0.00    -0.041 A 
ATOM     19  C   UNL     1      -1.240   2.067 -21.217  0.00  0.00    +0.058 C 
ATOM     20  C   UNL     1       0.679   2.729 -22.999  0.00  0.00    +0.021 C 
ATOM     21  C   UNL     1       0.279   2.170 -21.826  0.00  0.00    +0.084 C 
ENDROOT
BRANCH  14  22
ATOM     22  O   UNL     1      -4.961   4.121 -24.113  0.00  0.00    -0.506 OA
ATOM     23  H   UNL     1      -4.755   4.266 -25.016  0.00  0.00    +0.292 HD
ENDBRANCH  14  22
TORSDOF 1
ENDMDL
MODEL 3
REMARK VINA RESULT:   -10.227      2.394      5.579
REMARK INTER + INTRA:         -10.526
REMARK INTER:                 -10.526
REMARK INTRA:                   0.000
REMARK UNBOUND:                 0.000
REMARK  Name = O=CN1CC[C@@]23CC(=O)CC[C@@H]2[C@H]1Cc1cc(Br)c(O)cc13                 ZINC000253505262
REMARK  1 active torsions:
REMARK  status: ('A' for Active; 'I' for Inactive)
REMARK    1  A    between atoms: C_19  and  O_20
REMARK                            x       y       z     vdW  Elec       q    Type
REMARK                         _______ _______ _______ _____ _____    ______ ____
ROOT
ATOM      1  O   UNL     1      -4.810   2.758 -20.745  0.00  0.00    -0.279 OA
ATOM      2  C   UNL     1      -3.693   2.578 -20.966  0.00  0.00    +0.328 C 
ATOM      3  N   UNL     1      -2.455   2.533 -21.927  0.00  0.00    -0.300 N 
ATOM      4  C   UNL     1      -1.451   2.466 -22.570  0.00  0.00    +0.109 C 
ATOM      5  C   UNL     1      -1.326   2.698 -23.769  0.00  0.00    +0.031 C 
ATOM      6  C   UNL     1      -2.081   2.962 -24.283  0.00  0.00    +0.009 C 
ATOM      7  C   UNL     1      -2.042   3.221 -25.524  0.00  0.00    +0.086 C 
ATOM      8  C   UNL     1      -3.130   3.575 -26.141  0.00  0.00    +0.134 C 
ATOM      9  C   UNL     1      -4.283   3.671 -25.496  0.00  0.00    +0.075 C 
ATOM     10  C   UNL     1      -4.361   3.411 -24.213  0.00  0.00    +0.014 C 
ATOM     11  O   UNL     1      -2.988   3.822 -27.429  0.00  0.00    -0.297 OA
ATOM     12  C   UNL     1      -0.806   2.484 -23.261  0.00  0.00    -0.034 A 
ATOM     13  C   UNL     1       0.306   2.399 -23.920  0.00  0.00    +0.051 A 
ATOM     14  C   UNL     1       1.380   2.050 -23.313  0.00  0.00    +0.131 A 
ATOM     15  C   UNL     1       1.353   1.783 -22.046  0.00  0.00    +0.059 A 
ATOM     16 BR   UNL     1       2.507   1.449 -21.584  0.00  0.00    -0.047 Br
ATOM     17  C   UNL     1       0.235   1.869 -21.383  0.00  0.00    +0.023 A 
ATOM     18  C   UNL     1      -0.846   2.217 -21.980  0.00  0.00    -0.041 A 
ATOM     19  C   UNL     1      -1.909   2.308 -21.398  0.00  0.00    +0.058 C 
ATOM     20  C   UNL     1      -3.326   3.063 -23.570  0.00  0.00    +0.021 C 
ATOM     21  C   UNL     1      -3.236   2.760 -22.247  0.00  0.00    +0.084 C 
ENDROOT
BRANCH  14  22
ATOM     22  O   UNL     1       2.469   1.993 -24.078  0.00  0.00    -0.506 OA
ATOM     23  H   UNL     1       2.643   2.674 -24.697  0.00  0.00    +0.292 HD
ENDBRANCH  14  22
TORSDOF 1
ENDMDL
MODEL 4
REMARK VINA RESULT:   -10.114      2.140      4.546
REMARK INTER + INTRA:         -10.410
REMARK INTER:                 -10.410
REMARK INTRA:                   0.000
REMARK UNBOUND:                 0.000
REMARK  Name = O=CN1CC[C@@]23CC(=O)CC[C@@H]2[C@H]1Cc1cc(Br)c(O)cc13                 ZINC000253505262
REMARK  1 active torsions:
REMARK  status: ('A' for Active; 'I' for Inactive)
REMARK    1  A    between atoms: C_19  and  O_20
REMARK                            x       y       z     vdW  Elec       q    Type
REMARK                         _______ _______ _______ _____ _____    ______ ____
ROOT
ATOM      1  O   UNL     1      -1.835   3.740 -26.258  0.00  0.00    -0.279 OA
ATOM      2  C   UNL     1      -1.061   3.375 -25.486  0.00  0.00    +0.328 C 
ATOM      3  N   UNL     1      -0.650   2.887 -24.054  0.00  0.00    -0.300 N 
ATOM      4  C   UNL     1      -0.230   2.506 -23.002  0.00  0.00    +0.109 C 
ATOM      5  C   UNL     1      -0.874   2.329 -21.972  0.00  0.00    +0.031 C 
ATOM      6  C   UNL     1      -1.810   2.498 -21.961  0.00  0.00    +0.009 C 
ATOM      7  C   UNL     1      -2.550   2.342 -20.944  0.00  0.00    +0.086 C 
ATOM      8  C   UNL     1      -3.822   2.601 -21.028  0.00  0.00    +0.134 C 
ATOM      9  C   UNL     1      -4.360   3.027 -22.161  0.00  0.00    +0.075 C 
ATOM     10  C   UNL     1      -3.625   3.200 -23.233  0.00  0.00    +0.014 C 
ATOM     11  O   UNL     1      -4.507   2.409 -19.918  0.00  0.00    -0.297 OA
ATOM     12  C   UNL     1      -0.135   2.230 -22.103  0.00  0.00    -0.034 A 
ATOM     13  C   UNL     1       0.362   1.815 -20.981  0.00  0.00    +0.051 A 
ATOM     14  C   UNL     1       1.615   1.559 -20.896  0.00  0.00    +0.131 A 
ATOM     15  C   UNL     1       2.382   1.714 -21.928  0.00  0.00    +0.059 A 
ATOM     16 BR   UNL     1       3.610   1.417 -21.685  0.00  0.00    -0.047 Br
ATOM     17  C   UNL     1       1.882   2.131 -23.057  0.00  0.00    +0.023 A 
ATOM     18  C   UNL     1       0.629   2.391 -23.154  0.00  0.00    -0.041 A 
ATOM     19  C   UNL     1       0.125   2.782 -24.188  0.00  0.00    +0.058 C 
ATOM     20  C   UNL     1      -2.382   2.960 -23.198  0.00  0.00    +0.021 C 
ATOM     21  C   UNL     1      -1.485   3.087 -24.213  0.00  0.00    +0.084 C 
ENDROOT
BRANCH  14  22
ATOM     22  O   UNL     1       2.027   1.138 -19.701  0.00  0.00    -0.506 OA
ATOM     23  H   UNL     1       2.792   1.512 -19.311  0.00  0.00    +0.292 HD
ENDBRANCH  14  22
TORSDOF 1
ENDMDL
MODEL 5
REMARK VINA RESULT:    -9.842      2.402      4.673
REMARK INTER + INTRA:         -10.129
REMARK INTER:                 -10.129
REMARK INTRA:                   0.000
REMARK UNBOUND:                 0.000
REMARK  Name = O=CN1CC[C@@]23CC(=O)CC[C@@H]2[C@H]1Cc1cc(Br)c(O)cc13                 ZINC000253505262
REMARK  1 active torsions:
REMARK  status: ('A' for Active; 'I' for Inactive)
REMARK    1  A    between atoms: C_19  and  O_20
REMARK                            x       y       z     vdW  Elec       q    Type
REMARK                         _______ _______ _______ _____ _____    ______ ____
ROOT
ATOM      1  O   UNL     1      -4.058   4.035 -26.605  0.00  0.00    -0.279 OA
ATOM      2  C   UNL     1      -3.017   3.794 -26.174  0.00  0.00    +0.328 C 
ATOM      3  N   UNL     1      -2.053   3.410 -24.998  0.00  0.00    -0.300 N 
ATOM      4  C   UNL     1      -1.234   3.120 -24.178  0.00  0.00    +0.109 C 
ATOM      5  C   UNL     1      -1.430   2.901 -22.986  0.00  0.00    +0.031 C 
ATOM      6  C   UNL     1      -2.311   2.954 -22.631  0.00  0.00    +0.009 C 
ATOM      7  C   UNL     1      -2.603   2.744 -21.416  0.00  0.00    +0.086 C 
ATOM      8  C   UNL     1      -3.839   2.842 -21.025  0.00  0.00    +0.134 C 
ATOM      9  C   UNL     1      -4.803   3.159 -21.877  0.00  0.00    +0.075 C 
ATOM     10  C   UNL     1      -4.539   3.384 -23.141  0.00  0.00    +0.014 C 
ATOM     11  O   UNL     1      -4.043   2.605 -19.744  0.00  0.00    -0.297 OA
ATOM     12  C   UNL     1      -0.783   2.889 -23.379  0.00  0.00    -0.034 A 
ATOM     13  C   UNL     1       0.137   2.577 -22.523  0.00  0.00    +0.051 A 
ATOM     14  C   UNL     1       1.356   2.480 -22.906  0.00  0.00    +0.131 A 
ATOM     15  C   UNL     1       1.667   2.693 -24.145  0.00  0.00    +0.059 A 
ATOM     16 BR   UNL     1       2.927   2.557 -24.372  0.00  0.00    -0.047 Br
ATOM     17  C   UNL     1       0.742   3.006 -25.007  0.00  0.00    +0.023 A 
ATOM     18  C   UNL     1      -0.482   3.106 -24.635  0.00  0.00    -0.041 A 
ATOM     19  C   UNL     1      -1.374   3.396 -25.408  0.00  0.00    +0.058 C 
ATOM     20  C   UNL     1      -3.348   3.300 -23.567  0.00  0.00    +0.021 C 
ATOM     21  C   UNL     1      -2.907   3.500 -24.838  0.00  0.00    +0.084 C 
ENDROOT
BRANCH  14  22
ATOM     22  O   UNL     1       2.225   2.155 -21.950  0.00  0.00    -0.506 OA
ATOM     23  H   UNL     1       2.404   1.254 -21.766  0.00  0.00    +0.292 HD
ENDBRANCH  14  22
TORSDOF 1
ENDMDL
MODEL 6
REMARK VINA RESULT:    -8.566      2.634      4.831
REMARK INTER + INTRA:          -8.816
REMARK INTER:                  -8.816
REMARK INTRA:                   0.000
REMARK UNBOUND:                 0.000
REMARK  Name = O=CN1CC[C@@]23CC(=O)CC[C@@H]2[C@H]1Cc1cc(Br)c(O)cc13                 ZINC000253505262
REMARK  1 active torsions:
REMARK  status: ('A' for Active; 'I' for Inactive)
REMARK    1  A    between atoms: C_19  and  O_20
REMARK                            x       y       z     vdW  Elec       q    Type
REMARK                         _______ _______ _______ _____ _____    ______ ____
ROOT
ATOM      1  O   UNL     1       2.315   0.832 -19.303  0.00  0.00    -0.279 OA
ATOM      2  C   UNL     1       1.827   1.269 -20.251  0.00  0.00    +0.328 C 
ATOM      3  N   UNL     1       1.891   1.991 -21.642  0.00  0.00    -0.300 N 
ATOM      4  C   UNL     1       1.827   2.532 -22.705  0.00  0.00    +0.109 C 
ATOM      5  C   UNL     1       2.764   2.970 -23.367  0.00  0.00    +0.031 C 
ATOM      6  C   UNL     1       3.653   2.895 -23.040  0.00  0.00    +0.009 C 
ATOM      7  C   UNL     1       4.677   3.319 -23.656  0.00  0.00    +0.086 C 
ATOM      8  C   UNL     1       5.855   3.169 -23.126  0.00  0.00    +0.134 C 
ATOM      9  C   UNL     1       6.006   2.579 -21.949  0.00  0.00    +0.075 C 
ATOM     10  C   UNL     1       4.970   2.128 -21.283  0.00  0.00    +0.014 C 
ATOM     11  O   UNL     1       6.856   3.642 -23.842  0.00  0.00    -0.297 OA
ATOM     12  C   UNL     1       2.022   2.971 -23.519  0.00  0.00    -0.034 A 
ATOM     13  C   UNL     1       1.907   3.552 -24.671  0.00  0.00    +0.051 A 
ATOM     14  C   UNL     1       0.746   3.701 -25.196  0.00  0.00    +0.131 A 
ATOM     15  C   UNL     1      -0.307   3.272 -24.576  0.00  0.00    +0.059 A 
ATOM     16 BR   UNL     1      -1.393   3.494 -25.229  0.00  0.00    -0.047 Br
ATOM     17  C   UNL     1      -0.192   2.687 -23.417  0.00  0.00    +0.023 A 
ATOM     18  C   UNL     1       0.965   2.533 -22.883  0.00  0.00    -0.041 A 
ATOM     19  C   UNL     1       1.115   1.994 -21.804  0.00  0.00    +0.058 C 
ATOM     20  C   UNL     1       3.803   2.252 -21.761  0.00  0.00    +0.021 C 
ATOM     21  C   UNL     1       2.632   1.843 -21.204  0.00  0.00    +0.084 C 
ENDROOT
BRANCH  14  22
ATOM     22  O   UNL     1       0.735   4.309 -26.381  0.00  0.00    -0.506 OA
ATOM     23  H   UNL     1       1.485   4.791 -26.667  0.00  0.00    +0.292 HD
ENDBRANCH  14  22
TORSDOF 1
ENDMDL
MODEL 7
REMARK VINA RESULT:    -8.116      2.388      3.044
REMARK INTER + INTRA:          -8.353
REMARK INTER:                  -8.353
REMARK INTRA:                   0.000
REMARK UNBOUND:                 0.000
REMARK  Name = O=CN1CC[C@@]23CC(=O)CC[C@@H]2[C@H]1Cc1cc(Br)c(O)cc13                 ZINC000253505262
REMARK  1 active torsions:
REMARK  status: ('A' for Active; 'I' for Inactive)
REMARK    1  A    between atoms: C_19  and  O_20
REMARK                            x       y       z     vdW  Elec       q    Type
REMARK                         _______ _______ _______ _____ _____    ______ ____
ROOT
ATOM      1  O   UNL     1       3.822   6.627 -22.578  0.00  0.00    -0.279 OA
ATOM      2  C   UNL     1       2.796   6.202 -22.885  0.00  0.00    +0.328 C 
ATOM      3  N   UNL     1       1.797   5.017 -23.124  0.00  0.00    -0.300 N 
ATOM      4  C   UNL     1       0.959   4.193 -23.338  0.00  0.00    +0.109 C 
ATOM      5  C   UNL     1       1.070   2.977 -23.206  0.00  0.00    +0.031 C 
ATOM      6  C   UNL     1       1.891   2.605 -22.903  0.00  0.00    +0.009 C 
ATOM      7  C   UNL     1       2.093   1.364 -22.739  0.00  0.00    +0.086 C 
ATOM      8  C   UNL     1       3.253   0.951 -22.321  0.00  0.00    +0.134 C 
ATOM      9  C   UNL     1       4.232   1.806 -22.063  0.00  0.00    +0.075 C 
ATOM     10  C   UNL     1       4.060   3.096 -22.221  0.00  0.00    +0.014 C 
ATOM     11  O   UNL     1       3.365  -0.355 -22.181  0.00  0.00    -0.297 OA
ATOM     12  C   UNL     1       0.475   3.386 -23.435  0.00  0.00    -0.034 A 
ATOM     13  C   UNL     1      -0.462   2.526 -23.679  0.00  0.00    +0.051 A 
ATOM     14  C   UNL     1      -1.606   2.931 -24.091  0.00  0.00    +0.131 A 
ATOM     15  C   UNL     1      -1.824   4.196 -24.263  0.00  0.00    +0.059 A 
ATOM     16 BR   UNL     1      -3.017   4.443 -24.679  0.00  0.00    -0.047 Br
ATOM     17  C   UNL     1      -0.882   5.062 -24.018  0.00  0.00    +0.023 A 
ATOM     18  C   UNL     1       0.268   4.668 -23.605  0.00  0.00    -0.041 A 
ATOM     19  C   UNL     1       1.172   5.443 -23.365  0.00  0.00    +0.058 C 
ATOM     20  C   UNL     1       2.946   3.544 -22.627  0.00  0.00    +0.021 C 
ATOM     21  C   UNL     1       2.605   4.843 -22.842  0.00  0.00    +0.084 C 
ENDROOT
BRANCH  14  22
ATOM     22  O   UNL     1      -2.501   1.969 -24.313  0.00  0.00    -0.506 OA
ATOM     23  H   UNL     1      -2.320   1.091 -24.044  0.00  0.00    +0.292 HD
ENDBRANCH  14  22
TORSDOF 1
ENDMDL
MODEL 8
REMARK VINA RESULT:    -8.089      1.872      3.723
REMARK INTER + INTRA:          -8.325
REMARK INTER:                  -8.325
REMARK INTRA:                   0.000
REMARK UNBOUND:                 0.000
REMARK  Name = O=CN1CC[C@@]23CC(=O)CC[C@@H]2[C@H]1Cc1cc(Br)c(O)cc13                 ZINC000253505262
REMARK  1 active torsions:
REMARK  status: ('A' for Active; 'I' for Inactive)
REMARK    1  A    between atoms: C_19  and  O_20
REMARK                            x       y       z     vdW  Elec       q    Type
REMARK                         _______ _______ _______ _____ _____    ______ ____
ROOT
ATOM      1  O   UNL     1      -3.211   3.368 -19.272  0.00  0.00    -0.279 OA
ATOM      2  C   UNL     1      -3.317   3.482 -20.414  0.00  0.00    +0.328 C 
ATOM      3  N   UNL     1      -2.798   3.304 -21.884  0.00  0.00    -0.300 N 
ATOM      4  C   UNL     1      -2.500   3.218 -23.037  0.00  0.00    +0.109 C 
ATOM      5  C   UNL     1      -1.469   2.735 -23.498  0.00  0.00    +0.031 C 
ATOM      6  C   UNL     1      -0.809   2.378 -22.914  0.00  0.00    +0.009 C 
ATOM      7  C   UNL     1       0.281   1.862 -23.303  0.00  0.00    +0.086 C 
ATOM      8  C   UNL     1       1.123   1.400 -22.426  0.00  0.00    +0.134 C 
ATOM      9  C   UNL     1       0.862   1.459 -21.129  0.00  0.00    +0.075 C 
ATOM     10  C   UNL     1      -0.256   1.987 -20.689  0.00  0.00    +0.014 C 
ATOM     11  O   UNL     1       2.227   0.882 -22.928  0.00  0.00    -0.297 OA
ATOM     12  C   UNL     1      -2.060   3.045 -23.856  0.00  0.00    -0.034 A 
ATOM     13  C   UNL     1      -1.776   2.973 -25.118  0.00  0.00    +0.051 A 
ATOM     14  C   UNL     1      -2.604   3.427 -25.984  0.00  0.00    +0.131 A 
ATOM     15  C   UNL     1      -3.721   3.958 -25.599  0.00  0.00    +0.059 A 
ATOM     16 BR   UNL     1      -4.443   4.366 -26.583  0.00  0.00    -0.047 Br
ATOM     17  C   UNL     1      -4.008   4.031 -24.330  0.00  0.00    +0.023 A 
ATOM     18  C   UNL     1      -3.186   3.579 -23.454  0.00  0.00    -0.041 A 
ATOM     19  C   UNL     1      -3.416   3.629 -22.262  0.00  0.00    +0.058 C 
ATOM     20  C   UNL     1      -1.106   2.449 -21.508  0.00  0.00    +0.021 C 
ATOM     21  C   UNL     1      -2.304   3.025 -21.220  0.00  0.00    +0.084 C 
ENDROOT
BRANCH  14  22
ATOM     22  O   UNL     1      -2.220   3.305 -27.253  0.00  0.00    -0.506 OA
ATOM     23  H   UNL     1      -1.600   3.907 -27.615  0.00  0.00    +0.292 HD
ENDBRANCH  14  22
TORSDOF 1
ENDMDL
