MODEL 1
REMARK VINA RESULT:   -10.758      0.000      0.000
REMARK INTER + INTRA:         -10.752
REMARK INTER:                 -11.672
REMARK INTRA:                   0.921
REMARK UNBOUND:                 1.264
REMARK  Name = ZINC000034643615
REMARK  5 active torsions:
REMARK  status: ('A' for Active; 'I' for Inactive)
REMARK    1  A    between atoms: C_1  and  O_2
REMARK    2  A    between atoms: O_2  and  C_3
REMARK    3  A    between atoms: C_11  and  O_12
REMARK    4  A    between atoms: O_12  and  C_13
REMARK    5  A    between atoms: N_19  and  C_20
REMARK                            x       y       z     vdW  Elec       q    Type
REMARK                         _______ _______ _______ _____ _____    ______ ____
ROOT
ATOM      1  C   UNL     1       0.871   2.255 -23.201  0.00  0.00    +0.162 A 
ATOM      2  C   UNL     1       0.837   1.847 -22.003  0.00  0.00    +0.050 A 
ATOM      3  C   UNL     1      -0.237   1.848 -21.364  0.00  0.00    +0.008 A 
ATOM      4  C   UNL     1      -1.287   2.255 -21.912  0.00  0.00    -0.034 A 
ATOM      5  C   UNL     1      -1.278   2.666 -23.102  0.00  0.00    +0.015 A 
ATOM      6  C   UNL     1      -2.328   3.071 -23.644  0.00  0.00    +0.070 C 
ATOM      7  C   UNL     1      -3.458   3.555 -24.367  0.00  0.00    +0.071 C 
ATOM      8  C   UNL     1      -4.685   3.568 -23.672  0.00  0.00    +0.133 C 
ATOM      9  N   UNL     1      -4.685   3.106 -22.338  0.00  0.00    +0.239 N 
ATOM     10  H   UNL     1      -5.544   3.093 -21.788  0.00  0.00    +0.204 HD
ATOM     11  C   UNL     1      -5.730   3.084 -21.651  0.00  0.00    +0.191 C 
ATOM     12  C   UNL     1      -3.436   2.664 -21.810  0.00  0.00    +0.096 C 
ATOM     13  C   UNL     1      -3.405   3.073 -23.007  0.00  0.00    -0.011 C 
ATOM     14  C   UNL     1      -4.468   3.483 -23.557  0.00  0.00    -0.018 C 
ATOM     15  C   UNL     1      -4.440   3.888 -24.741  0.00  0.00    +0.062 C 
ATOM     16  C   UNL     1      -3.358   3.891 -25.395  0.00  0.00    +0.163 C 
ATOM     17  C   UNL     1      -2.308   3.484 -24.847  0.00  0.00    +0.217 C 
ATOM     18  O   UNL     1      -0.825   3.227 -24.992  0.00  0.00    -0.481 OA
ATOM     19  C   UNL     1      -2.387   2.258 -21.263  0.00  0.00    +0.094 C 
ATOM     20  C   UNL     1      -0.194   2.666 -23.751  0.00  0.00    +0.167 A 
ENDROOT
BRANCH   1  22
ATOM     21  C   UNL     1       2.610   3.308 -23.955  0.00  0.00    +0.277 C 
ATOM     22  O   UNL     1       1.949   2.253 -23.837  0.00  0.00    -0.491 OA
ENDBRANCH   1  22
BRANCH  16  23
ATOM     23  O   UNL     1      -3.336   4.296 -26.577  0.00  0.00    -0.376 OA
ATOM     24  C   UNL     1      -3.357   3.475 -27.520  0.00  0.00    +0.194 C 
ENDBRANCH  16  23
TORSDOF 2
ENDMDL
MODEL 2
REMARK VINA RESULT:   -10.186      2.241      5.660
REMARK INTER + INTRA:         -10.113
REMARK INTER:                 -11.356
REMARK INTRA:                   1.242
REMARK UNBOUND:                 1.264
REMARK  Name = ZINC000034643615
REMARK  5 active torsions:
REMARK  status: ('A' for Active; 'I' for Inactive)
REMARK    1  A    between atoms: C_1  and  O_2
REMARK    2  A    between atoms: O_2  and  C_3
REMARK    3  A    between atoms: C_11  and  O_12
REMARK    4  A    between atoms: O_12  and  C_13
REMARK    5  A    between atoms: N_19  and  C_20
REMARK                            x       y       z     vdW  Elec       q    Type
REMARK                         _______ _______ _______ _____ _____    ______ ____
ROOT
ATOM      1  C   UNL     1      -4.706   3.255 -22.413  0.00  0.00    +0.162 A 
ATOM      2  C   UNL     1      -5.035   3.766 -23.523  0.00  0.00    +0.050 A 
ATOM      3  C   UNL     1      -4.183   3.927 -24.423  0.00  0.00    +0.008 A 
ATOM      4  C   UNL     1      -2.995   3.581 -24.226  0.00  0.00    -0.034 A 
ATOM      5  C   UNL     1      -2.645   3.071 -23.129  0.00  0.00    +0.015 A 
ATOM      6  C   UNL     1      -1.459   2.728 -22.937  0.00  0.00    +0.070 C 
ATOM      7  C   UNL     1      -0.141   2.298 -22.601  0.00  0.00    +0.071 C 
ATOM      8  C   UNL     1       0.843   2.468 -23.597  0.00  0.00    +0.133 C 
ATOM      9  N   UNL     1       0.441   3.040 -24.822  0.00  0.00    +0.239 N 
ATOM     10  H   UNL     1       1.110   3.186 -25.578  0.00  0.00    +0.204 HD
ATOM     11  C   UNL     1       1.250   3.225 -25.758  0.00  0.00    +0.191 C 
ATOM     12  C   UNL     1      -0.934   3.399 -24.945  0.00  0.00    +0.096 C 
ATOM     13  C   UNL     1      -0.604   2.888 -23.835  0.00  0.00    -0.011 C 
ATOM     14  C   UNL     1       0.597   2.540 -23.639  0.00  0.00    -0.018 C 
ATOM     15  C   UNL     1       0.928   2.034 -22.543  0.00  0.00    +0.062 C 
ATOM     16  C   UNL     1       0.073   1.867 -21.628  0.00  0.00    +0.163 C 
ATOM     17  C   UNL     1      -1.115   2.213 -21.826  0.00  0.00    +0.217 C 
ATOM     18  O   UNL     1      -2.514   2.307 -21.261  0.00  0.00    -0.481 OA
ATOM     19  C   UNL     1      -2.120   3.744 -25.141  0.00  0.00    +0.094 C 
ATOM     20  C   UNL     1      -3.504   2.906 -22.218  0.00  0.00    +0.167 A 
ENDROOT
BRANCH   1  22
ATOM     21  C   UNL     1      -6.675   2.594 -21.791  0.00  0.00    +0.277 C 
ATOM     22  O   UNL     1      -5.563   3.095 -21.515  0.00  0.00    -0.491 OA
ENDBRANCH   1  22
BRANCH  16  23
ATOM     23  O   UNL     1       0.408   1.362 -20.535  0.00  0.00    -0.376 OA
ATOM     24  C   UNL     1       1.581   1.489 -20.120  0.00  0.00    +0.194 C 
ENDBRANCH  16  23
TORSDOF 2
ENDMDL
MODEL 3
REMARK VINA RESULT:    -9.966      1.942      3.489
REMARK INTER + INTRA:          -9.868
REMARK INTER:                 -10.800
REMARK INTRA:                   0.933
REMARK UNBOUND:                 1.264
REMARK  Name = ZINC000034643615
REMARK  5 active torsions:
REMARK  status: ('A' for Active; 'I' for Inactive)
REMARK    1  A    between atoms: C_1  and  O_2
REMARK    2  A    between atoms: O_2  and  C_3
REMARK    3  A    between atoms: C_11  and  O_12
REMARK    4  A    between atoms: O_12  and  C_13
REMARK    5  A    between atoms: N_19  and  C_20
REMARK                            x       y       z     vdW  Elec       q    Type
REMARK                         _______ _______ _______ _____ _____    ______ ____
ROOT
ATOM      1  C   UNL     1       1.956   2.292 -22.762  0.00  0.00    +0.162 A 
ATOM      2  C   UNL     1       2.415   2.521 -23.919  0.00  0.00    +0.050 A 
ATOM      3  C   UNL     1       1.658   2.900 -24.838  0.00  0.00    +0.008 A 
ATOM      4  C   UNL     1       0.435   3.055 -24.613  0.00  0.00    -0.034 A 
ATOM      5  C   UNL     1      -0.045   2.834 -23.470  0.00  0.00    +0.015 A 
ATOM      6  C   UNL     1      -1.264   2.990 -23.250  0.00  0.00    +0.070 C 
ATOM      7  C   UNL     1      -2.635   3.133 -22.880  0.00  0.00    +0.071 C 
ATOM      8  C   UNL     1      -3.514   3.559 -23.896  0.00  0.00    +0.133 C 
ATOM      9  N   UNL     1      -2.967   3.805 -25.173  0.00  0.00    +0.239 N 
ATOM     10  H   UNL     1      -3.557   4.115 -25.945  0.00  0.00    +0.204 HD
ATOM     11  C   UNL     1      -3.678   4.186 -26.130  0.00  0.00    +0.191 C 
ATOM     12  C   UNL     1      -1.564   3.598 -25.324  0.00  0.00    +0.096 C 
ATOM     13  C   UNL     1      -2.026   3.370 -24.167  0.00  0.00    -0.011 C 
ATOM     14  C   UNL     1      -3.261   3.528 -23.944  0.00  0.00    -0.018 C 
ATOM     15  C   UNL     1      -3.721   3.303 -22.802  0.00  0.00    +0.062 C 
ATOM     16  C   UNL     1      -2.962   2.919 -21.867  0.00  0.00    +0.163 C 
ATOM     17  C   UNL     1      -1.739   2.764 -22.092  0.00  0.00    +0.217 C 
ATOM     18  O   UNL     1      -0.390   2.376 -21.530  0.00  0.00    -0.481 OA
ATOM     19  C   UNL     1      -0.344   3.443 -25.548  0.00  0.00    +0.094 C 
ATOM     20  C   UNL     1       0.719   2.451 -22.539  0.00  0.00    +0.167 A 
ENDROOT
BRANCH   1  22
ATOM     21  C   UNL     1       3.062   0.712 -21.772  0.00  0.00    +0.277 C 
ATOM     22  O   UNL     1       2.719   1.913 -21.846  0.00  0.00    -0.491 OA
ENDBRANCH   1  22
BRANCH  16  23
ATOM     23  O   UNL     1      -3.425   2.696 -20.728  0.00  0.00    -0.376 OA
ATOM     24  C   UNL     1      -3.284   3.543 -19.818  0.00  0.00    +0.194 C 
ENDBRANCH  16  23
TORSDOF 2
ENDMDL
MODEL 4
REMARK VINA RESULT:    -9.300      1.593      4.627
REMARK INTER + INTRA:          -9.124
REMARK INTER:                 -10.123
REMARK INTRA:                   0.999
REMARK UNBOUND:                 1.264
REMARK  Name = ZINC000034643615
REMARK  5 active torsions:
REMARK  status: ('A' for Active; 'I' for Inactive)
REMARK    1  A    between atoms: C_1  and  O_2
REMARK    2  A    between atoms: O_2  and  C_3
REMARK    3  A    between atoms: C_11  and  O_12
REMARK    4  A    between atoms: O_12  and  C_13
REMARK    5  A    between atoms: N_19  and  C_20
REMARK                            x       y       z     vdW  Elec       q    Type
REMARK                         _______ _______ _______ _____ _____    ______ ____
ROOT
ATOM      1  C   UNL     1      -4.522   3.643 -23.802  0.00  0.00    +0.162 A 
ATOM      2  C   UNL     1      -5.050   3.395 -22.678  0.00  0.00    +0.050 A 
ATOM      3  C   UNL     1      -4.356   2.956 -21.735  0.00  0.00    +0.008 A 
ATOM      4  C   UNL     1      -3.131   2.759 -21.904  0.00  0.00    -0.034 A 
ATOM      5  C   UNL     1      -2.584   2.998 -23.013  0.00  0.00    +0.015 A 
ATOM      6  C   UNL     1      -1.361   2.799 -23.175  0.00  0.00    +0.070 C 
ATOM      7  C   UNL     1       0.020   2.614 -23.480  0.00  0.00    +0.071 C 
ATOM      8  C   UNL     1       0.829   2.119 -22.436  0.00  0.00    +0.133 C 
ATOM      9  N   UNL     1       0.206   1.855 -21.197  0.00  0.00    +0.239 N 
ATOM     10  H   UNL     1       0.743   1.496 -20.407  0.00  0.00    +0.204 HD
ATOM     11  C   UNL     1       0.851   1.415 -20.220  0.00  0.00    +0.191 C 
ATOM     12  C   UNL     1      -1.193   2.113 -21.111  0.00  0.00    +0.096 C 
ATOM     13  C   UNL     1      -0.664   2.360 -22.234  0.00  0.00    -0.011 C 
ATOM     14  C   UNL     1       0.574   2.160 -22.400  0.00  0.00    -0.018 C 
ATOM     15  C   UNL     1       1.102   2.402 -23.509  0.00  0.00    +0.062 C 
ATOM     16  C   UNL     1       0.408   2.846 -24.467  0.00  0.00    +0.163 C 
ATOM     17  C   UNL     1      -0.818   3.044 -24.299  0.00  0.00    +0.217 C 
ATOM     18  O   UNL     1      -2.120   3.504 -24.915  0.00  0.00    -0.481 OA
ATOM     19  C   UNL     1      -2.417   2.310 -20.944  0.00  0.00    +0.094 C 
ATOM     20  C   UNL     1      -3.282   3.442 -23.967  0.00  0.00    +0.167 A 
ENDROOT
BRANCH   1  22
ATOM     21  C   UNL     1      -5.276   3.460 -25.827  0.00  0.00    +0.277 C 
ATOM     22  O   UNL     1      -5.220   4.082 -24.742  0.00  0.00    -0.491 OA
ENDBRANCH   1  22
BRANCH  16  23
ATOM     23  O   UNL     1       0.939   3.087 -25.573  0.00  0.00    -0.376 OA
ATOM     24  C   UNL     1       1.333   4.244 -25.839  0.00  0.00    +0.194 C 
ENDBRANCH  16  23
TORSDOF 2
ENDMDL
MODEL 5
REMARK VINA RESULT:    -9.240      2.848      6.745
REMARK INTER + INTRA:          -9.057
REMARK INTER:                 -10.201
REMARK INTRA:                   1.145
REMARK UNBOUND:                 1.264
REMARK  Name = ZINC000034643615
REMARK  5 active torsions:
REMARK  status: ('A' for Active; 'I' for Inactive)
REMARK    1  A    between atoms: C_1  and  O_2
REMARK    2  A    between atoms: O_2  and  C_3
REMARK    3  A    between atoms: C_11  and  O_12
REMARK    4  A    between atoms: O_12  and  C_13
REMARK    5  A    between atoms: N_19  and  C_20
REMARK                            x       y       z     vdW  Elec       q    Type
REMARK                         _______ _______ _______ _____ _____    ______ ____
ROOT
ATOM      1  C   UNL     1      -1.403   3.076 -23.059  0.00  0.00    +0.162 A 
ATOM      2  C   UNL     1      -1.522   4.253 -23.509  0.00  0.00    +0.050 A 
ATOM      3  C   UNL     1      -0.514   4.975 -23.669  0.00  0.00    +0.008 A 
ATOM      4  C   UNL     1       0.621   4.532 -23.381  0.00  0.00    -0.034 A 
ATOM      5  C   UNL     1       0.765   3.364 -22.932  0.00  0.00    +0.015 A 
ATOM      6  C   UNL     1       1.899   2.926 -22.647  0.00  0.00    +0.070 C 
ATOM      7  C   UNL     1       3.139   2.318 -22.287  0.00  0.00    +0.071 C 
ATOM      8  C   UNL     1       4.294   3.109 -22.456  0.00  0.00    +0.133 C 
ATOM      9  N   UNL     1       4.123   4.416 -22.959  0.00  0.00    +0.239 N 
ATOM     10  H   UNL     1       4.924   5.032 -23.101  0.00  0.00    +0.204 HD
ATOM     11  C   UNL     1       5.095   5.183 -23.139  0.00  0.00    +0.191 C 
ATOM     12  C   UNL     1       2.789   4.823 -23.255  0.00  0.00    +0.096 C 
ATOM     13  C   UNL     1       2.910   3.647 -22.805  0.00  0.00    -0.011 C 
ATOM     14  C   UNL     1       4.059   3.202 -22.515  0.00  0.00    -0.018 C 
ATOM     15  C   UNL     1       4.183   2.039 -22.070  0.00  0.00    +0.062 C 
ATOM     16  C   UNL     1       3.169   1.302 -21.906  0.00  0.00    +0.163 C 
ATOM     17  C   UNL     1       2.034   1.746 -22.194  0.00  0.00    +0.217 C 
ATOM     18  O   UNL     1       0.548   1.471 -22.252  0.00  0.00    -0.481 OA
ATOM     19  C   UNL     1       1.654   5.265 -23.542  0.00  0.00    +0.094 C 
ATOM     20  C   UNL     1      -0.252   2.632 -22.770  0.00  0.00    +0.167 A 
ENDROOT
BRANCH   1  22
ATOM     21  C   UNL     1      -3.249   2.634 -22.012  0.00  0.00    +0.277 C 
ATOM     22  O   UNL     1      -2.414   2.357 -22.901  0.00  0.00    -0.491 OA
ENDBRANCH   1  22
BRANCH  16  23
ATOM     23  O   UNL     1       3.298   0.141 -21.461  0.00  0.00    -0.376 OA
ATOM     24  C   UNL     1       4.107  -0.088 -20.534  0.00  0.00    +0.194 C 
ENDBRANCH  16  23
TORSDOF 2
ENDMDL
MODEL 6
REMARK VINA RESULT:    -8.436      2.491      5.908
REMARK INTER + INTRA:          -8.158
REMARK INTER:                  -9.108
REMARK INTRA:                   0.950
REMARK UNBOUND:                 1.264
REMARK  Name = ZINC000034643615
REMARK  5 active torsions:
REMARK  status: ('A' for Active; 'I' for Inactive)
REMARK    1  A    between atoms: C_1  and  O_2
REMARK    2  A    between atoms: O_2  and  C_3
REMARK    3  A    between atoms: C_11  and  O_12
REMARK    4  A    between atoms: O_12  and  C_13
REMARK    5  A    between atoms: N_19  and  C_20
REMARK                            x       y       z     vdW  Elec       q    Type
REMARK                         _______ _______ _______ _____ _____    ______ ____
ROOT
ATOM      1  C   UNL     1      -1.826   3.936 -23.586  0.00  0.00    +0.162 A 
ATOM      2  C   UNL     1      -2.380   2.855 -23.230  0.00  0.00    +0.050 A 
ATOM      3  C   UNL     1      -1.701   1.926 -22.741  0.00  0.00    +0.008 A 
ATOM      4  C   UNL     1      -0.464   2.066 -22.603  0.00  0.00    -0.034 A 
ATOM      5  C   UNL     1       0.110   3.132 -22.950  0.00  0.00    +0.015 A 
ATOM      6  C   UNL     1       1.344   3.266 -22.811  0.00  0.00    +0.070 C 
ATOM      7  C   UNL     1       2.741   3.535 -22.701  0.00  0.00    +0.071 C 
ATOM      8  C   UNL     1       3.533   2.505 -22.153  0.00  0.00    +0.133 C 
ATOM      9  N   UNL     1       2.881   1.314 -21.766  0.00  0.00    +0.239 N 
ATOM     10  H   UNL     1       3.405   0.537 -21.364  0.00  0.00    +0.204 HD
ATOM     11  C   UNL     1       3.510   0.352 -21.272  0.00  0.00    +0.191 C 
ATOM     12  C   UNL     1       1.471   1.258 -21.966  0.00  0.00    +0.096 C 
ATOM     13  C   UNL     1       2.026   2.338 -22.322  0.00  0.00    -0.011 C 
ATOM     14  C   UNL     1       3.276   2.475 -22.181  0.00  0.00    -0.018 C 
ATOM     15  C   UNL     1       3.830   3.541 -22.531  0.00  0.00    +0.062 C 
ATOM     16  C   UNL     1       3.151   4.485 -23.027  0.00  0.00    +0.163 C 
ATOM     17  C   UNL     1       1.914   4.346 -23.165  0.00  0.00    +0.217 C 
ATOM     18  O   UNL     1       0.616   4.970 -23.626  0.00  0.00    -0.481 OA
ATOM     19  C   UNL     1       0.235   1.120 -22.104  0.00  0.00    +0.094 C 
ATOM     20  C   UNL     1      -0.574   4.072 -23.445  0.00  0.00    +0.167 A 
ENDROOT
BRANCH   1  22
ATOM     21  C   UNL     1      -3.509   4.601 -24.780  0.00  0.00    +0.277 C 
ATOM     22  O   UNL     1      -2.509   4.863 -24.075  0.00  0.00    -0.491 OA
ENDBRANCH   1  22
BRANCH  16  23
ATOM     23  O   UNL     1       3.708   5.548 -23.375  0.00  0.00    -0.376 OA
ATOM     24  C   UNL     1       3.708   6.536 -22.607  0.00  0.00    +0.194 C 
ENDBRANCH  16  23
TORSDOF 2
ENDMDL
MODEL 7
REMARK VINA RESULT:    -8.338      3.246      7.051
REMARK INTER + INTRA:          -8.050
REMARK INTER:                  -9.057
REMARK INTRA:                   1.007
REMARK UNBOUND:                 1.264
REMARK  Name = ZINC000034643615
REMARK  5 active torsions:
REMARK  status: ('A' for Active; 'I' for Inactive)
REMARK    1  A    between atoms: C_1  and  O_2
REMARK    2  A    between atoms: O_2  and  C_3
REMARK    3  A    between atoms: C_11  and  O_12
REMARK    4  A    between atoms: O_12  and  C_13
REMARK    5  A    between atoms: N_19  and  C_20
REMARK                            x       y       z     vdW  Elec       q    Type
REMARK                         _______ _______ _______ _____ _____    ______ ____
ROOT
ATOM      1  C   UNL     1      -0.012   3.720 -23.392  0.00  0.00    +0.162 A 
ATOM      2  C   UNL     1      -0.647   2.732 -22.920  0.00  0.00    +0.050 A 
ATOM      3  C   UNL     1      -0.042   1.817 -22.321  0.00  0.00    +0.008 A 
ATOM      4  C   UNL     1       1.202   1.877 -22.188  0.00  0.00    -0.034 A 
ATOM      5  C   UNL     1       1.856   2.850 -22.649  0.00  0.00    +0.015 A 
ATOM      6  C   UNL     1       3.096   2.905 -22.513  0.00  0.00    +0.070 C 
ATOM      7  C   UNL     1       4.509   3.079 -22.420  0.00  0.00    +0.071 C 
ATOM      8  C   UNL     1       5.220   2.061 -21.750  0.00  0.00    +0.133 C 
ATOM      9  N   UNL     1       4.479   0.976 -21.237  0.00  0.00    +0.239 N 
ATOM     10  H   UNL     1       4.941   0.212 -20.743  0.00  0.00    +0.204 HD
ATOM     11  C   UNL     1       5.032   0.032 -20.630  0.00  0.00    +0.191 C 
ATOM     12  C   UNL     1       3.068   1.004 -21.443  0.00  0.00    +0.096 C 
ATOM     13  C   UNL     1       3.705   1.991 -21.914  0.00  0.00    -0.011 C 
ATOM     14  C   UNL     1       4.962   2.048 -21.777  0.00  0.00    -0.018 C 
ATOM     15  C   UNL     1       5.596   3.022 -22.242  0.00  0.00    +0.062 C 
ATOM     16  C   UNL     1       4.991   3.952 -22.848  0.00  0.00    +0.163 C 
ATOM     17  C   UNL     1       3.747   3.892 -22.982  0.00  0.00    +0.217 C 
ATOM     18  O   UNL     1       2.501   4.555 -23.524  0.00  0.00    -0.481 OA
ATOM     19  C   UNL     1       1.826   0.945 -21.577  0.00  0.00    +0.094 C 
ATOM     20  C   UNL     1       1.246   3.776 -23.254  0.00  0.00    +0.167 A 
ENDROOT
BRANCH   1  22
ATOM     21  C   UNL     1      -1.873   4.638 -24.021  0.00  0.00    +0.277 C 
ATOM     22  O   UNL     1      -0.622   4.634 -23.990  0.00  0.00    -0.491 OA
ENDBRANCH   1  22
BRANCH  16  23
ATOM     23  O   UNL     1       5.628   4.923 -23.310  0.00  0.00    -0.376 OA
ATOM     24  C   UNL     1       6.183   5.733 -22.536  0.00  0.00    +0.194 C 
ENDBRANCH  16  23
TORSDOF 2
ENDMDL
