MODEL 1
REMARK VINA RESULT:   -10.579      0.000      0.000
REMARK INTER + INTRA:         -10.842
REMARK INTER:                 -11.965
REMARK INTRA:                   1.123
REMARK UNBOUND:                 0.974
REMARK  Name = COC1=C[C@]2(C)Oc3c(OC)ccc4c3[C@@]23CCN(C)[C@@H](C4)C3=C1             ZINC000253504984
REMARK  6 active torsions:
REMARK  status: ('A' for Active; 'I' for Inactive)
REMARK    1  A    between atoms: C_1  and  O_2
REMARK    2  A    between atoms: O_2  and  C_3
REMARK    3  A    between atoms: C_5  and  C_6
REMARK    4  A    between atoms: C_9  and  O_10
REMARK    5  A    between atoms: O_10  and  C_11
REMARK    6  A    between atoms: N_19  and  C_20
REMARK                            x       y       z     vdW  Elec       q    Type
REMARK                         _______ _______ _______ _____ _____    ______ ____
ROOT
ATOM      1  C   UNL     1       0.552   2.235 -22.480  0.00  0.00    +0.120 C 
ATOM      2  C   UNL     1      -0.423   2.223 -21.671  0.00  0.00    +0.066 C 
ATOM      3  C   UNL     1      -1.558   2.581 -22.060  0.00  0.00    +0.143 C 
ATOM      4  O   UNL     1      -3.011   2.800 -21.701  0.00  0.00    -0.477 OA
ATOM      5  C   UNL     1      -3.842   3.304 -22.847  0.00  0.00    +0.168 A 
ATOM      6  C   UNL     1      -4.992   3.668 -23.241  0.00  0.00    +0.162 A 
ATOM      7  C   UNL     1      -5.152   4.039 -24.442  0.00  0.00    +0.050 A 
ATOM      8  C   UNL     1      -4.185   4.050 -25.239  0.00  0.00    +0.008 A 
ATOM      9  C   UNL     1      -3.048   3.690 -24.847  0.00  0.00    -0.034 A 
ATOM     10  C   UNL     1      -2.061   3.699 -25.653  0.00  0.00    +0.094 C 
ATOM     11  C   UNL     1      -0.928   3.340 -25.262  0.00  0.00    +0.097 C 
ATOM     12  C   UNL     1      -0.764   2.967 -24.061  0.00  0.00    -0.003 C 
ATOM     13  N   UNL     1       0.402   2.951 -24.918  0.00  0.00    +0.239 N 
ATOM     14  H   UNL     1       1.167   2.971 -25.592  0.00  0.00    +0.204 HD
ATOM     15  C   UNL     1       1.331   2.981 -25.756  0.00  0.00    +0.191 C 
ATOM     16  C   UNL     1       0.619   2.530 -23.587  0.00  0.00    +0.133 C 
ATOM     17  C   UNL     1      -0.490   2.529 -22.711  0.00  0.00    +0.071 C 
ATOM     18  C   UNL     1      -2.869   3.316 -23.655  0.00  0.00    +0.016 A 
ATOM     19  C   UNL     1      -1.678   2.269 -20.851  0.00  0.00    +0.062 C 
ATOM     20  C   UNL     1      -1.732   2.957 -23.266  0.00  0.00    +0.074 C 
ATOM     21  C   UNL     1       0.384   2.604 -23.666  0.00  0.00    +0.051 C 
ENDROOT
BRANCH   1  23
ATOM     22  C   UNL     1       2.149   0.765 -22.442  0.00  0.00    +0.277 C 
ATOM     23  O   UNL     1       1.688   1.877 -22.094  0.00  0.00    -0.495 OA
ENDBRANCH   1  23
BRANCH   6  24
ATOM     24  O   UNL     1      -5.962   3.659 -22.448  0.00  0.00    -0.491 OA
ATOM     25  C   UNL     1      -6.173   2.657 -21.726  0.00  0.00    +0.277 C 
ENDBRANCH   6  24
TORSDOF 2
ENDMDL
MODEL 2
REMARK VINA RESULT:   -10.473      1.743      5.662
REMARK INTER + INTRA:         -10.723
REMARK INTER:                 -11.666
REMARK INTRA:                   0.943
REMARK UNBOUND:                 0.974
REMARK  Name = COC1=C[C@]2(C)Oc3c(OC)ccc4c3[C@@]23CCN(C)[C@@H](C4)C3=C1             ZINC000253504984
REMARK  6 active torsions:
REMARK  status: ('A' for Active; 'I' for Inactive)
REMARK    1  A    between atoms: C_1  and  O_2
REMARK    2  A    between atoms: O_2  and  C_3
REMARK    3  A    between atoms: C_5  and  C_6
REMARK    4  A    between atoms: C_9  and  O_10
REMARK    5  A    between atoms: O_10  and  C_11
REMARK    6  A    between atoms: N_19  and  C_20
REMARK                            x       y       z     vdW  Elec       q    Type
REMARK                         _______ _______ _______ _____ _____    ______ ____
ROOT
ATOM      1  C   UNL     1      -3.155   3.817 -24.630  0.00  0.00    +0.120 C 
ATOM      2  C   UNL     1      -2.004   3.799 -25.160  0.00  0.00    +0.066 C 
ATOM      3  C   UNL     1      -1.032   3.335 -24.522  0.00  0.00    +0.143 C 
ATOM      4  O   UNL     1       0.449   3.026 -24.513  0.00  0.00    -0.477 OA
ATOM      5  C   UNL     1       0.923   2.399 -23.232  0.00  0.00    +0.168 A 
ATOM      6  C   UNL     1       1.908   1.928 -22.585  0.00  0.00    +0.162 A 
ATOM      7  C   UNL     1       1.728   1.480 -21.413  0.00  0.00    +0.050 A 
ATOM      8  C   UNL     1       0.589   1.500 -20.892  0.00  0.00    +0.008 A 
ATOM      9  C   UNL     1      -0.385   1.966 -21.535  0.00  0.00    -0.034 A 
ATOM     10  C   UNL     1      -1.545   1.987 -21.009  0.00  0.00    +0.094 C 
ATOM     11  C   UNL     1      -2.515   2.452 -21.651  0.00  0.00    +0.097 C 
ATOM     12  C   UNL     1      -2.339   2.901 -22.823  0.00  0.00    -0.003 C 
ATOM     13  N   UNL     1      -3.684   2.959 -22.293  0.00  0.00    +0.239 N 
ATOM     14  H   UNL     1      -4.599   2.960 -21.840  0.00  0.00    +0.204 HD
ATOM     15  C   UNL     1      -4.800   2.953 -21.724  0.00  0.00    +0.191 C 
ATOM     16  C   UNL     1      -3.524   3.467 -23.601  0.00  0.00    +0.133 C 
ATOM     17  C   UNL     1      -2.227   3.432 -24.162  0.00  0.00    +0.071 C 
ATOM     18  C   UNL     1      -0.226   2.416 -22.703  0.00  0.00    +0.016 A 
ATOM     19  C   UNL     1      -0.584   3.703 -25.634  0.00  0.00    +0.062 C 
ATOM     20  C   UNL     1      -1.199   2.881 -23.342  0.00  0.00    +0.074 C 
ATOM     21  C   UNL     1      -3.322   3.371 -23.470  0.00  0.00    +0.051 C 
ENDROOT
BRANCH   1  23
ATOM     22  C   UNL     1      -4.930   3.507 -25.839  0.00  0.00    +0.277 C 
ATOM     23  O   UNL     1      -4.128   4.280 -25.267  0.00  0.00    -0.495 OA
ENDBRANCH   1  23
BRANCH   6  24
ATOM     24  O   UNL     1       3.049   1.907 -23.102  0.00  0.00    -0.491 OA
ATOM     25  C   UNL     1       3.328   1.052 -23.974  0.00  0.00    +0.277 C 
ENDBRANCH   6  24
TORSDOF 2
ENDMDL
MODEL 3
REMARK VINA RESULT:   -10.389      1.288      4.919
REMARK INTER + INTRA:         -10.630
REMARK INTER:                 -11.592
REMARK INTRA:                   0.963
REMARK UNBOUND:                 0.974
REMARK  Name = COC1=C[C@]2(C)Oc3c(OC)ccc4c3[C@@]23CCN(C)[C@@H](C4)C3=C1             ZINC000253504984
REMARK  6 active torsions:
REMARK  status: ('A' for Active; 'I' for Inactive)
REMARK    1  A    between atoms: C_1  and  O_2
REMARK    2  A    between atoms: O_2  and  C_3
REMARK    3  A    between atoms: C_5  and  C_6
REMARK    4  A    between atoms: C_9  and  O_10
REMARK    5  A    between atoms: O_10  and  C_11
REMARK    6  A    between atoms: N_19  and  C_20
REMARK                            x       y       z     vdW  Elec       q    Type
REMARK                         _______ _______ _______ _____ _____    ______ ____
ROOT
ATOM      1  C   UNL     1      -4.471   3.462 -22.434  0.00  0.00    +0.120 C 
ATOM      2  C   UNL     1      -3.550   3.255 -21.589  0.00  0.00    +0.066 C 
ATOM      3  C   UNL     1      -2.363   3.156 -21.974  0.00  0.00    +0.143 C 
ATOM      4  O   UNL     1      -0.917   2.938 -21.585  0.00  0.00    -0.477 OA
ATOM      5  C   UNL     1       0.028   2.957 -22.754  0.00  0.00    +0.168 A 
ATOM      6  C   UNL     1       1.231   2.857 -23.144  0.00  0.00    +0.162 A 
ATOM      7  C   UNL     1       1.498   2.966 -24.378  0.00  0.00    +0.050 A 
ATOM      8  C   UNL     1       0.584   3.171 -25.211  0.00  0.00    +0.008 A 
ATOM      9  C   UNL     1      -0.606   3.270 -24.822  0.00  0.00    -0.034 A 
ATOM     10  C   UNL     1      -1.538   3.478 -25.666  0.00  0.00    +0.094 C 
ATOM     11  C   UNL     1      -2.725   3.577 -25.277  0.00  0.00    +0.097 C 
ATOM     12  C   UNL     1      -2.995   3.468 -24.044  0.00  0.00    -0.003 C 
ATOM     13  N   UNL     1      -4.105   3.704 -24.941  0.00  0.00    +0.239 N 
ATOM     14  H   UNL     1      -4.825   3.871 -25.645  0.00  0.00    +0.204 HD
ATOM     15  C   UNL     1      -4.977   3.909 -25.816  0.00  0.00    +0.191 C 
ATOM     16  C   UNL     1      -4.442   3.589 -23.574  0.00  0.00    +0.133 C 
ATOM     17  C   UNL     1      -3.391   3.358 -22.658  0.00  0.00    +0.071 C 
ATOM     18  C   UNL     1      -0.892   3.164 -23.597  0.00  0.00    +0.016 A 
ATOM     19  C   UNL     1      -2.346   3.012 -20.728  0.00  0.00    +0.062 C 
ATOM     20  C   UNL     1      -2.080   3.263 -23.212  0.00  0.00    +0.074 C 
ATOM     21  C   UNL     1      -4.196   3.568 -23.653  0.00  0.00    +0.051 C 
ENDROOT
BRANCH   1  23
ATOM     22  C   UNL     1      -6.297   2.538 -21.711  0.00  0.00    +0.277 C 
ATOM     23  O   UNL     1      -5.659   3.561 -22.051  0.00  0.00    -0.495 OA
ENDBRANCH   1  23
BRANCH   6  24
ATOM     24  O   UNL     1       2.147   2.652 -22.315  0.00  0.00    -0.491 OA
ATOM     25  C   UNL     1       2.470   1.480 -22.012  0.00  0.00    +0.277 C 
ENDBRANCH   6  24
TORSDOF 2
ENDMDL
MODEL 4
REMARK VINA RESULT:   -10.282      1.877      3.542
REMARK INTER + INTRA:         -10.510
REMARK INTER:                 -11.525
REMARK INTRA:                   1.015
REMARK UNBOUND:                 0.974
REMARK  Name = COC1=C[C@]2(C)Oc3c(OC)ccc4c3[C@@]23CCN(C)[C@@H](C4)C3=C1             ZINC000253504984
REMARK  6 active torsions:
REMARK  status: ('A' for Active; 'I' for Inactive)
REMARK    1  A    between atoms: C_1  and  O_2
REMARK    2  A    between atoms: O_2  and  C_3
REMARK    3  A    between atoms: C_5  and  C_6
REMARK    4  A    between atoms: C_9  and  O_10
REMARK    5  A    between atoms: O_10  and  C_11
REMARK    6  A    between atoms: N_19  and  C_20
REMARK                            x       y       z     vdW  Elec       q    Type
REMARK                         _______ _______ _______ _____ _____    ______ ____
ROOT
ATOM      1  C   UNL     1       2.771   2.538 -23.952  0.00  0.00    +0.120 C 
ATOM      2  C   UNL     1       1.922   3.136 -24.678  0.00  0.00    +0.066 C 
ATOM      3  C   UNL     1       0.726   3.202 -24.312  0.00  0.00    +0.143 C 
ATOM      4  O   UNL     1      -0.671   3.692 -24.623  0.00  0.00    -0.477 OA
ATOM      5  C   UNL     1      -1.681   3.332 -23.570  0.00  0.00    +0.168 A 
ATOM      6  C   UNL     1      -2.892   3.398 -23.199  0.00  0.00    +0.162 A 
ATOM      7  C   UNL     1      -3.240   2.864 -22.103  0.00  0.00    +0.050 A 
ATOM      8  C   UNL     1      -2.397   2.273 -21.388  0.00  0.00    +0.008 A 
ATOM      9  C   UNL     1      -1.198   2.209 -21.758  0.00  0.00    -0.034 A 
ATOM     10  C   UNL     1      -0.338   1.609 -21.034  0.00  0.00    +0.094 C 
ATOM     11  C   UNL     1       0.857   1.546 -21.403  0.00  0.00    +0.097 C 
ATOM     12  C   UNL     1       1.207   2.079 -22.498  0.00  0.00    -0.003 C 
ATOM     13  N   UNL     1       2.240   1.416 -21.731  0.00  0.00    +0.239 N 
ATOM     14  H   UNL     1       2.900   0.928 -21.125  0.00  0.00    +0.204 HD
ATOM     15  C   UNL     1       3.038   0.814 -20.977  0.00  0.00    +0.191 C 
ATOM     16  C   UNL     1       2.664   1.999 -22.945  0.00  0.00    +0.133 C 
ATOM     17  C   UNL     1       1.692   2.658 -23.730  0.00  0.00    +0.071 C 
ATOM     18  C   UNL     1      -0.833   2.735 -22.846  0.00  0.00    +0.016 A 
ATOM     19  C   UNL     1       0.795   3.801 -25.411  0.00  0.00    +0.062 C 
ATOM     20  C   UNL     1       0.363   2.669 -23.212  0.00  0.00    +0.074 C 
ATOM     21  C   UNL     1       2.417   2.013 -22.870  0.00  0.00    +0.051 C 
ENDROOT
BRANCH   1  23
ATOM     22  C   UNL     1       4.859   3.046 -23.651  0.00  0.00    +0.277 C 
ATOM     23  O   UNL     1       3.967   2.471 -24.317  0.00  0.00    -0.495 OA
ENDBRANCH   1  23
BRANCH   6  24
ATOM     24  O   UNL     1      -3.739   3.988 -23.910  0.00  0.00    -0.491 OA
ATOM     25  C   UNL     1      -4.961   3.855 -23.672  0.00  0.00    +0.277 C 
ENDBRANCH   6  24
TORSDOF 2
ENDMDL
MODEL 5
REMARK VINA RESULT:   -10.085      1.889      6.009
REMARK INTER + INTRA:         -10.290
REMARK INTER:                 -11.223
REMARK INTRA:                   0.934
REMARK UNBOUND:                 0.974
REMARK  Name = COC1=C[C@]2(C)Oc3c(OC)ccc4c3[C@@]23CCN(C)[C@@H](C4)C3=C1             ZINC000253504984
REMARK  6 active torsions:
REMARK  status: ('A' for Active; 'I' for Inactive)
REMARK    1  A    between atoms: C_1  and  O_2
REMARK    2  A    between atoms: O_2  and  C_3
REMARK    3  A    between atoms: C_5  and  C_6
REMARK    4  A    between atoms: C_9  and  O_10
REMARK    5  A    between atoms: O_10  and  C_11
REMARK    6  A    between atoms: N_19  and  C_20
REMARK                            x       y       z     vdW  Elec       q    Type
REMARK                         _______ _______ _______ _____ _____    ______ ____
ROOT
ATOM      1  C   UNL     1      -1.845   3.664 -24.394  0.00  0.00    +0.120 C 
ATOM      2  C   UNL     1      -0.732   3.786 -24.988  0.00  0.00    +0.066 C 
ATOM      3  C   UNL     1       0.309   3.336 -24.459  0.00  0.00    +0.143 C 
ATOM      4  O   UNL     1       1.805   3.141 -24.567  0.00  0.00    -0.477 OA
ATOM      5  C   UNL     1       2.404   2.426 -23.388  0.00  0.00    +0.168 A 
ATOM      6  C   UNL     1       3.459   1.970 -22.851  0.00  0.00    +0.162 A 
ATOM      7  C   UNL     1       3.387   1.395 -21.724  0.00  0.00    +0.050 A 
ATOM      8  C   UNL     1       2.285   1.275 -21.140  0.00  0.00    +0.008 A 
ATOM      9  C   UNL     1       1.242   1.728 -21.673  0.00  0.00    -0.034 A 
ATOM     10  C   UNL     1       0.119   1.609 -21.083  0.00  0.00    +0.094 C 
ATOM     11  C   UNL     1      -0.921   2.061 -21.615  0.00  0.00    +0.097 C 
ATOM     12  C   UNL     1      -0.852   2.636 -22.742  0.00  0.00    -0.003 C 
ATOM     13  N   UNL     1      -2.161   2.539 -22.133  0.00  0.00    +0.239 N 
ATOM     14  H   UNL     1      -3.042   2.425 -21.631  0.00  0.00    +0.204 HD
ATOM     15  C   UNL     1      -3.235   2.392 -21.505  0.00  0.00    +0.191 C 
ATOM     16  C   UNL     1      -2.121   3.186 -23.388  0.00  0.00    +0.133 C 
ATOM     17  C   UNL     1      -0.864   3.306 -24.023  0.00  0.00    +0.071 C 
ATOM     18  C   UNL     1       1.293   2.304 -22.795  0.00  0.00    +0.016 A 
ATOM     19  C   UNL     1       0.657   3.846 -25.550  0.00  0.00    +0.062 C 
ATOM     20  C   UNL     1       0.250   2.755 -23.325  0.00  0.00    +0.074 C 
ATOM     21  C   UNL     1      -1.905   3.093 -23.280  0.00  0.00    +0.051 C 
ENDROOT
BRANCH   1  23
ATOM     22  C   UNL     1      -3.582   3.381 -25.664  0.00  0.00    +0.277 C 
ATOM     23  O   UNL     1      -2.887   4.113 -24.922  0.00  0.00    -0.495 OA
ENDBRANCH   1  23
BRANCH   6  24
ATOM     24  O   UNL     1       4.563   2.087 -23.431  0.00  0.00    -0.491 OA
ATOM     25  C   UNL     1       5.179   3.177 -23.395  0.00  0.00    +0.277 C 
ENDBRANCH   6  24
TORSDOF 2
ENDMDL
MODEL 6
REMARK VINA RESULT:    -9.984      1.503      2.986
REMARK INTER + INTRA:         -10.177
REMARK INTER:                 -11.306
REMARK INTRA:                   1.128
REMARK UNBOUND:                 0.974
REMARK  Name = COC1=C[C@]2(C)Oc3c(OC)ccc4c3[C@@]23CCN(C)[C@@H](C4)C3=C1             ZINC000253504984
REMARK  6 active torsions:
REMARK  status: ('A' for Active; 'I' for Inactive)
REMARK    1  A    between atoms: C_1  and  O_2
REMARK    2  A    between atoms: O_2  and  C_3
REMARK    3  A    between atoms: C_5  and  C_6
REMARK    4  A    between atoms: C_9  and  O_10
REMARK    5  A    between atoms: O_10  and  C_11
REMARK    6  A    between atoms: N_19  and  C_20
REMARK                            x       y       z     vdW  Elec       q    Type
REMARK                         _______ _______ _______ _____ _____    ______ ____
ROOT
ATOM      1  C   UNL     1       1.358   2.689 -24.152  0.00  0.00    +0.120 C 
ATOM      2  C   UNL     1       0.479   3.173 -24.924  0.00  0.00    +0.066 C 
ATOM      3  C   UNL     1      -0.707   3.272 -24.533  0.00  0.00    +0.143 C 
ATOM      4  O   UNL     1      -2.120   3.697 -24.864  0.00  0.00    -0.477 OA
ATOM      5  C   UNL     1      -3.093   3.468 -23.741  0.00  0.00    +0.168 A 
ATOM      6  C   UNL     1      -4.294   3.568 -23.344  0.00  0.00    +0.162 A 
ATOM      7  C   UNL     1      -4.600   3.181 -22.177  0.00  0.00    +0.050 A 
ATOM      8  C   UNL     1      -3.727   2.703 -21.416  0.00  0.00    +0.008 A 
ATOM      9  C   UNL     1      -2.539   2.605 -21.810  0.00  0.00    -0.034 A 
ATOM     10  C   UNL     1      -1.648   2.120 -21.040  0.00  0.00    +0.094 C 
ATOM     11  C   UNL     1      -0.463   2.023 -21.434  0.00  0.00    +0.097 C 
ATOM     12  C   UNL     1      -0.154   2.409 -22.601  0.00  0.00    -0.003 C 
ATOM     13  N   UNL     1       0.912   1.869 -21.785  0.00  0.00    +0.239 N 
ATOM     14  H   UNL     1       1.598   1.475 -21.140  0.00  0.00    +0.204 HD
ATOM     15  C   UNL     1       1.742   1.384 -20.983  0.00  0.00    +0.191 C 
ATOM     16  C   UNL     1       1.291   2.289 -23.078  0.00  0.00    +0.133 C 
ATOM     17  C   UNL     1       0.285   2.824 -23.914  0.00  0.00    +0.071 C 
ATOM     18  C   UNL     1      -2.215   2.985 -22.970  0.00  0.00    +0.016 A 
ATOM     19  C   UNL     1      -0.680   3.719 -25.704  0.00  0.00    +0.062 C 
ATOM     20  C   UNL     1      -1.028   2.886 -23.361  0.00  0.00    +0.074 C 
ATOM     21  C   UNL     1       1.045   2.310 -22.999  0.00  0.00    +0.051 C 
ENDROOT
BRANCH   1  23
ATOM     22  C   UNL     1       3.055   1.460 -24.718  0.00  0.00    +0.277 C 
ATOM     23  O   UNL     1       2.544   2.590 -24.541  0.00  0.00    -0.495 OA
ENDBRANCH   1  23
BRANCH   6  24
ATOM     24  O   UNL     1      -5.171   4.045 -24.102  0.00  0.00    -0.491 OA
ATOM     25  C   UNL     1      -5.285   3.621 -25.275  0.00  0.00    +0.277 C 
ENDBRANCH   6  24
TORSDOF 2
ENDMDL
MODEL 7
REMARK VINA RESULT:    -9.789      1.432      2.354
REMARK INTER + INTRA:          -9.959
REMARK INTER:                 -11.089
REMARK INTRA:                   1.130
REMARK UNBOUND:                 0.974
REMARK  Name = COC1=C[C@]2(C)Oc3c(OC)ccc4c3[C@@]23CCN(C)[C@@H](C4)C3=C1             ZINC000253504984
REMARK  6 active torsions:
REMARK  status: ('A' for Active; 'I' for Inactive)
REMARK    1  A    between atoms: C_1  and  O_2
REMARK    2  A    between atoms: O_2  and  C_3
REMARK    3  A    between atoms: C_5  and  C_6
REMARK    4  A    between atoms: C_9  and  O_10
REMARK    5  A    between atoms: O_10  and  C_11
REMARK    6  A    between atoms: N_19  and  C_20
REMARK                            x       y       z     vdW  Elec       q    Type
REMARK                         _______ _______ _______ _____ _____    ______ ____
ROOT
ATOM      1  C   UNL     1       1.857   1.575 -21.472  0.00  0.00    +0.120 C 
ATOM      2  C   UNL     1       0.627   1.486 -21.178  0.00  0.00    +0.066 C 
ATOM      3  C   UNL     1      -0.237   1.900 -21.983  0.00  0.00    +0.143 C 
ATOM      4  O   UNL     1      -1.708   2.097 -22.275  0.00  0.00    -0.477 OA
ATOM      5  C   UNL     1      -1.975   2.737 -23.608  0.00  0.00    +0.168 A 
ATOM      6  C   UNL     1      -2.851   3.157 -24.425  0.00  0.00    +0.162 A 
ATOM      7  C   UNL     1      -2.485   3.663 -25.527  0.00  0.00    +0.050 A 
ATOM      8  C   UNL     1      -1.268   3.750 -25.815  0.00  0.00    +0.008 A 
ATOM      9  C   UNL     1      -0.403   3.333 -25.005  0.00  0.00    -0.034 A 
ATOM     10  C   UNL     1       0.835   3.419 -25.293  0.00  0.00    +0.094 C 
ATOM     11  C   UNL     1       1.697   3.004 -24.486  0.00  0.00    +0.097 C 
ATOM     12  C   UNL     1       1.335   2.497 -23.382  0.00  0.00    -0.003 C 
ATOM     13  N   UNL     1       2.757   2.562 -23.638  0.00  0.00    +0.239 N 
ATOM     14  H   UNL     1       3.739   2.647 -23.904  0.00  0.00    +0.204 HD
ATOM     15  C   UNL     1       3.958   2.673 -23.977  0.00  0.00    +0.191 C 
ATOM     16  C   UNL     1       2.388   1.992 -22.400  0.00  0.00    +0.133 C 
ATOM     17  C   UNL     1       1.009   1.907 -22.103  0.00  0.00    +0.071 C 
ATOM     18  C   UNL     1      -0.748   2.826 -23.902  0.00  0.00    +0.016 A 
ATOM     19  C   UNL     1      -0.860   1.456 -20.990  0.00  0.00    +0.062 C 
ATOM     20  C   UNL     1       0.118   2.411 -23.096  0.00  0.00    +0.074 C 
ATOM     21  C   UNL     1       2.208   2.077 -22.566  0.00  0.00    +0.051 C 
ENDROOT
BRANCH   1  23
ATOM     22  C   UNL     1       3.613   0.370 -21.057  0.00  0.00    +0.277 C 
ATOM     23  O   UNL     1       2.723   1.161 -20.668  0.00  0.00    -0.495 OA
ENDBRANCH   1  23
BRANCH   6  24
ATOM     24  O   UNL     1      -4.068   3.072 -24.142  0.00  0.00    -0.491 OA
ATOM     25  C   UNL     1      -4.910   3.742 -24.783  0.00  0.00    +0.277 C 
ENDBRANCH   6  24
TORSDOF 2
ENDMDL
MODEL 8
REMARK VINA RESULT:    -8.988      2.650      4.479
REMARK INTER + INTRA:          -9.065
REMARK INTER:                 -10.038
REMARK INTRA:                   0.973
REMARK UNBOUND:                 0.974
REMARK  Name = COC1=C[C@]2(C)Oc3c(OC)ccc4c3[C@@]23CCN(C)[C@@H](C4)C3=C1             ZINC000253504984
REMARK  6 active torsions:
REMARK  status: ('A' for Active; 'I' for Inactive)
REMARK    1  A    between atoms: C_1  and  O_2
REMARK    2  A    between atoms: O_2  and  C_3
REMARK    3  A    between atoms: C_5  and  C_6
REMARK    4  A    between atoms: C_9  and  O_10
REMARK    5  A    between atoms: O_10  and  C_11
REMARK    6  A    between atoms: N_19  and  C_20
REMARK                            x       y       z     vdW  Elec       q    Type
REMARK                         _______ _______ _______ _____ _____    ______ ____
ROOT
ATOM      1  C   UNL     1       4.022   3.981 -23.243  0.00  0.00    +0.120 C 
ATOM      2  C   UNL     1       3.006   4.647 -23.602  0.00  0.00    +0.066 C 
ATOM      3  C   UNL     1       1.858   4.230 -23.322  0.00  0.00    +0.143 C 
ATOM      4  O   UNL     1       0.367   4.465 -23.413  0.00  0.00    -0.477 OA
ATOM      5  C   UNL     1      -0.451   3.388 -22.757  0.00  0.00    +0.168 A 
ATOM      6  C   UNL     1      -1.613   2.966 -22.473  0.00  0.00    +0.162 A 
ATOM      7  C   UNL     1      -1.744   1.881 -21.832  0.00  0.00    +0.050 A 
ATOM      8  C   UNL     1      -0.737   1.225 -21.479  0.00  0.00    +0.008 A 
ATOM      9  C   UNL     1       0.413   1.644 -21.761  0.00  0.00    -0.034 A 
ATOM     10  C   UNL     1       1.440   0.981 -21.403  0.00  0.00    +0.094 C 
ATOM     11  C   UNL     1       2.586   1.400 -21.685  0.00  0.00    +0.097 C 
ATOM     12  C   UNL     1       2.721   2.485 -22.325  0.00  0.00    -0.003 C 
ATOM     13  N   UNL     1       3.933   1.788 -21.954  0.00  0.00    +0.239 N 
ATOM     14  H   UNL     1       4.732   1.230 -21.651  0.00  0.00    +0.204 HD
ATOM     15  C   UNL     1       4.904   1.093 -21.576  0.00  0.00    +0.191 C 
ATOM     16  C   UNL     1       4.119   2.993 -22.666  0.00  0.00    +0.133 C 
ATOM     17  C   UNL     1       2.964   3.711 -23.052  0.00  0.00    +0.071 C 
ATOM     18  C   UNL     1       0.564   2.723 -22.398  0.00  0.00    +0.016 A 
ATOM     19  C   UNL     1       1.704   5.306 -23.948  0.00  0.00    +0.062 C 
ATOM     20  C   UNL     1       1.713   3.140 -22.678  0.00  0.00    +0.074 C 
ATOM     21  C   UNL     1       3.882   2.908 -22.609  0.00  0.00    +0.051 C 
ENDROOT
BRANCH   1  23
ATOM     22  C   UNL     1       5.882   4.917 -22.632  0.00  0.00    +0.277 C 
ATOM     23  O   UNL     1       5.170   4.395 -23.521  0.00  0.00    -0.495 OA
ENDBRANCH   1  23
BRANCH   6  24
ATOM     24  O   UNL     1      -2.624   3.618 -22.824  0.00  0.00    -0.491 OA
ATOM     25  C   UNL     1      -3.739   3.377 -22.306  0.00  0.00    +0.277 C 
ENDBRANCH   6  24
TORSDOF 2
ENDMDL
MODEL 9
REMARK VINA RESULT:    -8.411      3.150      6.704
REMARK INTER + INTRA:          -8.420
REMARK INTER:                  -9.394
REMARK INTRA:                   0.974
REMARK UNBOUND:                 0.974
REMARK  Name = COC1=C[C@]2(C)Oc3c(OC)ccc4c3[C@@]23CCN(C)[C@@H](C4)C3=C1             ZINC000253504984
REMARK  6 active torsions:
REMARK  status: ('A' for Active; 'I' for Inactive)
REMARK    1  A    between atoms: C_1  and  O_2
REMARK    2  A    between atoms: O_2  and  C_3
REMARK    3  A    between atoms: C_5  and  C_6
REMARK    4  A    between atoms: C_9  and  O_10
REMARK    5  A    between atoms: O_10  and  C_11
REMARK    6  A    between atoms: N_19  and  C_20
REMARK                            x       y       z     vdW  Elec       q    Type
REMARK                         _______ _______ _______ _____ _____    ______ ____
ROOT
ATOM      1  C   UNL     1       0.381   1.840 -22.700  0.00  0.00    +0.120 C 
ATOM      2  C   UNL     1       1.460   1.197 -22.537  0.00  0.00    +0.066 C 
ATOM      3  C   UNL     1       2.555   1.803 -22.561  0.00  0.00    +0.143 C 
ATOM      4  O   UNL     1       4.061   1.706 -22.454  0.00  0.00    -0.477 OA
ATOM      5  C   UNL     1       4.759   3.028 -22.610  0.00  0.00    +0.168 A 
ATOM      6  C   UNL     1       5.869   3.643 -22.635  0.00  0.00    +0.162 A 
ATOM      7  C   UNL     1       5.885   4.896 -22.822  0.00  0.00    +0.050 A 
ATOM      8  C   UNL     1       4.816   5.529 -22.983  0.00  0.00    +0.008 A 
ATOM      9  C   UNL     1       3.718   4.918 -22.959  0.00  0.00    -0.034 A 
ATOM     10  C   UNL     1       2.628   5.557 -23.122  0.00  0.00    +0.094 C 
ATOM     11  C   UNL     1       1.534   4.948 -23.098  0.00  0.00    +0.097 C 
ATOM     12  C   UNL     1       1.515   3.695 -22.910  0.00  0.00    -0.003 C 
ATOM     13  N   UNL     1       0.238   4.352 -23.087  0.00  0.00    +0.239 N 
ATOM     14  H   UNL     1      -0.614   4.897 -23.222  0.00  0.00    +0.204 HD
ATOM     15  C   UNL     1      -0.799   5.034 -23.254  0.00  0.00    +0.191 C 
ATOM     16  C   UNL     1       0.180   2.956 -22.881  0.00  0.00    +0.133 C 
ATOM     17  C   UNL     1       1.402   2.269 -22.702  0.00  0.00    +0.071 C 
ATOM     18  C   UNL     1       3.682   3.670 -22.773  0.00  0.00    +0.016 A 
ATOM     19  C   UNL     1       2.822   0.594 -22.362  0.00  0.00    +0.062 C 
ATOM     20  C   UNL     1       2.585   3.064 -22.749  0.00  0.00    +0.074 C 
ATOM     21  C   UNL     1       0.407   3.080 -22.885  0.00  0.00    +0.051 C 
ENDROOT
BRANCH   1  23
ATOM     22  C   UNL     1      -1.531   1.450 -21.749  0.00  0.00    +0.277 C 
ATOM     23  O   UNL     1      -0.716   1.236 -22.676  0.00  0.00    -0.495 OA
ENDBRANCH   1  23
BRANCH   6  24
ATOM     24  O   UNL     1       6.941   3.014 -22.474  0.00  0.00    -0.491 OA
ATOM     25  C   UNL     1       7.598   2.630 -23.469  0.00  0.00    +0.277 C 
ENDBRANCH   6  24
TORSDOF 2
ENDMDL
