MODEL 1
REMARK VINA RESULT:    -9.847      0.000      0.000
REMARK INTER + INTRA:         -12.010
REMARK INTER:                 -15.339
REMARK INTRA:                   3.329
REMARK UNBOUND:                 5.320
REMARK  Name = ZINC000085340938
REMARK  17 active torsions:
REMARK  status: ('A' for Active; 'I' for Inactive)
REMARK    1  A    between atoms: C_1  and  C_2
REMARK    2  A    between atoms: C_2  and  C_3
REMARK    3  A    between atoms: C_3  and  C_4
REMARK    4  A    between atoms: C_4  and  C_5
REMARK    5  A    between atoms: C_5  and  C_6
REMARK    6  A    between atoms: C_6  and  C_7
REMARK    7  A    between atoms: C_7  and  C_8
REMARK    8  A    between atoms: C_8  and  C_9
REMARK    9  A    between atoms: C_9  and  C_10
REMARK   10  A    between atoms: C_10  and  C_11
REMARK   11  A    between atoms: C_11  and  C_12
REMARK   12  A    between atoms: C_13  and  O_14
REMARK   13  A    between atoms: N_16  and  C_17
REMARK   14  A    between atoms: C_22  and  C_23
REMARK   15  A    between atoms: C_25  and  O_26
REMARK   16  A    between atoms: N_28  and  C_29
REMARK   17  A    between atoms: C_34  and  C_35
REMARK                            x       y       z     vdW  Elec       q    Type
REMARK                         _______ _______ _______ _____ _____    ______ ____
ROOT
ATOM      1  C   UNL     1       3.656   3.000 -23.489  0.00  0.00    +0.025 C 
ATOM      2  C   UNL     1       2.523   3.579 -23.754  0.00  0.00    +0.148 C 
ATOM      3  C   UNL     1       2.389   4.859 -23.567  0.00  0.00    +0.110 C 
ATOM      4  C   UNL     1       3.387   5.558 -23.115  0.00  0.00    +0.079 C 
ATOM      5  C   UNL     1       4.520   4.978 -22.850  0.00  0.00    +0.145 C 
ATOM      6  N   UNL     1       1.256   5.439 -23.832  0.00  0.00    -0.244 NA
ATOM      7  C   UNL     1       4.654   3.699 -23.037  0.00  0.00    +0.113 C 
ATOM      8  N   UNL     1       5.787   3.118 -22.772  0.00  0.00    -0.244 NA
ENDROOT
BRANCH   8   9
ATOM      9  C   UNL     1       6.785   3.817 -22.319  0.00  0.00    +0.068 A 
ATOM     10  C   UNL     1       6.840   4.131 -21.059  0.00  0.00    +0.028 A 
ATOM     11  C   UNL     1       7.838   4.830 -20.606  0.00  0.00    +0.002 A 
ATOM     12  C   UNL     1       8.782   5.215 -21.414  0.00  0.00    +0.000 A 
ATOM     13  C   UNL     1       8.726   4.901 -22.675  0.00  0.00    +0.005 A 
ATOM     14  C   UNL     1       7.728   4.202 -23.127  0.00  0.00    -0.025 A 
ATOM     15  C   UNL     1       7.673   3.888 -24.387  0.00  0.00    +0.046 C 
ENDBRANCH   8   9
BRANCH   6  16
ATOM     16  C   UNL     1       0.258   4.741 -24.285  0.00  0.00    +0.068 A 
ATOM     17  C   UNL     1       0.351   4.142 -25.435  0.00  0.00    +0.028 A 
ATOM     18  C   UNL     1      -0.647   3.443 -25.887  0.00  0.00    +0.002 A 
ATOM     19  C   UNL     1      -1.739   3.343 -25.190  0.00  0.00    +0.000 A 
ATOM     20  C   UNL     1      -1.833   3.941 -24.040  0.00  0.00    +0.005 A 
ATOM     21  C   UNL     1      -0.835   4.640 -23.587  0.00  0.00    -0.025 A 
ATOM     22  C   UNL     1      -0.929   5.238 -22.437  0.00  0.00    +0.046 C 
ENDBRANCH   6  16
BRANCH   2  23
ATOM     23  O   UNL     1       1.524   2.880 -24.207  0.00  0.00    -0.504 OA
ATOM     24  H   UNL     1       1.433   1.981 -23.961  0.00  0.00    +0.292 HD
ENDBRANCH   2  23
BRANCH   5  25
ATOM     25  O   UNL     1       5.518   5.676 -22.397  0.00  0.00    -0.505 OA
ATOM     26  H   UNL     1       5.638   6.561 -22.682  0.00  0.00    +0.292 HD
ENDBRANCH   5  25
BRANCH   1  27
ATOM     27  C   UNL     1       3.790   1.720 -23.676  0.00  0.00    +0.041 C 
BRANCH  27  28
ATOM     28  C   UNL     1       3.935   0.925 -22.658  0.00  0.00    +0.005 C 
BRANCH  28  29
ATOM     29  C   UNL     1       2.897   0.561 -21.966  0.00  0.00    +0.000 C 
BRANCH  29  30
ATOM     30  C   UNL     1       2.490   1.291 -20.969  0.00  0.00    +0.000 C 
BRANCH  30  31
ATOM     31  C   UNL     1       1.218   1.485 -20.783  0.00  0.00    +0.000 C 
BRANCH  31  32
ATOM     32  C   UNL     1       0.408   1.500 -21.799  0.00  0.00    +0.000 C 
BRANCH  32  33
ATOM     33  C   UNL     1      -0.854   1.238 -21.629  0.00  0.00    -0.000 C 
BRANCH  33  34
ATOM     34  C   UNL     1      -1.633   2.121 -21.078  0.00  0.00    -0.000 C 
BRANCH  34  35
ATOM     35  C   UNL     1      -2.896   2.153 -21.381  0.00  0.00    -0.000 C 
BRANCH  35  37
ATOM     36  C   UNL     1      -3.245   3.802 -19.888  0.00  0.00    +0.004 C 
ATOM     37  C   UNL     1      -3.658   3.085 -20.890  0.00  0.00    -0.003 C 
ENDBRANCH  35  37
ENDBRANCH  34  35
ENDBRANCH  33  34
ENDBRANCH  32  33
ENDBRANCH  31  32
ENDBRANCH  30  31
ENDBRANCH  29  30
ENDBRANCH  28  29
ENDBRANCH  27  28
ENDBRANCH   1  27
TORSDOF 14
ENDMDL
MODEL 2
REMARK VINA RESULT:    -8.255      1.957      8.241
REMARK INTER + INTRA:          -9.208
REMARK INTER:                 -13.096
REMARK INTRA:                   3.888
REMARK UNBOUND:                 5.320
REMARK  Name = ZINC000085340938
REMARK  17 active torsions:
REMARK  status: ('A' for Active; 'I' for Inactive)
REMARK    1  A    between atoms: C_1  and  C_2
REMARK    2  A    between atoms: C_2  and  C_3
REMARK    3  A    between atoms: C_3  and  C_4
REMARK    4  A    between atoms: C_4  and  C_5
REMARK    5  A    between atoms: C_5  and  C_6
REMARK    6  A    between atoms: C_6  and  C_7
REMARK    7  A    between atoms: C_7  and  C_8
REMARK    8  A    between atoms: C_8  and  C_9
REMARK    9  A    between atoms: C_9  and  C_10
REMARK   10  A    between atoms: C_10  and  C_11
REMARK   11  A    between atoms: C_11  and  C_12
REMARK   12  A    between atoms: C_13  and  O_14
REMARK   13  A    between atoms: N_16  and  C_17
REMARK   14  A    between atoms: C_22  and  C_23
REMARK   15  A    between atoms: C_25  and  O_26
REMARK   16  A    between atoms: N_28  and  C_29
REMARK   17  A    between atoms: C_34  and  C_35
REMARK                            x       y       z     vdW  Elec       q    Type
REMARK                         _______ _______ _______ _____ _____    ______ ____
ROOT
ATOM      1  C   UNL     1       0.198   3.580 -22.497  0.00  0.00    +0.025 C 
ATOM      2  C   UNL     1       1.072   2.634 -22.319  0.00  0.00    +0.148 C 
ATOM      3  C   UNL     1       0.674   1.411 -22.131  0.00  0.00    +0.110 C 
ATOM      4  C   UNL     1      -0.596   1.134 -22.121  0.00  0.00    +0.079 C 
ATOM      5  C   UNL     1      -1.469   2.081 -22.299  0.00  0.00    +0.145 C 
ATOM      6  N   UNL     1       1.547   0.464 -21.953  0.00  0.00    -0.244 NA
ATOM      7  C   UNL     1      -1.072   3.304 -22.488  0.00  0.00    +0.113 C 
ATOM      8  N   UNL     1      -1.945   4.250 -22.666  0.00  0.00    -0.244 NA
ENDROOT
BRANCH   8   9
ATOM      9  C   UNL     1      -3.215   3.974 -22.656  0.00  0.00    +0.068 A 
ATOM     10  C   UNL     1      -3.808   3.688 -21.536  0.00  0.00    +0.028 A 
ATOM     11  C   UNL     1      -5.079   3.411 -21.524  0.00  0.00    +0.002 A 
ATOM     12  C   UNL     1      -5.756   3.421 -22.635  0.00  0.00    +0.000 A 
ATOM     13  C   UNL     1      -5.161   3.707 -23.756  0.00  0.00    +0.005 A 
ATOM     14  C   UNL     1      -3.891   3.983 -23.766  0.00  0.00    -0.025 A 
ATOM     15  C   UNL     1      -3.297   4.270 -24.886  0.00  0.00    +0.046 C 
ENDBRANCH   8   9
BRANCH   6  16
ATOM     16  C   UNL     1       2.817   0.740 -21.963  0.00  0.00    +0.068 A 
ATOM     17  C   UNL     1       3.432   1.016 -20.850  0.00  0.00    +0.028 A 
ATOM     18  C   UNL     1       4.702   1.292 -20.860  0.00  0.00    +0.002 A 
ATOM     19  C   UNL     1       5.358   1.294 -21.982  0.00  0.00    +0.000 A 
ATOM     20  C   UNL     1       4.744   1.019 -23.094  0.00  0.00    +0.005 A 
ATOM     21  C   UNL     1       3.474   0.742 -23.085  0.00  0.00    -0.025 A 
ATOM     22  C   UNL     1       2.860   0.467 -24.197  0.00  0.00    +0.046 C 
ENDBRANCH   6  16
BRANCH   2  23
ATOM     23  O   UNL     1       2.342   2.911 -22.329  0.00  0.00    -0.504 OA
ATOM     24  H   UNL     1       2.715   3.371 -23.055  0.00  0.00    +0.292 HD
ENDBRANCH   2  23
BRANCH   5  25
ATOM     25  O   UNL     1      -2.739   1.804 -22.289  0.00  0.00    -0.505 OA
ATOM     26  H   UNL     1      -3.351   2.428 -21.952  0.00  0.00    +0.292 HD
ENDBRANCH   5  25
BRANCH   1  27
ATOM     27  C   UNL     1       0.596   4.804 -22.686  0.00  0.00    +0.041 C 
BRANCH  27  28
ATOM     28  C   UNL     1       1.138   5.145 -23.817  0.00  0.00    +0.005 C 
BRANCH  28  29
ATOM     29  C   UNL     1       2.417   5.370 -23.882  0.00  0.00    +0.000 C 
BRANCH  29  30
ATOM     30  C   UNL     1       3.038   5.895 -22.868  0.00  0.00    +0.000 C 
BRANCH  30  31
ATOM     31  C   UNL     1       4.319   5.722 -22.729  0.00  0.00    +0.000 C 
BRANCH  31  32
ATOM     32  C   UNL     1       4.899   4.701 -23.287  0.00  0.00    +0.000 C 
BRANCH  32  33
ATOM     33  C   UNL     1       6.174   4.506 -23.119  0.00  0.00    -0.000 C 
BRANCH  33  34
ATOM     34  C   UNL     1       6.889   5.390 -22.488  0.00  0.00    -0.000 C 
BRANCH  34  35
ATOM     35  C   UNL     1       7.779   5.007 -21.621  0.00  0.00    -0.000 C 
BRANCH  35  37
ATOM     36  C   UNL     1       7.444   6.064 -19.662  0.00  0.00    +0.004 C 
ATOM     37  C   UNL     1       7.479   4.966 -20.357  0.00  0.00    -0.003 C 
ENDBRANCH  35  37
ENDBRANCH  34  35
ENDBRANCH  33  34
ENDBRANCH  32  33
ENDBRANCH  31  32
ENDBRANCH  30  31
ENDBRANCH  29  30
ENDBRANCH  28  29
ENDBRANCH  27  28
ENDBRANCH   1  27
TORSDOF 14
ENDMDL
MODEL 3
REMARK VINA RESULT:    -8.207      1.983      5.929
REMARK INTER + INTRA:          -9.124
REMARK INTER:                 -12.586
REMARK INTRA:                   3.462
REMARK UNBOUND:                 5.320
REMARK  Name = ZINC000085340938
REMARK  17 active torsions:
REMARK  status: ('A' for Active; 'I' for Inactive)
REMARK    1  A    between atoms: C_1  and  C_2
REMARK    2  A    between atoms: C_2  and  C_3
REMARK    3  A    between atoms: C_3  and  C_4
REMARK    4  A    between atoms: C_4  and  C_5
REMARK    5  A    between atoms: C_5  and  C_6
REMARK    6  A    between atoms: C_6  and  C_7
REMARK    7  A    between atoms: C_7  and  C_8
REMARK    8  A    between atoms: C_8  and  C_9
REMARK    9  A    between atoms: C_9  and  C_10
REMARK   10  A    between atoms: C_10  and  C_11
REMARK   11  A    between atoms: C_11  and  C_12
REMARK   12  A    between atoms: C_13  and  O_14
REMARK   13  A    between atoms: N_16  and  C_17
REMARK   14  A    between atoms: C_22  and  C_23
REMARK   15  A    between atoms: C_25  and  O_26
REMARK   16  A    between atoms: N_28  and  C_29
REMARK   17  A    between atoms: C_34  and  C_35
REMARK                            x       y       z     vdW  Elec       q    Type
REMARK                         _______ _______ _______ _____ _____    ______ ____
ROOT
ATOM      1  C   UNL     1       0.592   3.734 -22.959  0.00  0.00    +0.025 C 
ATOM      2  C   UNL     1      -0.625   3.451 -23.318  0.00  0.00    +0.148 C 
ATOM      3  C   UNL     1      -1.035   2.217 -23.305  0.00  0.00    +0.110 C 
ATOM      4  C   UNL     1      -0.228   1.267 -22.934  0.00  0.00    +0.079 C 
ATOM      5  C   UNL     1       0.989   1.552 -22.575  0.00  0.00    +0.145 C 
ATOM      6  N   UNL     1      -2.252   1.932 -23.664  0.00  0.00    -0.244 NA
ATOM      7  C   UNL     1       1.399   2.785 -22.588  0.00  0.00    +0.113 C 
ATOM      8  N   UNL     1       2.615   3.069 -22.229  0.00  0.00    -0.244 NA
ENDROOT
BRANCH   8   9
ATOM      9  C   UNL     1       3.422   2.120 -21.858  0.00  0.00    +0.068 A 
ATOM     10  C   UNL     1       3.278   1.564 -20.692  0.00  0.00    +0.028 A 
ATOM     11  C   UNL     1       4.084   0.614 -20.319  0.00  0.00    +0.002 A 
ATOM     12  C   UNL     1       5.036   0.221 -21.114  0.00  0.00    +0.000 A 
ATOM     13  C   UNL     1       5.180   0.778 -22.280  0.00  0.00    +0.005 A 
ATOM     14  C   UNL     1       4.373   1.727 -22.652  0.00  0.00    -0.025 A 
ATOM     15  C   UNL     1       4.518   2.283 -23.818  0.00  0.00    +0.046 C 
ENDBRANCH   8   9
BRANCH   6  16
ATOM     16  C   UNL     1      -3.059   2.882 -24.035  0.00  0.00    +0.068 A 
ATOM     17  C   UNL     1      -2.973   3.375 -25.235  0.00  0.00    +0.028 A 
ATOM     18  C   UNL     1      -3.780   4.324 -25.606  0.00  0.00    +0.002 A 
ATOM     19  C   UNL     1      -4.672   4.780 -24.778  0.00  0.00    +0.000 A 
ATOM     20  C   UNL     1      -4.758   4.288 -23.579  0.00  0.00    +0.005 A 
ATOM     21  C   UNL     1      -3.951   3.338 -23.207  0.00  0.00    -0.025 A 
ATOM     22  C   UNL     1      -4.036   2.845 -22.007  0.00  0.00    +0.046 C 
ENDBRANCH   6  16
BRANCH   2  23
ATOM     23  O   UNL     1      -1.432   4.400 -23.689  0.00  0.00    -0.504 OA
ATOM     24  H   UNL     1      -1.440   4.685 -24.582  0.00  0.00    +0.292 HD
ENDBRANCH   2  23
BRANCH   5  25
ATOM     25  O   UNL     1       1.795   0.603 -22.204  0.00  0.00    -0.505 OA
ATOM     26  H   UNL     1       1.475  -0.107 -21.682  0.00  0.00    +0.292 HD
ENDBRANCH   5  25
BRANCH   1  27
ATOM     27  C   UNL     1       1.002   4.968 -22.972  0.00  0.00    +0.041 C 
BRANCH  27  28
ATOM     28  C   UNL     1       2.132   5.272 -23.537  0.00  0.00    +0.005 C 
BRANCH  28  29
ATOM     29  C   UNL     1       2.984   6.033 -22.917  0.00  0.00    +0.000 C 
BRANCH  29  30
ATOM     30  C   UNL     1       4.252   5.742 -22.939  0.00  0.00    +0.000 C 
BRANCH  30  31
ATOM     31  C   UNL     1       5.085   6.415 -22.202  0.00  0.00    +0.000 C 
BRANCH  31  32
ATOM     32  C   UNL     1       6.285   5.958 -21.996  0.00  0.00    +0.000 C 
BRANCH  32  33
ATOM     33  C   UNL     1       6.467   4.690 -21.767  0.00  0.00    -0.000 C 
BRANCH  33  34
ATOM     34  C   UNL     1       7.507   4.084 -22.258  0.00  0.00    -0.000 C 
BRANCH  34  35
ATOM     35  C   UNL     1       7.974   4.433 -23.419  0.00  0.00    -0.000 C 
BRANCH  35  37
ATOM     36  C   UNL     1       8.644   3.259 -25.220  0.00  0.00    +0.004 C 
ATOM     37  C   UNL     1       7.688   3.728 -24.473  0.00  0.00    -0.003 C 
ENDBRANCH  35  37
ENDBRANCH  34  35
ENDBRANCH  33  34
ENDBRANCH  32  33
ENDBRANCH  31  32
ENDBRANCH  30  31
ENDBRANCH  29  30
ENDBRANCH  28  29
ENDBRANCH  27  28
ENDBRANCH   1  27
TORSDOF 14
ENDMDL
MODEL 4
REMARK VINA RESULT:    -8.096      1.375      5.958
REMARK INTER + INTRA:          -8.928
REMARK INTER:                 -12.881
REMARK INTRA:                   3.953
REMARK UNBOUND:                 5.320
REMARK  Name = ZINC000085340938
REMARK  17 active torsions:
REMARK  status: ('A' for Active; 'I' for Inactive)
REMARK    1  A    between atoms: C_1  and  C_2
REMARK    2  A    between atoms: C_2  and  C_3
REMARK    3  A    between atoms: C_3  and  C_4
REMARK    4  A    between atoms: C_4  and  C_5
REMARK    5  A    between atoms: C_5  and  C_6
REMARK    6  A    between atoms: C_6  and  C_7
REMARK    7  A    between atoms: C_7  and  C_8
REMARK    8  A    between atoms: C_8  and  C_9
REMARK    9  A    between atoms: C_9  and  C_10
REMARK   10  A    between atoms: C_10  and  C_11
REMARK   11  A    between atoms: C_11  and  C_12
REMARK   12  A    between atoms: C_13  and  O_14
REMARK   13  A    between atoms: N_16  and  C_17
REMARK   14  A    between atoms: C_22  and  C_23
REMARK   15  A    between atoms: C_25  and  O_26
REMARK   16  A    between atoms: N_28  and  C_29
REMARK   17  A    between atoms: C_34  and  C_35
REMARK                            x       y       z     vdW  Elec       q    Type
REMARK                         _______ _______ _______ _____ _____    ______ ____
ROOT
ATOM      1  C   UNL     1       3.936   3.649 -22.837  0.00  0.00    +0.025 C 
ATOM      2  C   UNL     1       4.864   4.493 -22.496  0.00  0.00    +0.148 C 
ATOM      3  C   UNL     1       4.619   5.770 -22.516  0.00  0.00    +0.110 C 
ATOM      4  C   UNL     1       3.448   6.202 -22.878  0.00  0.00    +0.079 C 
ATOM      5  C   UNL     1       2.520   5.357 -23.218  0.00  0.00    +0.145 C 
ATOM      6  N   UNL     1       5.547   6.614 -22.175  0.00  0.00    -0.244 NA
ATOM      7  C   UNL     1       2.764   4.081 -23.198  0.00  0.00    +0.113 C 
ATOM      8  N   UNL     1       1.837   3.236 -23.539  0.00  0.00    -0.244 NA
ENDROOT
BRANCH   8   9
ATOM      9  C   UNL     1       0.665   3.668 -23.900  0.00  0.00    +0.068 A 
ATOM     10  C   UNL     1      -0.080   4.311 -23.052  0.00  0.00    +0.028 A 
ATOM     11  C   UNL     1      -1.252   4.743 -23.412  0.00  0.00    +0.002 A 
ATOM     12  C   UNL     1      -1.679   4.532 -24.623  0.00  0.00    +0.000 A 
ATOM     13  C   UNL     1      -0.932   3.888 -25.472  0.00  0.00    +0.005 A 
ATOM     14  C   UNL     1       0.239   3.456 -25.110  0.00  0.00    -0.025 A 
ATOM     15  C   UNL     1       0.984   2.813 -25.959  0.00  0.00    +0.046 C 
ENDBRANCH   8   9
BRANCH   6  16
ATOM     16  C   UNL     1       6.719   6.183 -21.814  0.00  0.00    +0.068 A 
ATOM     17  C   UNL     1       7.571   5.785 -22.712  0.00  0.00    +0.028 A 
ATOM     18  C   UNL     1       8.742   5.353 -22.351  0.00  0.00    +0.002 A 
ATOM     19  C   UNL     1       9.062   5.319 -21.091  0.00  0.00    +0.000 A 
ATOM     20  C   UNL     1       8.211   5.716 -20.193  0.00  0.00    +0.005 A 
ATOM     21  C   UNL     1       7.039   6.148 -20.554  0.00  0.00    -0.025 A 
ATOM     22  C   UNL     1       6.188   6.546 -19.656  0.00  0.00    +0.046 C 
ENDBRANCH   6  16
BRANCH   2  23
ATOM     23  O   UNL     1       6.035   4.061 -22.134  0.00  0.00    -0.504 OA
ATOM     24  H   UNL     1       6.808   4.419 -22.525  0.00  0.00    +0.292 HD
ENDBRANCH   2  23
BRANCH   5  25
ATOM     25  O   UNL     1       1.349   5.789 -23.580  0.00  0.00    -0.505 OA
ATOM     26  H   UNL     1       0.630   5.192 -23.647  0.00  0.00    +0.292 HD
ENDBRANCH   5  25
BRANCH   1  27
ATOM     27  C   UNL     1       4.180   2.372 -22.816  0.00  0.00    +0.041 C 
BRANCH  27  28
ATOM     28  C   UNL     1       3.311   1.552 -22.305  0.00  0.00    +0.005 C 
BRANCH  28  29
ATOM     29  C   UNL     1       3.168   1.477 -21.016  0.00  0.00    +0.000 C 
BRANCH  29  30
ATOM     30  C   UNL     1       1.979   1.511 -20.490  0.00  0.00    +0.000 C 
BRANCH  30  31
ATOM     31  C   UNL     1       0.943   1.186 -21.205  0.00  0.00    +0.000 C 
BRANCH  31  32
ATOM     32  C   UNL     1      -0.241   1.593 -20.855  0.00  0.00    +0.000 C 
BRANCH  32  33
ATOM     33  C   UNL     1      -1.225   1.536 -21.703  0.00  0.00    -0.000 C 
BRANCH  33  34
ATOM     34  C   UNL     1      -2.421   1.890 -21.336  0.00  0.00    -0.000 C 
BRANCH  34  35
ATOM     35  C   UNL     1      -2.602   3.018 -20.715  0.00  0.00    -0.000 C 
BRANCH  35  37
ATOM     36  C   UNL     1      -4.494   3.390 -21.878  0.00  0.00    +0.004 C 
ATOM     37  C   UNL     1      -3.704   3.685 -20.888  0.00  0.00    -0.003 C 
ENDBRANCH  35  37
ENDBRANCH  34  35
ENDBRANCH  33  34
ENDBRANCH  32  33
ENDBRANCH  31  32
ENDBRANCH  30  31
ENDBRANCH  29  30
ENDBRANCH  28  29
ENDBRANCH  27  28
ENDBRANCH   1  27
TORSDOF 14
ENDMDL
MODEL 5
REMARK VINA RESULT:    -7.820      1.306      2.008
REMARK INTER + INTRA:          -8.442
REMARK INTER:                 -12.607
REMARK INTRA:                   4.165
REMARK UNBOUND:                 5.320
REMARK  Name = ZINC000085340938
REMARK  17 active torsions:
REMARK  status: ('A' for Active; 'I' for Inactive)
REMARK    1  A    between atoms: C_1  and  C_2
REMARK    2  A    between atoms: C_2  and  C_3
REMARK    3  A    between atoms: C_3  and  C_4
REMARK    4  A    between atoms: C_4  and  C_5
REMARK    5  A    between atoms: C_5  and  C_6
REMARK    6  A    between atoms: C_6  and  C_7
REMARK    7  A    between atoms: C_7  and  C_8
REMARK    8  A    between atoms: C_8  and  C_9
REMARK    9  A    between atoms: C_9  and  C_10
REMARK   10  A    between atoms: C_10  and  C_11
REMARK   11  A    between atoms: C_11  and  C_12
REMARK   12  A    between atoms: C_13  and  O_14
REMARK   13  A    between atoms: N_16  and  C_17
REMARK   14  A    between atoms: C_22  and  C_23
REMARK   15  A    between atoms: C_25  and  O_26
REMARK   16  A    between atoms: N_28  and  C_29
REMARK   17  A    between atoms: C_34  and  C_35
REMARK                            x       y       z     vdW  Elec       q    Type
REMARK                         _______ _______ _______ _____ _____    ______ ____
ROOT
ATOM      1  C   UNL     1       4.573   4.136 -23.206  0.00  0.00    +0.025 C 
ATOM      2  C   UNL     1       3.335   4.407 -23.496  0.00  0.00    +0.148 C 
ATOM      3  C   UNL     1       2.825   5.554 -23.157  0.00  0.00    +0.110 C 
ATOM      4  C   UNL     1       3.553   6.428 -22.528  0.00  0.00    +0.079 C 
ATOM      5  C   UNL     1       4.791   6.156 -22.238  0.00  0.00    +0.145 C 
ATOM      6  N   UNL     1       1.588   5.826 -23.447  0.00  0.00    -0.244 NA
ATOM      7  C   UNL     1       5.301   5.010 -22.577  0.00  0.00    +0.113 C 
ATOM      8  N   UNL     1       6.539   4.738 -22.287  0.00  0.00    -0.244 NA
ENDROOT
BRANCH   8   9
ATOM      9  C   UNL     1       7.266   5.612 -21.658  0.00  0.00    +0.068 A 
ATOM     10  C   UNL     1       7.181   5.719 -20.365  0.00  0.00    +0.028 A 
ATOM     11  C   UNL     1       7.908   6.593 -19.735  0.00  0.00    +0.002 A 
ATOM     12  C   UNL     1       8.722   7.361 -20.399  0.00  0.00    +0.000 A 
ATOM     13  C   UNL     1       8.807   7.254 -21.692  0.00  0.00    +0.005 A 
ATOM     14  C   UNL     1       8.079   6.380 -22.321  0.00  0.00    -0.025 A 
ATOM     15  C   UNL     1       8.164   6.273 -23.614  0.00  0.00    +0.046 C 
ENDBRANCH   8   9
BRANCH   6  16
ATOM     16  C   UNL     1       0.860   4.952 -24.076  0.00  0.00    +0.068 A 
ATOM     17  C   UNL     1       1.286   4.431 -25.189  0.00  0.00    +0.028 A 
ATOM     18  C   UNL     1       0.559   3.557 -25.818  0.00  0.00    +0.002 A 
ATOM     19  C   UNL     1      -0.595   3.203 -25.335  0.00  0.00    +0.000 A 
ATOM     20  C   UNL     1      -1.022   3.723 -24.223  0.00  0.00    +0.005 A 
ATOM     21  C   UNL     1      -0.294   4.598 -23.593  0.00  0.00    -0.025 A 
ATOM     22  C   UNL     1      -0.720   5.118 -22.481  0.00  0.00    +0.046 C 
ENDBRANCH   6  16
BRANCH   2  23
ATOM     23  O   UNL     1       2.608   3.533 -24.125  0.00  0.00    -0.504 OA
ATOM     24  H   UNL     1       1.709   3.413 -23.887  0.00  0.00    +0.292 HD
ENDBRANCH   2  23
BRANCH   5  25
ATOM     25  O   UNL     1       5.518   7.031 -21.609  0.00  0.00    -0.505 OA
ATOM     26  H   UNL     1       5.978   7.691 -22.090  0.00  0.00    +0.292 HD
ENDBRANCH   5  25
BRANCH   1  27
ATOM     27  C   UNL     1       5.083   2.989 -23.545  0.00  0.00    +0.041 C 
BRANCH  27  28
ATOM     28  C   UNL     1       5.880   2.364 -22.730  0.00  0.00    +0.005 C 
BRANCH  28  29
ATOM     29  C   UNL     1       5.502   1.249 -22.179  0.00  0.00    +0.000 C 
BRANCH  29  30
ATOM     30  C   UNL     1       4.974   1.256 -20.991  0.00  0.00    +0.000 C 
BRANCH  30  31
ATOM     31  C   UNL     1       4.094   0.356 -20.666  0.00  0.00    +0.000 C 
BRANCH  31  32
ATOM     32  C   UNL     1       2.898   0.405 -21.175  0.00  0.00    +0.000 C 
BRANCH  32  33
ATOM     33  C   UNL     1       2.249   1.531 -21.203  0.00  0.00    -0.000 C 
BRANCH  33  34
ATOM     34  C   UNL     1       1.112   1.610 -21.829  0.00  0.00    -0.000 C 
BRANCH  34  35
ATOM     35  C   UNL     1       0.012   1.776 -21.158  0.00  0.00    -0.000 C 
BRANCH  35  37
ATOM     36  C   UNL     1      -2.229   1.979 -21.265  0.00  0.00    +0.004 C 
ATOM     37  C   UNL     1      -1.126   1.427 -21.680  0.00  0.00    -0.003 C 
ENDBRANCH  35  37
ENDBRANCH  34  35
ENDBRANCH  33  34
ENDBRANCH  32  33
ENDBRANCH  31  32
ENDBRANCH  30  31
ENDBRANCH  29  30
ENDBRANCH  28  29
ENDBRANCH  27  28
ENDBRANCH   1  27
TORSDOF 14
ENDMDL
MODEL 6
REMARK VINA RESULT:    -7.772      2.819      8.282
REMARK INTER + INTRA:          -8.358
REMARK INTER:                 -13.477
REMARK INTRA:                   5.119
REMARK UNBOUND:                 5.320
REMARK  Name = ZINC000085340938
REMARK  17 active torsions:
REMARK  status: ('A' for Active; 'I' for Inactive)
REMARK    1  A    between atoms: C_1  and  C_2
REMARK    2  A    between atoms: C_2  and  C_3
REMARK    3  A    between atoms: C_3  and  C_4
REMARK    4  A    between atoms: C_4  and  C_5
REMARK    5  A    between atoms: C_5  and  C_6
REMARK    6  A    between atoms: C_6  and  C_7
REMARK    7  A    between atoms: C_7  and  C_8
REMARK    8  A    between atoms: C_8  and  C_9
REMARK    9  A    between atoms: C_9  and  C_10
REMARK   10  A    between atoms: C_10  and  C_11
REMARK   11  A    between atoms: C_11  and  C_12
REMARK   12  A    between atoms: C_13  and  O_14
REMARK   13  A    between atoms: N_16  and  C_17
REMARK   14  A    between atoms: C_22  and  C_23
REMARK   15  A    between atoms: C_25  and  O_26
REMARK   16  A    between atoms: N_28  and  C_29
REMARK   17  A    between atoms: C_34  and  C_35
REMARK                            x       y       z     vdW  Elec       q    Type
REMARK                         _______ _______ _______ _____ _____    ______ ____
ROOT
ATOM      1  C   UNL     1       0.333   3.666 -22.645  0.00  0.00    +0.025 C 
ATOM      2  C   UNL     1       1.209   2.724 -22.456  0.00  0.00    +0.148 C 
ATOM      3  C   UNL     1       0.814   1.498 -22.270  0.00  0.00    +0.110 C 
ATOM      4  C   UNL     1      -0.455   1.217 -22.273  0.00  0.00    +0.079 C 
ATOM      5  C   UNL     1      -1.330   2.159 -22.462  0.00  0.00    +0.145 C 
ATOM      6  N   UNL     1       1.689   0.556 -22.081  0.00  0.00    -0.244 NA
ATOM      7  C   UNL     1      -0.936   3.384 -22.648  0.00  0.00    +0.113 C 
ATOM      8  N   UNL     1      -1.811   4.327 -22.837  0.00  0.00    -0.244 NA
ENDROOT
BRANCH   8   9
ATOM      9  C   UNL     1      -3.079   4.045 -22.840  0.00  0.00    +0.068 A 
ATOM     10  C   UNL     1      -3.692   3.797 -21.721  0.00  0.00    +0.028 A 
ATOM     11  C   UNL     1      -4.962   3.515 -21.723  0.00  0.00    +0.002 A 
ATOM     12  C   UNL     1      -5.618   3.481 -22.846  0.00  0.00    +0.000 A 
ATOM     13  C   UNL     1      -5.004   3.730 -23.965  0.00  0.00    +0.005 A 
ATOM     14  C   UNL     1      -3.735   4.012 -23.962  0.00  0.00    -0.025 A 
ATOM     15  C   UNL     1      -3.122   4.260 -25.081  0.00  0.00    +0.046 C 
ENDBRANCH   8   9
BRANCH   6  16
ATOM     16  C   UNL     1       2.958   0.837 -22.078  0.00  0.00    +0.068 A 
ATOM     17  C   UNL     1       3.560   1.115 -20.959  0.00  0.00    +0.028 A 
ATOM     18  C   UNL     1       4.829   1.397 -20.956  0.00  0.00    +0.002 A 
ATOM     19  C   UNL     1       5.497   1.401 -22.071  0.00  0.00    +0.000 A 
ATOM     20  C   UNL     1       4.896   1.124 -23.189  0.00  0.00    +0.005 A 
ATOM     21  C   UNL     1       3.626   0.842 -23.193  0.00  0.00    -0.025 A 
ATOM     22  C   UNL     1       3.025   0.565 -24.311  0.00  0.00    +0.046 C 
ENDBRANCH   6  16
BRANCH   2  23
ATOM     23  O   UNL     1       2.478   3.005 -22.453  0.00  0.00    -0.504 OA
ATOM     24  H   UNL     1       3.072   2.486 -21.947  0.00  0.00    +0.292 HD
ENDBRANCH   2  23
BRANCH   5  25
ATOM     25  O   UNL     1      -2.598   1.878 -22.465  0.00  0.00    -0.505 OA
ATOM     26  H   UNL     1      -2.902   1.081 -22.075  0.00  0.00    +0.292 HD
ENDBRANCH   5  25
BRANCH   1  27
ATOM     27  C   UNL     1       0.728   4.891 -22.831  0.00  0.00    +0.041 C 
BRANCH  27  28
ATOM     28  C   UNL     1       1.790   5.131 -23.540  0.00  0.00    +0.005 C 
BRANCH  28  29
ATOM     29  C   UNL     1       2.644   6.029 -23.147  0.00  0.00    +0.000 C 
BRANCH  29  30
ATOM     30  C   UNL     1       3.862   5.682 -22.850  0.00  0.00    +0.000 C 
BRANCH  30  31
ATOM     31  C   UNL     1       4.600   6.466 -22.121  0.00  0.00    +0.000 C 
BRANCH  31  32
ATOM     32  C   UNL     1       4.310   7.729 -22.027  0.00  0.00    +0.000 C 
BRANCH  32  33
ATOM     33  C   UNL     1       4.819   8.444 -21.067  0.00  0.00    -0.000 C 
BRANCH  33  34
ATOM     34  C   UNL     1       4.180   9.486 -20.624  0.00  0.00    -0.000 C 
BRANCH  34  35
ATOM     35  C   UNL     1       4.778  10.638 -20.565  0.00  0.00    -0.000 C 
BRANCH  35  37
ATOM     36  C   UNL     1       3.380  11.533 -22.087  0.00  0.00    +0.004 C 
ATOM     37  C   UNL     1       4.235  11.681 -21.118  0.00  0.00    -0.003 C 
ENDBRANCH  35  37
ENDBRANCH  34  35
ENDBRANCH  33  34
ENDBRANCH  32  33
ENDBRANCH  31  32
ENDBRANCH  30  31
ENDBRANCH  29  30
ENDBRANCH  28  29
ENDBRANCH  27  28
ENDBRANCH   1  27
TORSDOF 14
ENDMDL
MODEL 7
REMARK VINA RESULT:    -7.135      2.560      4.737
REMARK INTER + INTRA:          -7.238
REMARK INTER:                 -11.405
REMARK INTRA:                   4.167
REMARK UNBOUND:                 5.320
REMARK  Name = ZINC000085340938
REMARK  17 active torsions:
REMARK  status: ('A' for Active; 'I' for Inactive)
REMARK    1  A    between atoms: C_1  and  C_2
REMARK    2  A    between atoms: C_2  and  C_3
REMARK    3  A    between atoms: C_3  and  C_4
REMARK    4  A    between atoms: C_4  and  C_5
REMARK    5  A    between atoms: C_5  and  C_6
REMARK    6  A    between atoms: C_6  and  C_7
REMARK    7  A    between atoms: C_7  and  C_8
REMARK    8  A    between atoms: C_8  and  C_9
REMARK    9  A    between atoms: C_9  and  C_10
REMARK   10  A    between atoms: C_10  and  C_11
REMARK   11  A    between atoms: C_11  and  C_12
REMARK   12  A    between atoms: C_13  and  O_14
REMARK   13  A    between atoms: N_16  and  C_17
REMARK   14  A    between atoms: C_22  and  C_23
REMARK   15  A    between atoms: C_25  and  O_26
REMARK   16  A    between atoms: N_28  and  C_29
REMARK   17  A    between atoms: C_34  and  C_35
REMARK                            x       y       z     vdW  Elec       q    Type
REMARK                         _______ _______ _______ _____ _____    ______ ____
ROOT
ATOM      1  C   UNL     1       3.315   5.754 -22.744  0.00  0.00    +0.025 C 
ATOM      2  C   UNL     1       3.713   4.521 -22.856  0.00  0.00    +0.148 C 
ATOM      3  C   UNL     1       4.973   4.231 -22.713  0.00  0.00    +0.110 C 
ATOM      4  C   UNL     1       5.832   5.172 -22.459  0.00  0.00    +0.079 C 
ATOM      5  C   UNL     1       5.433   6.404 -22.348  0.00  0.00    +0.145 C 
ATOM      6  N   UNL     1       5.372   2.998 -22.825  0.00  0.00    -0.244 NA
ATOM      7  C   UNL     1       4.175   6.695 -22.490  0.00  0.00    +0.113 C 
ATOM      8  N   UNL     1       3.776   7.927 -22.379  0.00  0.00    -0.244 NA
ENDROOT
BRANCH   8   9
ATOM      9  C   UNL     1       4.635   8.868 -22.125  0.00  0.00    +0.068 A 
ATOM     10  C   UNL     1       5.359   9.363 -23.084  0.00  0.00    +0.028 A 
ATOM     11  C   UNL     1       6.219  10.305 -22.831  0.00  0.00    +0.002 A 
ATOM     12  C   UNL     1       6.355  10.752 -21.617  0.00  0.00    +0.000 A 
ATOM     13  C   UNL     1       5.630  10.256 -20.657  0.00  0.00    +0.005 A 
ATOM     14  C   UNL     1       4.770   9.315 -20.911  0.00  0.00    -0.025 A 
ATOM     15  C   UNL     1       4.046   8.820 -19.952  0.00  0.00    +0.046 C 
ENDBRANCH   8   9
BRANCH   6  16
ATOM     16  C   UNL     1       4.513   2.057 -23.079  0.00  0.00    +0.068 A 
ATOM     17  C   UNL     1       4.078   1.883 -24.292  0.00  0.00    +0.028 A 
ATOM     18  C   UNL     1       3.218   0.942 -24.546  0.00  0.00    +0.002 A 
ATOM     19  C   UNL     1       2.793   0.174 -23.588  0.00  0.00    +0.000 A 
ATOM     20  C   UNL     1       3.227   0.347 -22.375  0.00  0.00    +0.005 A 
ATOM     21  C   UNL     1       4.087   1.289 -22.120  0.00  0.00    -0.025 A 
ATOM     22  C   UNL     1       4.521   1.462 -20.908  0.00  0.00    +0.046 C 
ENDBRANCH   6  16
BRANCH   2  23
ATOM     23  O   UNL     1       2.854   3.580 -23.110  0.00  0.00    -0.504 OA
ATOM     24  H   UNL     1       2.755   2.862 -22.515  0.00  0.00    +0.292 HD
ENDBRANCH   2  23
BRANCH   5  25
ATOM     25  O   UNL     1       6.293   7.345 -22.094  0.00  0.00    -0.505 OA
ATOM     26  H   UNL     1       6.312   8.118 -22.624  0.00  0.00    +0.292 HD
ENDBRANCH   5  25
BRANCH   1  27
ATOM     27  C   UNL     1       2.056   6.044 -22.887  0.00  0.00    +0.041 C 
BRANCH  27  28
ATOM     28  C   UNL     1       1.290   5.280 -23.608  0.00  0.00    +0.005 C 
BRANCH  28  29
ATOM     29  C   UNL     1       0.024   5.182 -23.331  0.00  0.00    +0.000 C 
BRANCH  29  30
ATOM     30  C   UNL     1      -0.617   4.082 -23.599  0.00  0.00    +0.000 C 
BRANCH  30  31
ATOM     31  C   UNL     1      -1.499   4.061 -24.554  0.00  0.00    +0.000 C 
BRANCH  31  32
ATOM     32  C   UNL     1      -2.758   4.227 -24.277  0.00  0.00    +0.000 C 
BRANCH  32  33
ATOM     33  C   UNL     1      -3.470   3.222 -23.858  0.00  0.00    -0.000 C 
BRANCH  33  34
ATOM     34  C   UNL     1      -3.923   3.210 -22.640  0.00  0.00    -0.000 C 
BRANCH  34  35
ATOM     35  C   UNL     1      -3.343   2.477 -21.737  0.00  0.00    -0.000 C 
BRANCH  35  37
ATOM     36  C   UNL     1      -3.123   4.214 -20.321  0.00  0.00    +0.004 C 
ATOM     37  C   UNL     1      -2.743   3.039 -20.731  0.00  0.00    -0.003 C 
ENDBRANCH  35  37
ENDBRANCH  34  35
ENDBRANCH  33  34
ENDBRANCH  32  33
ENDBRANCH  31  32
ENDBRANCH  30  31
ENDBRANCH  29  30
ENDBRANCH  28  29
ENDBRANCH  27  28
ENDBRANCH   1  27
TORSDOF 14
ENDMDL
