MODEL 1
REMARK VINA RESULT:    -8.904      0.000      0.000
REMARK INTER + INTRA:          -8.125
REMARK INTER:                 -10.450
REMARK INTRA:                   2.325
REMARK UNBOUND:                 2.341
REMARK  Name = ZINC000000323343
REMARK  4 active torsions:
REMARK  status: ('A' for Active; 'I' for Inactive)
REMARK    1  A    between atoms: C_2  and  C_3
REMARK    2  A    between atoms: C_4  and  N_5
REMARK    3  A    between atoms: C_18  and  C_19
REMARK    4  A    between atoms: C_22  and  O_23
REMARK                            x       y       z     vdW  Elec       q    Type
REMARK                         _______ _______ _______ _____ _____    ______ ____
ROOT
ATOM      1  C   UNL     1       3.018   4.563 -22.882  0.00  0.00    +0.098 C 
ATOM      2  C   UNL     1       2.233   5.503 -23.315  0.00  0.00    +0.199 C 
ATOM      3  O   UNL     1       0.994   5.234 -23.605  0.00  0.00    -0.440 OA
ATOM      4  C   UNL     1       0.541   4.024 -23.461  0.00  0.00    +0.152 A 
ATOM      5  C   UNL     1       1.327   3.083 -23.028  0.00  0.00    +0.092 A 
ATOM      6  C   UNL     1       0.874   1.873 -22.884  0.00  0.00    +0.345 A 
ATOM      7  O   UNL     1      -0.364   1.604 -23.173  0.00  0.00    -0.422 OA
ATOM      8  C   UNL     1      -1.150   2.544 -23.606  0.00  0.00    +0.143 A 
ATOM      9  C   UNL     1      -2.388   2.275 -23.896  0.00  0.00    +0.047 A 
ATOM     10  C   UNL     1      -3.174   3.216 -24.329  0.00  0.00    +0.004 A 
ATOM     11  C   UNL     1      -2.721   4.426 -24.473  0.00  0.00    +0.001 A 
ATOM     12  C   UNL     1      -1.482   4.695 -24.183  0.00  0.00    +0.015 A 
ATOM     13  O   UNL     1       1.660   0.932 -22.450  0.00  0.00    -0.245 OA
ATOM     14  C   UNL     1      -0.697   3.754 -23.750  0.00  0.00    +0.060 A 
ATOM     15  C   UNL     1       2.566   3.352 -22.738  0.00  0.00    +0.105 C 
ENDROOT
BRANCH  15  16
ATOM     16  C   UNL     1       3.351   2.412 -22.305  0.00  0.00    -0.034 A 
ATOM     17  C   UNL     1       4.120   1.773 -23.136  0.00  0.00    +0.008 A 
ATOM     18  C   UNL     1       4.905   0.832 -22.702  0.00  0.00    +0.046 A 
ATOM     19  C   UNL     1       4.922   0.530 -21.437  0.00  0.00    +0.117 A 
ATOM     20  C   UNL     1       4.153   1.170 -20.606  0.00  0.00    +0.046 A 
ATOM     21  C   UNL     1       3.367   2.111 -21.040  0.00  0.00    +0.008 A 
BRANCH  19  22
ATOM     22  O   UNL     1       5.707  -0.410 -21.004  0.00  0.00    -0.507 OA
ATOM     23  H   UNL     1       5.761  -1.225 -21.464  0.00  0.00    +0.292 HD
ENDBRANCH  19  22
ENDBRANCH  15  16
BRANCH   2  24
ATOM     24  N   UNL     1       2.685   6.713 -23.459  0.00  0.00    -0.328 N 
ATOM     25  H   UNL     1       3.365   7.062 -22.837  0.00  0.00    +0.145 HD
ATOM     26  H   UNL     1       2.350   7.281 -24.189  0.00  0.00    +0.145 HD
ENDBRANCH   2  24
BRANCH   1  28
ATOM     27  N   UNL     1       5.495   5.102 -22.304  0.00  0.00    -0.191 NA
ATOM     28  C   UNL     1       4.256   4.832 -22.593  0.00  0.00    +0.101 C 
ENDBRANCH   1  28
TORSDOF 4
ENDMDL
MODEL 2
REMARK VINA RESULT:    -8.745      2.389      3.089
REMARK INTER + INTRA:          -7.938
REMARK INTER:                 -10.214
REMARK INTRA:                   2.275
REMARK UNBOUND:                 2.341
REMARK  Name = ZINC000000323343
REMARK  4 active torsions:
REMARK  status: ('A' for Active; 'I' for Inactive)
REMARK    1  A    between atoms: C_2  and  C_3
REMARK    2  A    between atoms: C_4  and  N_5
REMARK    3  A    between atoms: C_18  and  C_19
REMARK    4  A    between atoms: C_22  and  O_23
REMARK                            x       y       z     vdW  Elec       q    Type
REMARK                         _______ _______ _______ _____ _____    ______ ____
ROOT
ATOM      1  C   UNL     1       0.409   2.825 -24.472  0.00  0.00    +0.098 C 
ATOM      2  C   UNL     1      -0.647   3.297 -25.064  0.00  0.00    +0.199 C 
ATOM      3  O   UNL     1      -1.789   3.314 -24.441  0.00  0.00    -0.440 OA
ATOM      4  C   UNL     1      -1.873   2.860 -23.226  0.00  0.00    +0.152 A 
ATOM      5  C   UNL     1      -0.817   2.387 -22.634  0.00  0.00    +0.092 A 
ATOM      6  C   UNL     1      -0.902   1.932 -21.419  0.00  0.00    +0.345 A 
ATOM      7  O   UNL     1      -2.042   1.950 -20.797  0.00  0.00    -0.422 OA
ATOM      8  C   UNL     1      -3.099   2.422 -21.389  0.00  0.00    +0.143 A 
ATOM      9  C   UNL     1      -4.240   2.440 -20.766  0.00  0.00    +0.047 A 
ATOM     10  C   UNL     1      -5.296   2.912 -21.359  0.00  0.00    +0.004 A 
ATOM     11  C   UNL     1      -5.212   3.367 -22.573  0.00  0.00    +0.001 A 
ATOM     12  C   UNL     1      -4.070   3.349 -23.196  0.00  0.00    +0.015 A 
ATOM     13  O   UNL     1       0.156   1.460 -20.827  0.00  0.00    -0.245 OA
ATOM     14  C   UNL     1      -3.014   2.877 -22.604  0.00  0.00    +0.060 A 
ATOM     15  C   UNL     1       0.324   2.370 -23.257  0.00  0.00    +0.105 C 
ENDROOT
BRANCH  15  16
ATOM     16  C   UNL     1       1.381   1.897 -22.664  0.00  0.00    -0.034 A 
ATOM     17  C   UNL     1       1.668   0.633 -22.757  0.00  0.00    +0.008 A 
ATOM     18  C   UNL     1       2.724   0.161 -22.165  0.00  0.00    +0.046 A 
ATOM     19  C   UNL     1       3.494   0.954 -21.479  0.00  0.00    +0.117 A 
ATOM     20  C   UNL     1       3.207   2.218 -21.386  0.00  0.00    +0.046 A 
ATOM     21  C   UNL     1       2.150   2.691 -21.979  0.00  0.00    +0.008 A 
BRANCH  19  22
ATOM     22  O   UNL     1       4.550   0.482 -20.887  0.00  0.00    -0.507 OA
ATOM     23  H   UNL     1       5.361   0.948 -20.934  0.00  0.00    +0.292 HD
ENDBRANCH  19  22
ENDBRANCH  15  16
BRANCH   2  24
ATOM     24  N   UNL     1      -0.563   3.752 -26.279  0.00  0.00    -0.328 N 
ATOM     25  H   UNL     1      -0.944   3.235 -27.026  0.00  0.00    +0.145 HD
ATOM     26  H   UNL     1      -0.118   4.612 -26.453  0.00  0.00    +0.145 HD
ENDBRANCH   2  24
BRANCH   1  28
ATOM     27  N   UNL     1       2.691   2.789 -25.717  0.00  0.00    -0.191 NA
ATOM     28  C   UNL     1       1.550   2.807 -25.094  0.00  0.00    +0.101 C 
ENDBRANCH   1  28
TORSDOF 4
ENDMDL
MODEL 3
REMARK VINA RESULT:    -8.537      2.551      3.507
REMARK INTER + INTRA:          -7.693
REMARK INTER:                  -9.969
REMARK INTRA:                   2.276
REMARK UNBOUND:                 2.341
REMARK  Name = ZINC000000323343
REMARK  4 active torsions:
REMARK  status: ('A' for Active; 'I' for Inactive)
REMARK    1  A    between atoms: C_2  and  C_3
REMARK    2  A    between atoms: C_4  and  N_5
REMARK    3  A    between atoms: C_18  and  C_19
REMARK    4  A    between atoms: C_22  and  O_23
REMARK                            x       y       z     vdW  Elec       q    Type
REMARK                         _______ _______ _______ _____ _____    ______ ____
ROOT
ATOM      1  C   UNL     1       0.532   1.880 -21.999  0.00  0.00    +0.098 C 
ATOM      2  C   UNL     1      -0.734   1.721 -21.747  0.00  0.00    +0.199 C 
ATOM      3  O   UNL     1      -1.622   2.090 -22.622  0.00  0.00    -0.440 OA
ATOM      4  C   UNL     1      -1.245   2.618 -23.748  0.00  0.00    +0.152 A 
ATOM      5  C   UNL     1       0.021   2.778 -24.000  0.00  0.00    +0.092 A 
ATOM      6  C   UNL     1       0.398   3.306 -25.126  0.00  0.00    +0.345 A 
ATOM      7  O   UNL     1      -0.489   3.675 -26.001  0.00  0.00    -0.422 OA
ATOM      8  C   UNL     1      -1.755   3.515 -25.749  0.00  0.00    +0.143 A 
ATOM      9  C   UNL     1      -2.643   3.884 -26.624  0.00  0.00    +0.047 A 
ATOM     10  C   UNL     1      -3.908   3.725 -26.373  0.00  0.00    +0.004 A 
ATOM     11  C   UNL     1      -4.286   3.197 -25.247  0.00  0.00    +0.001 A 
ATOM     12  C   UNL     1      -3.397   2.828 -24.372  0.00  0.00    +0.015 A 
ATOM     13  O   UNL     1       1.664   3.465 -25.377  0.00  0.00    -0.245 OA
ATOM     14  C   UNL     1      -2.132   2.987 -24.623  0.00  0.00    +0.060 A 
ATOM     15  C   UNL     1       0.909   2.409 -23.125  0.00  0.00    +0.105 C 
ENDROOT
BRANCH  15  16
ATOM     16  C   UNL     1       2.174   2.568 -23.376  0.00  0.00    -0.034 A 
ATOM     17  C   UNL     1       2.846   1.620 -23.958  0.00  0.00    +0.008 A 
ATOM     18  C   UNL     1       4.111   1.780 -24.209  0.00  0.00    +0.046 A 
ATOM     19  C   UNL     1       4.705   2.888 -23.878  0.00  0.00    +0.117 A 
ATOM     20  C   UNL     1       4.033   3.837 -23.296  0.00  0.00    +0.046 A 
ATOM     21  C   UNL     1       2.767   3.677 -23.045  0.00  0.00    +0.008 A 
BRANCH  19  22
ATOM     22  O   UNL     1       5.970   3.048 -24.130  0.00  0.00    -0.507 OA
ATOM     23  H   UNL     1       6.486   3.618 -23.594  0.00  0.00    +0.292 HD
ENDBRANCH  19  22
ENDBRANCH  15  16
BRANCH   2  24
ATOM     24  N   UNL     1      -1.111   1.192 -20.621  0.00  0.00    -0.328 N 
ATOM     25  H   UNL     1      -0.439   0.836 -19.995  0.00  0.00    +0.145 HD
ATOM     26  H   UNL     1      -2.067   1.148 -20.394  0.00  0.00    +0.145 HD
ENDBRANCH   2  24
BRANCH   1  28
ATOM     27  N   UNL     1       2.307   1.142 -20.248  0.00  0.00    -0.191 NA
ATOM     28  C   UNL     1       1.419   1.511 -21.124  0.00  0.00    +0.101 C 
ENDBRANCH   1  28
TORSDOF 4
ENDMDL
MODEL 4
REMARK VINA RESULT:    -8.219      2.608      6.139
REMARK INTER + INTRA:          -7.319
REMARK INTER:                  -9.624
REMARK INTRA:                   2.304
REMARK UNBOUND:                 2.341
REMARK  Name = ZINC000000323343
REMARK  4 active torsions:
REMARK  status: ('A' for Active; 'I' for Inactive)
REMARK    1  A    between atoms: C_2  and  C_3
REMARK    2  A    between atoms: C_4  and  N_5
REMARK    3  A    between atoms: C_18  and  C_19
REMARK    4  A    between atoms: C_22  and  O_23
REMARK                            x       y       z     vdW  Elec       q    Type
REMARK                         _______ _______ _______ _____ _____    ______ ____
ROOT
ATOM      1  C   UNL     1      -0.020   2.867 -24.354  0.00  0.00    +0.098 C 
ATOM      2  C   UNL     1       1.109   2.594 -24.938  0.00  0.00    +0.199 C 
ATOM      3  O   UNL     1       2.090   2.087 -24.251  0.00  0.00    -0.440 OA
ATOM      4  C   UNL     1       1.942   1.853 -22.981  0.00  0.00    +0.152 A 
ATOM      5  C   UNL     1       0.813   2.127 -22.398  0.00  0.00    +0.092 A 
ATOM      6  C   UNL     1       0.664   1.893 -21.127  0.00  0.00    +0.345 A 
ATOM      7  O   UNL     1       1.645   1.386 -20.441  0.00  0.00    -0.422 OA
ATOM      8  C   UNL     1       2.774   1.113 -21.024  0.00  0.00    +0.143 A 
ATOM      9  C   UNL     1       3.755   0.606 -20.338  0.00  0.00    +0.047 A 
ATOM     10  C   UNL     1       4.884   0.333 -20.921  0.00  0.00    +0.004 A 
ATOM     11  C   UNL     1       5.032   0.567 -22.192  0.00  0.00    +0.001 A 
ATOM     12  C   UNL     1       4.051   1.074 -22.878  0.00  0.00    +0.015 A 
ATOM     13  O   UNL     1      -0.465   2.167 -20.544  0.00  0.00    -0.245 OA
ATOM     14  C   UNL     1       2.922   1.347 -22.295  0.00  0.00    +0.060 A 
ATOM     15  C   UNL     1      -0.168   2.633 -23.084  0.00  0.00    +0.105 C 
ENDROOT
BRANCH  15  16
ATOM     16  C   UNL     1      -1.297   2.907 -22.501  0.00  0.00    -0.034 A 
ATOM     17  C   UNL     1      -2.217   1.993 -22.403  0.00  0.00    +0.008 A 
ATOM     18  C   UNL     1      -3.345   2.267 -21.819  0.00  0.00    +0.046 A 
ATOM     19  C   UNL     1      -3.555   3.454 -21.333  0.00  0.00    +0.117 A 
ATOM     20  C   UNL     1      -2.635   4.368 -21.430  0.00  0.00    +0.046 A 
ATOM     21  C   UNL     1      -1.506   4.094 -22.015  0.00  0.00    +0.008 A 
BRANCH  19  22
ATOM     22  O   UNL     1      -4.683   3.727 -20.749  0.00  0.00    -0.507 OA
ATOM     23  H   UNL     1      -4.945   4.619 -20.630  0.00  0.00    +0.292 HD
ENDBRANCH  19  22
ENDBRANCH  15  16
BRANCH   2  24
ATOM     24  N   UNL     1       1.257   2.827 -26.208  0.00  0.00    -0.328 N 
ATOM     25  H   UNL     1       0.507   3.192 -26.733  0.00  0.00    +0.145 HD
ATOM     26  H   UNL     1       2.118   2.640 -26.646  0.00  0.00    +0.145 HD
ENDBRANCH   2  24
BRANCH   1  28
ATOM     27  N   UNL     1      -1.981   3.880 -25.728  0.00  0.00    -0.191 NA
ATOM     28  C   UNL     1      -1.000   3.374 -25.041  0.00  0.00    +0.101 C 
ENDBRANCH   1  28
TORSDOF 4
ENDMDL
MODEL 5
REMARK VINA RESULT:    -7.751      2.577      6.356
REMARK INTER + INTRA:          -6.770
REMARK INTER:                  -9.061
REMARK INTRA:                   2.291
REMARK UNBOUND:                 2.341
REMARK  Name = ZINC000000323343
REMARK  4 active torsions:
REMARK  status: ('A' for Active; 'I' for Inactive)
REMARK    1  A    between atoms: C_2  and  C_3
REMARK    2  A    between atoms: C_4  and  N_5
REMARK    3  A    between atoms: C_18  and  C_19
REMARK    4  A    between atoms: C_22  and  O_23
REMARK                            x       y       z     vdW  Elec       q    Type
REMARK                         _______ _______ _______ _____ _____    ______ ____
ROOT
ATOM      1  C   UNL     1       3.849   2.577 -23.286  0.00  0.00    +0.098 C 
ATOM      2  C   UNL     1       5.077   2.588 -22.861  0.00  0.00    +0.199 C 
ATOM      3  O   UNL     1       5.622   3.704 -22.475  0.00  0.00    -0.440 OA
ATOM      4  C   UNL     1       4.937   4.808 -22.513  0.00  0.00    +0.152 A 
ATOM      5  C   UNL     1       3.709   4.797 -22.937  0.00  0.00    +0.092 A 
ATOM      6  C   UNL     1       3.024   5.902 -22.975  0.00  0.00    +0.345 A 
ATOM      7  O   UNL     1       3.568   7.017 -22.589  0.00  0.00    -0.422 OA
ATOM      8  C   UNL     1       4.797   7.028 -22.165  0.00  0.00    +0.143 A 
ATOM      9  C   UNL     1       5.342   8.144 -21.778  0.00  0.00    +0.047 A 
ATOM     10  C   UNL     1       6.570   8.155 -21.354  0.00  0.00    +0.004 A 
ATOM     11  C   UNL     1       7.255   7.050 -21.315  0.00  0.00    +0.001 A 
ATOM     12  C   UNL     1       6.710   5.935 -21.702  0.00  0.00    +0.015 A 
ATOM     13  O   UNL     1       1.795   5.891 -23.400  0.00  0.00    -0.245 OA
ATOM     14  C   UNL     1       5.481   5.924 -22.126  0.00  0.00    +0.060 A 
ATOM     15  C   UNL     1       3.164   3.682 -23.324  0.00  0.00    +0.105 C 
ENDROOT
BRANCH  15  16
ATOM     16  C   UNL     1       1.936   3.671 -23.748  0.00  0.00    -0.034 A 
ATOM     17  C   UNL     1       1.680   3.885 -25.005  0.00  0.00    +0.008 A 
ATOM     18  C   UNL     1       0.452   3.874 -25.428  0.00  0.00    +0.046 A 
ATOM     19  C   UNL     1      -0.522   3.649 -24.596  0.00  0.00    +0.117 A 
ATOM     20  C   UNL     1      -0.266   3.434 -23.339  0.00  0.00    +0.046 A 
ATOM     21  C   UNL     1       0.963   3.445 -22.915  0.00  0.00    +0.008 A 
BRANCH  19  22
ATOM     22  O   UNL     1      -1.751   3.638 -25.020  0.00  0.00    -0.507 OA
ATOM     23  H   UNL     1      -2.256   2.851 -24.971  0.00  0.00    +0.292 HD
ENDBRANCH  19  22
ENDBRANCH  15  16
BRANCH   2  24
ATOM     24  N   UNL     1       5.762   1.484 -22.823  0.00  0.00    -0.328 N 
ATOM     25  H   UNL     1       5.755   0.873 -23.596  0.00  0.00    +0.145 HD
ATOM     26  H   UNL     1       6.287   1.257 -22.023  0.00  0.00    +0.145 HD
ENDBRANCH   2  24
BRANCH   1  28
ATOM     27  N   UNL     1       2.760   0.346 -24.058  0.00  0.00    -0.191 NA
ATOM     28  C   UNL     1       3.305   1.462 -23.672  0.00  0.00    +0.101 C 
ENDBRANCH   1  28
TORSDOF 4
ENDMDL
MODEL 6
REMARK VINA RESULT:    -7.292      2.784      6.590
REMARK INTER + INTRA:          -6.230
REMARK INTER:                  -8.504
REMARK INTRA:                   2.275
REMARK UNBOUND:                 2.341
REMARK  Name = ZINC000000323343
REMARK  4 active torsions:
REMARK  status: ('A' for Active; 'I' for Inactive)
REMARK    1  A    between atoms: C_2  and  C_3
REMARK    2  A    between atoms: C_4  and  N_5
REMARK    3  A    between atoms: C_18  and  C_19
REMARK    4  A    between atoms: C_22  and  O_23
REMARK                            x       y       z     vdW  Elec       q    Type
REMARK                         _______ _______ _______ _____ _____    ______ ____
ROOT
ATOM      1  C   UNL     1      -0.840   2.178 -21.887  0.00  0.00    +0.098 C 
ATOM      2  C   UNL     1       0.071   1.710 -21.087  0.00  0.00    +0.199 C 
ATOM      3  O   UNL     1       1.330   1.850 -21.381  0.00  0.00    -0.440 OA
ATOM      4  C   UNL     1       1.677   2.459 -22.476  0.00  0.00    +0.152 A 
ATOM      5  C   UNL     1       0.766   2.927 -23.276  0.00  0.00    +0.092 A 
ATOM      6  C   UNL     1       1.114   3.536 -24.371  0.00  0.00    +0.345 A 
ATOM      7  O   UNL     1       2.372   3.676 -24.666  0.00  0.00    -0.422 OA
ATOM      8  C   UNL     1       3.282   3.208 -23.866  0.00  0.00    +0.143 A 
ATOM      9  C   UNL     1       4.541   3.349 -24.160  0.00  0.00    +0.047 A 
ATOM     10  C   UNL     1       5.452   2.881 -23.360  0.00  0.00    +0.004 A 
ATOM     11  C   UNL     1       5.105   2.272 -22.265  0.00  0.00    +0.001 A 
ATOM     12  C   UNL     1       3.846   2.132 -21.970  0.00  0.00    +0.015 A 
ATOM     13  O   UNL     1       0.202   4.004 -25.172  0.00  0.00    -0.245 OA
ATOM     14  C   UNL     1       2.935   2.600 -22.771  0.00  0.00    +0.060 A 
ATOM     15  C   UNL     1      -0.492   2.787 -22.982  0.00  0.00    +0.105 C 
ENDROOT
BRANCH  15  16
ATOM     16  C   UNL     1      -1.403   3.255 -23.782  0.00  0.00    -0.034 A 
ATOM     17  C   UNL     1      -1.839   4.470 -23.632  0.00  0.00    +0.008 A 
ATOM     18  C   UNL     1      -2.750   4.937 -24.432  0.00  0.00    +0.046 A 
ATOM     19  C   UNL     1      -3.225   4.190 -25.384  0.00  0.00    +0.117 A 
ATOM     20  C   UNL     1      -2.790   2.974 -25.535  0.00  0.00    +0.046 A 
ATOM     21  C   UNL     1      -1.878   2.506 -24.734  0.00  0.00    +0.008 A 
BRANCH  19  22
ATOM     22  O   UNL     1      -4.136   4.658 -26.185  0.00  0.00    -0.507 OA
ATOM     23  H   UNL     1      -4.304   5.579 -26.215  0.00  0.00    +0.292 HD
ENDBRANCH  19  22
ENDBRANCH  15  16
BRANCH   2  24
ATOM     24  N   UNL     1      -0.276   1.101 -19.992  0.00  0.00    -0.328 N 
ATOM     25  H   UNL     1      -0.977   0.410 -20.014  0.00  0.00    +0.145 HD
ATOM     26  H   UNL     1       0.162   1.330 -19.141  0.00  0.00    +0.145 HD
ENDBRANCH   2  24
BRANCH   1  28
ATOM     27  N   UNL     1      -3.356   1.897 -21.297  0.00  0.00    -0.191 NA
ATOM     28  C   UNL     1      -2.098   2.037 -21.592  0.00  0.00    +0.101 C 
ENDBRANCH   1  28
TORSDOF 4
ENDMDL
MODEL 7
REMARK VINA RESULT:    -7.060      2.532      3.897
REMARK INTER + INTRA:          -5.958
REMARK INTER:                  -8.276
REMARK INTRA:                   2.318
REMARK UNBOUND:                 2.341
REMARK  Name = ZINC000000323343
REMARK  4 active torsions:
REMARK  status: ('A' for Active; 'I' for Inactive)
REMARK    1  A    between atoms: C_2  and  C_3
REMARK    2  A    between atoms: C_4  and  N_5
REMARK    3  A    between atoms: C_18  and  C_19
REMARK    4  A    between atoms: C_22  and  O_23
REMARK                            x       y       z     vdW  Elec       q    Type
REMARK                         _______ _______ _______ _____ _____    ______ ____
ROOT
ATOM      1  C   UNL     1       3.846   1.546 -22.557  0.00  0.00    +0.098 C 
ATOM      2  C   UNL     1       2.707   0.922 -22.605  0.00  0.00    +0.199 C 
ATOM      3  O   UNL     1       1.609   1.587 -22.807  0.00  0.00    -0.440 OA
ATOM      4  C   UNL     1       1.649   2.877 -22.961  0.00  0.00    +0.152 A 
ATOM      5  C   UNL     1       2.788   3.502 -22.913  0.00  0.00    +0.092 A 
ATOM      6  C   UNL     1       2.829   4.792 -23.067  0.00  0.00    +0.345 A 
ATOM      7  O   UNL     1       1.731   5.458 -23.269  0.00  0.00    -0.422 OA
ATOM      8  C   UNL     1       0.592   4.833 -23.317  0.00  0.00    +0.143 A 
ATOM      9  C   UNL     1      -0.507   5.499 -23.520  0.00  0.00    +0.047 A 
ATOM     10  C   UNL     1      -1.645   4.874 -23.568  0.00  0.00    +0.004 A 
ATOM     11  C   UNL     1      -1.686   3.584 -23.414  0.00  0.00    +0.001 A 
ATOM     12  C   UNL     1      -0.587   2.918 -23.212  0.00  0.00    +0.015 A 
ATOM     13  O   UNL     1       3.969   5.417 -23.019  0.00  0.00    -0.245 OA
ATOM     14  C   UNL     1       0.551   3.543 -23.164  0.00  0.00    +0.060 A 
ATOM     15  C   UNL     1       3.887   2.837 -22.711  0.00  0.00    +0.105 C 
ENDROOT
BRANCH  15  16
ATOM     16  C   UNL     1       5.026   3.461 -22.663  0.00  0.00    -0.034 A 
ATOM     17  C   UNL     1       5.520   3.825 -21.517  0.00  0.00    +0.008 A 
ATOM     18  C   UNL     1       6.658   4.449 -21.469  0.00  0.00    +0.046 A 
ATOM     19  C   UNL     1       7.304   4.711 -22.568  0.00  0.00    +0.117 A 
ATOM     20  C   UNL     1       6.809   4.348 -23.714  0.00  0.00    +0.046 A 
ATOM     21  C   UNL     1       5.670   3.723 -23.761  0.00  0.00    +0.008 A 
BRANCH  19  22
ATOM     22  O   UNL     1       8.443   5.336 -22.519  0.00  0.00    -0.507 OA
ATOM     23  H   UNL     1       8.615   5.942 -21.826  0.00  0.00    +0.292 HD
ENDBRANCH  19  22
ENDBRANCH  15  16
BRANCH   2  24
ATOM     24  N   UNL     1       2.667  -0.369 -22.451  0.00  0.00    -0.328 N 
ATOM     25  H   UNL     1       1.817  -0.852 -22.572  0.00  0.00    +0.145 HD
ATOM     26  H   UNL     1       3.484  -0.863 -22.215  0.00  0.00    +0.145 HD
ENDBRANCH   2  24
BRANCH   1  28
ATOM     27  N   UNL     1       6.042   0.215 -22.152  0.00  0.00    -0.191 NA
ATOM     28  C   UNL     1       4.944   0.881 -22.355  0.00  0.00    +0.101 C 
ENDBRANCH   1  28
TORSDOF 4
ENDMDL
MODEL 8
REMARK VINA RESULT:    -6.558      3.204      5.511
REMARK INTER + INTRA:          -5.368
REMARK INTER:                  -7.664
REMARK INTRA:                   2.297
REMARK UNBOUND:                 2.341
REMARK  Name = ZINC000000323343
REMARK  4 active torsions:
REMARK  status: ('A' for Active; 'I' for Inactive)
REMARK    1  A    between atoms: C_2  and  C_3
REMARK    2  A    between atoms: C_4  and  N_5
REMARK    3  A    between atoms: C_18  and  C_19
REMARK    4  A    between atoms: C_22  and  O_23
REMARK                            x       y       z     vdW  Elec       q    Type
REMARK                         _______ _______ _______ _____ _____    ______ ____
ROOT
ATOM      1  C   UNL     1       6.587   4.411 -22.460  0.00  0.00    +0.098 C 
ATOM      2  C   UNL     1       6.320   3.247 -22.974  0.00  0.00    +0.199 C 
ATOM      3  O   UNL     1       5.130   2.998 -23.436  0.00  0.00    -0.440 OA
ATOM      4  C   UNL     1       4.208   3.913 -23.385  0.00  0.00    +0.152 A 
ATOM      5  C   UNL     1       4.475   5.077 -22.871  0.00  0.00    +0.092 A 
ATOM      6  C   UNL     1       3.553   5.992 -22.820  0.00  0.00    +0.345 A 
ATOM      7  O   UNL     1       2.364   5.743 -23.282  0.00  0.00    -0.422 OA
ATOM      8  C   UNL     1       2.097   4.579 -23.795  0.00  0.00    +0.143 A 
ATOM      9  C   UNL     1       0.908   4.329 -24.258  0.00  0.00    +0.047 A 
ATOM     10  C   UNL     1       0.641   3.165 -24.771  0.00  0.00    +0.004 A 
ATOM     11  C   UNL     1       1.563   2.250 -24.823  0.00  0.00    +0.001 A 
ATOM     12  C   UNL     1       2.753   2.500 -24.360  0.00  0.00    +0.015 A 
ATOM     13  O   UNL     1       3.821   7.156 -22.306  0.00  0.00    -0.245 OA
ATOM     14  C   UNL     1       3.019   3.664 -23.847  0.00  0.00    +0.060 A 
ATOM     15  C   UNL     1       5.665   5.326 -22.409  0.00  0.00    +0.105 C 
ENDROOT
BRANCH  15  16
ATOM     16  C   UNL     1       5.932   6.490 -21.895  0.00  0.00    -0.034 A 
ATOM     17  C   UNL     1       5.685   6.719 -20.640  0.00  0.00    +0.008 A 
ATOM     18  C   UNL     1       5.953   7.882 -20.127  0.00  0.00    +0.046 A 
ATOM     19  C   UNL     1       6.466   8.818 -20.870  0.00  0.00    +0.117 A 
ATOM     20  C   UNL     1       6.713   8.590 -22.125  0.00  0.00    +0.046 A 
ATOM     21  C   UNL     1       6.445   7.425 -22.639  0.00  0.00    +0.008 A 
BRANCH  19  22
ATOM     22  O   UNL     1       6.733   9.982 -20.356  0.00  0.00    -0.507 OA
ATOM     23  H   UNL     1       7.049  10.674 -20.903  0.00  0.00    +0.292 HD
ENDBRANCH  19  22
ENDBRANCH  15  16
BRANCH   2  24
ATOM     24  N   UNL     1       7.242   2.332 -23.025  0.00  0.00    -0.328 N 
ATOM     25  H   UNL     1       8.137   2.554 -23.372  0.00  0.00    +0.145 HD
ATOM     26  H   UNL     1       7.047   1.418 -22.718  0.00  0.00    +0.145 HD
ENDBRANCH   2  24
BRANCH   1  28
ATOM     27  N   UNL     1       8.965   4.910 -21.535  0.00  0.00    -0.191 NA
ATOM     28  C   UNL     1       7.776   4.660 -21.998  0.00  0.00    +0.101 C 
ENDBRANCH   1  28
TORSDOF 4
ENDMDL
