MODEL 1
REMARK VINA RESULT:    -8.639      0.000      0.000
REMARK INTER + INTRA:         -15.950
REMARK INTER:                 -14.669
REMARK INTRA:                  -1.281
REMARK UNBOUND:                -1.251
REMARK  Name = CCCCCCCCCCCC1=C(O)C(=O)C=C(Nc2c(Cl)cccc2Cl)C1=O                      ZINC000100392807
REMARK  13 active torsions:
REMARK  status: ('A' for Active; 'I' for Inactive)
REMARK    1  A    between atoms: C_1  and  C_2
REMARK    2  A    between atoms: C_2  and  C_3
REMARK    3  A    between atoms: C_3  and  C_4
REMARK    4  A    between atoms: C_4  and  C_5
REMARK    5  A    between atoms: C_5  and  C_6
REMARK    6  A    between atoms: C_6  and  C_7
REMARK    7  A    between atoms: C_7  and  C_8
REMARK    8  A    between atoms: C_8  and  C_9
REMARK    9  A    between atoms: C_9  and  C_10
REMARK   10  A    between atoms: C_10  and  C_11
REMARK   11  A    between atoms: C_11  and  C_12
REMARK   12  A    between atoms: C_18  and  N_19
REMARK   13  A    between atoms: N_19  and  C_20
REMARK                            x       y       z     vdW  Elec       q    Type
REMARK                         _______ _______ _______ _____ _____    ______ ____
ROOT
ATOM      1  C   UNL     1      -0.887   3.649 -22.618  0.00  0.00    -0.008 C 
ATOM      2  C   UNL     1      -0.253   4.675 -23.104  0.00  0.00    +0.228 C 
ATOM      3  C   UNL     1       0.991   4.558 -23.465  0.00  0.00    +0.227 C 
ATOM      4  C   UNL     1       1.601   3.417 -23.338  0.00  0.00    +0.077 C 
ATOM      5  C   UNL     1       0.967   2.392 -22.852  0.00  0.00    +0.022 C 
ATOM      6  O   UNL     1       1.625   5.584 -23.951  0.00  0.00    -0.284 OA
ATOM      7  O   UNL     1      -0.862   5.816 -23.231  0.00  0.00    -0.284 OA
ATOM      8  C   UNL     1      -0.278   2.508 -22.492  0.00  0.00    -0.112 C 
ATOM      9  O   UNL     1      -0.912   1.482 -22.006  0.00  0.00    -0.828 OA
ENDROOT
BRANCH   5  10
ATOM     10  N   UNL     1       1.576   1.251 -22.726  0.00  0.00    -0.313 N 
ATOM     11  H   UNL     1       1.129   0.420 -23.006  0.00  0.00    +0.152 HD
BRANCH  10  12
ATOM     12  C   UNL     1       2.777   1.207 -22.230  0.00  0.00    +0.068 A 
ATOM     13  C   UNL     1       3.801   1.064 -23.017  0.00  0.00    +0.063 A 
ATOM     14  C   UNL     1       5.002   1.021 -22.521  0.00  0.00    +0.022 A 
ATOM     15  C   UNL     1       5.178   1.119 -21.237  0.00  0.00    +0.003 A 
ATOM     16  C   UNL     1       4.154   1.261 -20.449  0.00  0.00    +0.022 A 
ATOM     17 CL   UNL     1       3.624   0.966 -24.302  0.00  0.00    -0.082 Cl
ATOM     18  C   UNL     1       2.954   1.305 -20.945  0.00  0.00    +0.063 A 
ATOM     19 CL   UNL     1       1.929   1.448 -20.157  0.00  0.00    -0.082 Cl
ENDBRANCH  10  12
ENDBRANCH   5  10
BRANCH   1  20
ATOM     20  C   UNL     1      -2.130   3.765 -22.258  0.00  0.00    +0.038 C 
BRANCH  20  21
ATOM     21  C   UNL     1      -2.430   3.954 -21.009  0.00  0.00    +0.005 C 
BRANCH  21  22
ATOM     22  C   UNL     1      -3.594   3.592 -20.556  0.00  0.00    +0.000 C 
BRANCH  22  23
ATOM     23  C   UNL     1      -4.199   2.561 -21.065  0.00  0.00    +0.000 C 
BRANCH  23  24
ATOM     24  C   UNL     1      -5.382   2.695 -21.588  0.00  0.00    +0.000 C 
BRANCH  24  25
ATOM     25  C   UNL     1      -5.610   3.644 -22.447  0.00  0.00    +0.000 C 
BRANCH  25  26
ATOM     26  C   UNL     1      -5.307   3.475 -23.699  0.00  0.00    -0.000 C 
BRANCH  26  27
ATOM     27  C   UNL     1      -5.118   4.506 -24.468  0.00  0.00    -0.000 C 
BRANCH  27  28
ATOM     28  C   UNL     1      -4.014   4.620 -25.145  0.00  0.00    -0.000 C 
BRANCH  28  30
ATOM     29  C   UNL     1      -2.331   3.376 -25.975  0.00  0.00    +0.004 C 
ATOM     30  C   UNL     1      -3.602   3.635 -25.887  0.00  0.00    -0.003 C 
ENDBRANCH  28  30
ENDBRANCH  27  28
ENDBRANCH  26  27
ENDBRANCH  25  26
ENDBRANCH  24  25
ENDBRANCH  23  24
ENDBRANCH  22  23
ENDBRANCH  21  22
ENDBRANCH  20  21
ENDBRANCH   1  20
TORSDOF 12
ENDMDL
MODEL 2
REMARK VINA RESULT:    -8.452      2.095      3.709
REMARK INTER + INTRA:         -15.633
REMARK INTER:                 -14.354
REMARK INTRA:                  -1.279
REMARK UNBOUND:                -1.251
REMARK  Name = CCCCCCCCCCCC1=C(O)C(=O)C=C(Nc2c(Cl)cccc2Cl)C1=O                      ZINC000100392807
REMARK  13 active torsions:
REMARK  status: ('A' for Active; 'I' for Inactive)
REMARK    1  A    between atoms: C_1  and  C_2
REMARK    2  A    between atoms: C_2  and  C_3
REMARK    3  A    between atoms: C_3  and  C_4
REMARK    4  A    between atoms: C_4  and  C_5
REMARK    5  A    between atoms: C_5  and  C_6
REMARK    6  A    between atoms: C_6  and  C_7
REMARK    7  A    between atoms: C_7  and  C_8
REMARK    8  A    between atoms: C_8  and  C_9
REMARK    9  A    between atoms: C_9  and  C_10
REMARK   10  A    between atoms: C_10  and  C_11
REMARK   11  A    between atoms: C_11  and  C_12
REMARK   12  A    between atoms: C_18  and  N_19
REMARK   13  A    between atoms: N_19  and  C_20
REMARK                            x       y       z     vdW  Elec       q    Type
REMARK                         _______ _______ _______ _____ _____    ______ ____
ROOT
ATOM      1  C   UNL     1       0.387   2.110 -22.921  0.00  0.00    -0.008 C 
ATOM      2  C   UNL     1       0.396   1.779 -21.664  0.00  0.00    +0.228 C 
ATOM      3  C   UNL     1       1.527   1.645 -21.036  0.00  0.00    +0.227 C 
ATOM      4  C   UNL     1       2.647   1.840 -21.664  0.00  0.00    +0.077 C 
ATOM      5  C   UNL     1       2.638   2.171 -22.921  0.00  0.00    +0.022 C 
ATOM      6  O   UNL     1       1.535   1.314 -19.778  0.00  0.00    -0.284 OA
ATOM      7  O   UNL     1      -0.725   1.583 -21.035  0.00  0.00    -0.284 OA
ATOM      8  C   UNL     1       1.508   2.306 -23.550  0.00  0.00    -0.112 C 
ATOM      9  O   UNL     1       1.499   2.636 -24.807  0.00  0.00    -0.828 OA
ENDROOT
BRANCH   5  10
ATOM     10  N   UNL     1       3.759   2.367 -23.550  0.00  0.00    -0.313 N 
ATOM     11  H   UNL     1       3.926   1.918 -24.409  0.00  0.00    +0.152 HD
BRANCH  10  12
ATOM     12  C   UNL     1       4.659   3.157 -23.043  0.00  0.00    +0.068 A 
ATOM     13  C   UNL     1       4.469   4.443 -23.041  0.00  0.00    +0.063 A 
ATOM     14  C   UNL     1       5.368   5.232 -22.534  0.00  0.00    +0.022 A 
ATOM     15  C   UNL     1       6.458   4.736 -22.030  0.00  0.00    +0.003 A 
ATOM     16  C   UNL     1       6.649   3.450 -22.032  0.00  0.00    +0.022 A 
ATOM     17 CL   UNL     1       3.378   4.939 -23.546  0.00  0.00    -0.082 Cl
ATOM     18  C   UNL     1       5.750   2.660 -22.538  0.00  0.00    +0.063 A 
ATOM     19 CL   UNL     1       5.940   1.374 -22.541  0.00  0.00    -0.082 Cl
ENDBRANCH  10  12
ENDBRANCH   5  10
BRANCH   1  20
ATOM     20  C   UNL     1      -0.742   2.244 -23.550  0.00  0.00    +0.038 C 
BRANCH  20  21
ATOM     21  C   UNL     1      -1.242   3.428 -23.742  0.00  0.00    +0.005 C 
BRANCH  21  22
ATOM     22  C   UNL     1      -1.773   3.733 -24.889  0.00  0.00    +0.000 C 
BRANCH  22  23
ATOM     23  C   UNL     1      -2.852   3.130 -25.289  0.00  0.00    +0.000 C 
BRANCH  23  24
ATOM     24  C   UNL     1      -3.970   3.787 -25.376  0.00  0.00    +0.000 C 
BRANCH  24  25
ATOM     25  C   UNL     1      -4.490   4.329 -24.315  0.00  0.00    +0.000 C 
BRANCH  25  26
ATOM     26  C   UNL     1      -5.370   3.676 -23.616  0.00  0.00    -0.000 C 
BRANCH  26  27
ATOM     27  C   UNL     1      -5.216   3.551 -22.331  0.00  0.00    -0.000 C 
BRANCH  27  28
ATOM     28  C   UNL     1      -4.274   2.788 -21.860  0.00  0.00    -0.000 C 
BRANCH  28  30
ATOM     29  C   UNL     1      -3.046   4.055 -20.462  0.00  0.00    +0.004 C 
ATOM     30  C   UNL     1      -3.790   3.010 -20.675  0.00  0.00    -0.003 C 
ENDBRANCH  28  30
ENDBRANCH  27  28
ENDBRANCH  26  27
ENDBRANCH  25  26
ENDBRANCH  24  25
ENDBRANCH  23  24
ENDBRANCH  22  23
ENDBRANCH  21  22
ENDBRANCH  20  21
ENDBRANCH   1  20
TORSDOF 12
ENDMDL
MODEL 3
REMARK VINA RESULT:    -8.370      2.439      3.404
REMARK INTER + INTRA:         -15.493
REMARK INTER:                 -14.251
REMARK INTRA:                  -1.242
REMARK UNBOUND:                -1.251
REMARK  Name = CCCCCCCCCCCC1=C(O)C(=O)C=C(Nc2c(Cl)cccc2Cl)C1=O                      ZINC000100392807
REMARK  13 active torsions:
REMARK  status: ('A' for Active; 'I' for Inactive)
REMARK    1  A    between atoms: C_1  and  C_2
REMARK    2  A    between atoms: C_2  and  C_3
REMARK    3  A    between atoms: C_3  and  C_4
REMARK    4  A    between atoms: C_4  and  C_5
REMARK    5  A    between atoms: C_5  and  C_6
REMARK    6  A    between atoms: C_6  and  C_7
REMARK    7  A    between atoms: C_7  and  C_8
REMARK    8  A    between atoms: C_8  and  C_9
REMARK    9  A    between atoms: C_9  and  C_10
REMARK   10  A    between atoms: C_10  and  C_11
REMARK   11  A    between atoms: C_11  and  C_12
REMARK   12  A    between atoms: C_18  and  N_19
REMARK   13  A    between atoms: N_19  and  C_20
REMARK                            x       y       z     vdW  Elec       q    Type
REMARK                         _______ _______ _______ _____ _____    ______ ____
ROOT
ATOM      1  C   UNL     1       0.451   2.451 -22.494  0.00  0.00    -0.008 C 
ATOM      2  C   UNL     1       0.911   1.693 -21.543  0.00  0.00    +0.228 C 
ATOM      3  C   UNL     1       2.193   1.606 -21.343  0.00  0.00    +0.227 C 
ATOM      4  C   UNL     1       3.015   2.276 -22.095  0.00  0.00    +0.077 C 
ATOM      5  C   UNL     1       2.556   3.033 -23.046  0.00  0.00    +0.022 C 
ATOM      6  O   UNL     1       2.652   0.848 -20.392  0.00  0.00    -0.284 OA
ATOM      7  O   UNL     1       0.089   1.023 -20.791  0.00  0.00    -0.284 OA
ATOM      8  C   UNL     1       1.274   3.121 -23.246  0.00  0.00    -0.112 C 
ATOM      9  O   UNL     1       0.814   3.878 -24.197  0.00  0.00    -0.828 OA
ENDROOT
BRANCH   5  10
ATOM     10  N   UNL     1       3.378   3.703 -23.798  0.00  0.00    -0.313 N 
ATOM     11  H   UNL     1       3.334   3.613 -24.777  0.00  0.00    +0.152 HD
BRANCH  10  12
ATOM     12  C   UNL     1       4.257   4.491 -23.256  0.00  0.00    +0.068 A 
ATOM     13  C   UNL     1       3.893   5.646 -22.784  0.00  0.00    +0.063 A 
ATOM     14  C   UNL     1       4.773   6.435 -22.242  0.00  0.00    +0.022 A 
ATOM     15  C   UNL     1       6.018   6.069 -22.173  0.00  0.00    +0.003 A 
ATOM     16  C   UNL     1       6.383   4.914 -22.645  0.00  0.00    +0.022 A 
ATOM     17 CL   UNL     1       2.647   6.012 -22.853  0.00  0.00    -0.082 Cl
ATOM     18  C   UNL     1       5.504   4.125 -23.187  0.00  0.00    +0.063 A 
ATOM     19 CL   UNL     1       5.869   2.971 -23.660  0.00  0.00    -0.082 Cl
ENDBRANCH  10  12
ENDBRANCH   5  10
BRANCH   1  20
ATOM     20  C   UNL     1      -0.830   2.538 -22.694  0.00  0.00    +0.038 C 
BRANCH  20  21
ATOM     21  C   UNL     1      -1.486   3.572 -22.259  0.00  0.00    +0.005 C 
BRANCH  21  22
ATOM     22  C   UNL     1      -2.406   3.425 -21.352  0.00  0.00    +0.000 C 
BRANCH  22  23
ATOM     23  C   UNL     1      -3.215   2.410 -21.403  0.00  0.00    +0.000 C 
BRANCH  23  24
ATOM     24  C   UNL     1      -4.496   2.602 -21.503  0.00  0.00    +0.000 C 
BRANCH  24  25
ATOM     25  C   UNL     1      -4.949   3.664 -22.102  0.00  0.00    +0.000 C 
BRANCH  25  26
ATOM     26  C   UNL     1      -5.381   3.586 -23.325  0.00  0.00    -0.000 C 
BRANCH  26  27
ATOM     27  C   UNL     1      -4.843   4.320 -24.253  0.00  0.00    -0.000 C 
BRANCH  27  28
ATOM     28  C   UNL     1      -4.620   3.818 -25.432  0.00  0.00    -0.000 C 
BRANCH  28  30
ATOM     29  C   UNL     1      -2.438   3.463 -25.855  0.00  0.00    +0.004 C 
ATOM     30  C   UNL     1      -3.628   2.998 -25.613  0.00  0.00    -0.003 C 
ENDBRANCH  28  30
ENDBRANCH  27  28
ENDBRANCH  26  27
ENDBRANCH  25  26
ENDBRANCH  24  25
ENDBRANCH  23  24
ENDBRANCH  22  23
ENDBRANCH  21  22
ENDBRANCH  20  21
ENDBRANCH   1  20
TORSDOF 12
ENDMDL
MODEL 4
REMARK VINA RESULT:    -7.671      3.271      8.104
REMARK INTER + INTRA:         -14.303
REMARK INTER:                 -13.219
REMARK INTRA:                  -1.085
REMARK UNBOUND:                -1.251
REMARK  Name = CCCCCCCCCCCC1=C(O)C(=O)C=C(Nc2c(Cl)cccc2Cl)C1=O                      ZINC000100392807
REMARK  13 active torsions:
REMARK  status: ('A' for Active; 'I' for Inactive)
REMARK    1  A    between atoms: C_1  and  C_2
REMARK    2  A    between atoms: C_2  and  C_3
REMARK    3  A    between atoms: C_3  and  C_4
REMARK    4  A    between atoms: C_4  and  C_5
REMARK    5  A    between atoms: C_5  and  C_6
REMARK    6  A    between atoms: C_6  and  C_7
REMARK    7  A    between atoms: C_7  and  C_8
REMARK    8  A    between atoms: C_8  and  C_9
REMARK    9  A    between atoms: C_9  and  C_10
REMARK   10  A    between atoms: C_10  and  C_11
REMARK   11  A    between atoms: C_11  and  C_12
REMARK   12  A    between atoms: C_18  and  N_19
REMARK   13  A    between atoms: N_19  and  C_20
REMARK                            x       y       z     vdW  Elec       q    Type
REMARK                         _______ _______ _______ _____ _____    ______ ____
ROOT
ATOM      1  C   UNL     1       1.350   3.363 -23.356  0.00  0.00    -0.008 C 
ATOM      2  C   UNL     1       1.273   2.112 -23.012  0.00  0.00    +0.228 C 
ATOM      3  C   UNL     1       0.211   1.669 -22.405  0.00  0.00    +0.227 C 
ATOM      4  C   UNL     1      -0.773   2.477 -22.143  0.00  0.00    +0.077 C 
ATOM      5  C   UNL     1      -0.696   3.728 -22.487  0.00  0.00    +0.022 C 
ATOM      6  O   UNL     1       0.134   0.417 -22.061  0.00  0.00    -0.284 OA
ATOM      7  O   UNL     1       2.256   1.304 -23.274  0.00  0.00    -0.284 OA
ATOM      8  C   UNL     1       0.366   4.171 -23.094  0.00  0.00    -0.112 C 
ATOM      9  O   UNL     1       0.443   5.423 -23.438  0.00  0.00    -0.828 OA
ENDROOT
BRANCH   5  10
ATOM     10  N   UNL     1      -1.679   4.536 -22.225  0.00  0.00    -0.313 N 
ATOM     11  H   UNL     1      -1.495   5.448 -21.904  0.00  0.00    +0.152 HD
BRANCH  10  12
ATOM     12  C   UNL     1      -2.906   4.140 -22.387  0.00  0.00    +0.068 A 
ATOM     13  C   UNL     1      -3.418   4.078 -23.580  0.00  0.00    +0.063 A 
ATOM     14  C   UNL     1      -4.645   3.682 -23.742  0.00  0.00    +0.022 A 
ATOM     15  C   UNL     1      -5.361   3.347 -22.711  0.00  0.00    +0.003 A 
ATOM     16  C   UNL     1      -4.851   3.409 -21.517  0.00  0.00    +0.022 A 
ATOM     17 CL   UNL     1      -2.701   4.413 -24.612  0.00  0.00    -0.082 Cl
ATOM     18  C   UNL     1      -3.623   3.805 -21.355  0.00  0.00    +0.063 A 
ATOM     19 CL   UNL     1      -3.113   3.867 -20.161  0.00  0.00    -0.082 Cl
ENDBRANCH  10  12
ENDBRANCH   5  10
BRANCH   1  20
ATOM     20  C   UNL     1       2.410   3.806 -23.962  0.00  0.00    +0.038 C 
BRANCH  20  21
ATOM     21  C   UNL     1       3.343   4.407 -23.285  0.00  0.00    +0.005 C 
BRANCH  21  22
ATOM     22  C   UNL     1       4.576   4.005 -23.376  0.00  0.00    +0.000 C 
BRANCH  22  23
ATOM     23  C   UNL     1       5.084   3.251 -22.448  0.00  0.00    +0.000 C 
BRANCH  23  24
ATOM     24  C   UNL     1       6.359   3.297 -22.199  0.00  0.00    +0.000 C 
BRANCH  24  25
ATOM     25  C   UNL     1       6.785   3.795 -21.075  0.00  0.00    +0.000 C 
BRANCH  25  26
ATOM     26  C   UNL     1       7.432   4.922 -21.067  0.00  0.00    -0.000 C 
BRANCH  26  27
ATOM     27  C   UNL     1       7.222   5.785 -20.119  0.00  0.00    -0.000 C 
BRANCH  27  28
ATOM     28  C   UNL     1       6.537   6.864 -20.361  0.00  0.00    -0.000 C 
BRANCH  28  30
ATOM     29  C   UNL     1       4.978   7.543 -21.836  0.00  0.00    +0.004 C 
ATOM     30  C   UNL     1       6.192   7.155 -21.580  0.00  0.00    -0.003 C 
ENDBRANCH  28  30
ENDBRANCH  27  28
ENDBRANCH  26  27
ENDBRANCH  25  26
ENDBRANCH  24  25
ENDBRANCH  23  24
ENDBRANCH  22  23
ENDBRANCH  21  22
ENDBRANCH  20  21
ENDBRANCH   1  20
TORSDOF 12
ENDMDL
MODEL 5
REMARK VINA RESULT:    -7.662      1.353      2.814
REMARK INTER + INTRA:         -14.289
REMARK INTER:                 -14.163
REMARK INTRA:                  -0.126
REMARK UNBOUND:                -1.251
REMARK  Name = CCCCCCCCCCCC1=C(O)C(=O)C=C(Nc2c(Cl)cccc2Cl)C1=O                      ZINC000100392807
REMARK  13 active torsions:
REMARK  status: ('A' for Active; 'I' for Inactive)
REMARK    1  A    between atoms: C_1  and  C_2
REMARK    2  A    between atoms: C_2  and  C_3
REMARK    3  A    between atoms: C_3  and  C_4
REMARK    4  A    between atoms: C_4  and  C_5
REMARK    5  A    between atoms: C_5  and  C_6
REMARK    6  A    between atoms: C_6  and  C_7
REMARK    7  A    between atoms: C_7  and  C_8
REMARK    8  A    between atoms: C_8  and  C_9
REMARK    9  A    between atoms: C_9  and  C_10
REMARK   10  A    between atoms: C_10  and  C_11
REMARK   11  A    between atoms: C_11  and  C_12
REMARK   12  A    between atoms: C_18  and  N_19
REMARK   13  A    between atoms: N_19  and  C_20
REMARK                            x       y       z     vdW  Elec       q    Type
REMARK                         _______ _______ _______ _____ _____    ______ ____
ROOT
ATOM      1  C   UNL     1       0.346   3.683 -23.751  0.00  0.00    -0.008 C 
ATOM      2  C   UNL     1       0.705   4.915 -23.546  0.00  0.00    +0.228 C 
ATOM      3  C   UNL     1       1.964   5.210 -23.404  0.00  0.00    +0.227 C 
ATOM      4  C   UNL     1       2.862   4.273 -23.467  0.00  0.00    +0.077 C 
ATOM      5  C   UNL     1       2.503   3.041 -23.672  0.00  0.00    +0.022 C 
ATOM      6  O   UNL     1       2.323   6.443 -23.198  0.00  0.00    -0.284 OA
ATOM      7  O   UNL     1      -0.193   5.852 -23.483  0.00  0.00    -0.284 OA
ATOM      8  C   UNL     1       1.245   2.746 -23.814  0.00  0.00    -0.112 C 
ATOM      9  O   UNL     1       0.885   1.513 -24.019  0.00  0.00    -0.828 OA
ENDROOT
BRANCH   5  10
ATOM     10  N   UNL     1       3.402   2.104 -23.735  0.00  0.00    -0.313 N 
ATOM     11  H   UNL     1       3.592   1.662 -24.594  0.00  0.00    +0.152 HD
BRANCH  10  12
ATOM     12  C   UNL     1       4.048   1.750 -22.664  0.00  0.00    +0.068 A 
ATOM     13  C   UNL     1       5.120   2.394 -22.309  0.00  0.00    +0.063 A 
ATOM     14  C   UNL     1       5.766   2.040 -21.238  0.00  0.00    +0.022 A 
ATOM     15  C   UNL     1       5.340   1.042 -20.522  0.00  0.00    +0.003 A 
ATOM     16  C   UNL     1       4.269   0.398 -20.877  0.00  0.00    +0.022 A 
ATOM     17 CL   UNL     1       5.545   3.393 -23.025  0.00  0.00    -0.082 Cl
ATOM     18  C   UNL     1       3.622   0.751 -21.948  0.00  0.00    +0.063 A 
ATOM     19 CL   UNL     1       2.551   0.107 -22.303  0.00  0.00    -0.082 Cl
ENDBRANCH  10  12
ENDBRANCH   5  10
BRANCH   1  20
ATOM     20  C   UNL     1      -0.912   3.387 -23.893  0.00  0.00    +0.038 C 
BRANCH  20  21
ATOM     21  C   UNL     1      -1.477   3.493 -25.058  0.00  0.00    +0.005 C 
BRANCH  21  22
ATOM     22  C   UNL     1      -2.596   2.877 -25.298  0.00  0.00    +0.000 C 
BRANCH  22  23
ATOM     23  C   UNL     1      -3.525   3.461 -25.993  0.00  0.00    +0.000 C 
BRANCH  23  24
ATOM     24  C   UNL     1      -4.645   3.798 -25.427  0.00  0.00    +0.000 C 
BRANCH  24  25
ATOM     25  C   UNL     1      -4.658   4.172 -24.182  0.00  0.00    +0.000 C 
BRANCH  25  26
ATOM     26  C   UNL     1      -5.595   3.749 -23.386  0.00  0.00    -0.000 C 
BRANCH  26  27
ATOM     27  C   UNL     1      -5.298   3.361 -22.181  0.00  0.00    -0.000 C 
BRANCH  27  28
ATOM     28  C   UNL     1      -4.153   2.791 -21.945  0.00  0.00    -0.000 C 
BRANCH  28  30
ATOM     29  C   UNL     1      -2.956   4.091 -20.550  0.00  0.00    +0.004 C 
ATOM     30  C   UNL     1      -3.563   2.968 -20.801  0.00  0.00    -0.003 C 
ENDBRANCH  28  30
ENDBRANCH  27  28
ENDBRANCH  26  27
ENDBRANCH  25  26
ENDBRANCH  24  25
ENDBRANCH  23  24
ENDBRANCH  22  23
ENDBRANCH  21  22
ENDBRANCH  20  21
ENDBRANCH   1  20
TORSDOF 12
ENDMDL
MODEL 6
REMARK VINA RESULT:    -7.643      2.774      7.689
REMARK INTER + INTRA:         -14.256
REMARK INTER:                 -13.437
REMARK INTRA:                  -0.818
REMARK UNBOUND:                -1.251
REMARK  Name = CCCCCCCCCCCC1=C(O)C(=O)C=C(Nc2c(Cl)cccc2Cl)C1=O                      ZINC000100392807
REMARK  13 active torsions:
REMARK  status: ('A' for Active; 'I' for Inactive)
REMARK    1  A    between atoms: C_1  and  C_2
REMARK    2  A    between atoms: C_2  and  C_3
REMARK    3  A    between atoms: C_3  and  C_4
REMARK    4  A    between atoms: C_4  and  C_5
REMARK    5  A    between atoms: C_5  and  C_6
REMARK    6  A    between atoms: C_6  and  C_7
REMARK    7  A    between atoms: C_7  and  C_8
REMARK    8  A    between atoms: C_8  and  C_9
REMARK    9  A    between atoms: C_9  and  C_10
REMARK   10  A    between atoms: C_10  and  C_11
REMARK   11  A    between atoms: C_11  and  C_12
REMARK   12  A    between atoms: C_18  and  N_19
REMARK   13  A    between atoms: N_19  and  C_20
REMARK                            x       y       z     vdW  Elec       q    Type
REMARK                         _______ _______ _______ _____ _____    ______ ____
ROOT
ATOM      1  C   UNL     1       1.239   2.400 -22.511  0.00  0.00    -0.008 C 
ATOM      2  C   UNL     1       1.669   3.548 -22.945  0.00  0.00    +0.228 C 
ATOM      3  C   UNL     1       0.965   4.224 -23.804  0.00  0.00    +0.227 C 
ATOM      4  C   UNL     1      -0.170   3.752 -24.229  0.00  0.00    +0.077 C 
ATOM      5  C   UNL     1      -0.600   2.604 -23.795  0.00  0.00    +0.022 C 
ATOM      6  O   UNL     1       1.395   5.372 -24.237  0.00  0.00    -0.284 OA
ATOM      7  O   UNL     1       2.803   4.020 -22.520  0.00  0.00    -0.284 OA
ATOM      8  C   UNL     1       0.105   1.928 -22.936  0.00  0.00    -0.112 C 
ATOM      9  O   UNL     1      -0.325   0.781 -22.503  0.00  0.00    -0.828 OA
ENDROOT
BRANCH   5  10
ATOM     10  N   UNL     1      -1.734   2.132 -24.220  0.00  0.00    -0.313 N 
ATOM     11  H   UNL     1      -1.790   1.205 -24.544  0.00  0.00    +0.152 HD
BRANCH  10  12
ATOM     12  C   UNL     1      -2.792   2.886 -24.219  0.00  0.00    +0.068 A 
ATOM     13  C   UNL     1      -3.177   3.471 -25.314  0.00  0.00    +0.063 A 
ATOM     14  C   UNL     1      -4.235   4.225 -25.312  0.00  0.00    +0.022 A 
ATOM     15  C   UNL     1      -4.911   4.393 -24.214  0.00  0.00    +0.003 A 
ATOM     16  C   UNL     1      -4.528   3.808 -23.118  0.00  0.00    +0.022 A 
ATOM     17 CL   UNL     1      -2.500   3.303 -26.412  0.00  0.00    -0.082 Cl
ATOM     18  C   UNL     1      -3.469   3.055 -23.120  0.00  0.00    +0.063 A 
ATOM     19 CL   UNL     1      -3.085   2.469 -22.025  0.00  0.00    -0.082 Cl
ENDBRANCH  10  12
ENDBRANCH   5  10
BRANCH   1  20
ATOM     20  C   UNL     1       1.943   1.725 -21.653  0.00  0.00    +0.038 C 
BRANCH  20  21
ATOM     21  C   UNL     1       2.711   0.758 -22.059  0.00  0.00    +0.005 C 
BRANCH  21  22
ATOM     22  C   UNL     1       3.772   0.440 -21.379  0.00  0.00    +0.000 C 
BRANCH  22  23
ATOM     23  C   UNL     1       4.919   0.977 -21.671  0.00  0.00    +0.000 C 
BRANCH  23  24
ATOM     24  C   UNL     1       5.404   1.922 -20.922  0.00  0.00    +0.000 C 
BRANCH  24  25
ATOM     25  C   UNL     1       5.948   2.970 -21.467  0.00  0.00    +0.000 C 
BRANCH  25  26
ATOM     26  C   UNL     1       6.275   2.952 -22.724  0.00  0.00    -0.000 C 
BRANCH  26  27
ATOM     27  C   UNL     1       6.370   4.067 -23.386  0.00  0.00    -0.000 C 
BRANCH  27  28
ATOM     28  C   UNL     1       7.522   4.659 -23.502  0.00  0.00    -0.000 C 
BRANCH  28  30
ATOM     29  C   UNL     1       7.459   6.382 -22.054  0.00  0.00    +0.004 C 
ATOM     30  C   UNL     1       7.625   5.932 -23.263  0.00  0.00    -0.003 C 
ENDBRANCH  28  30
ENDBRANCH  27  28
ENDBRANCH  26  27
ENDBRANCH  25  26
ENDBRANCH  24  25
ENDBRANCH  23  24
ENDBRANCH  22  23
ENDBRANCH  21  22
ENDBRANCH  20  21
ENDBRANCH   1  20
TORSDOF 12
ENDMDL
MODEL 7
REMARK VINA RESULT:    -7.598      2.567      7.732
REMARK INTER + INTRA:         -14.179
REMARK INTER:                 -13.065
REMARK INTRA:                  -1.114
REMARK UNBOUND:                -1.251
REMARK  Name = CCCCCCCCCCCC1=C(O)C(=O)C=C(Nc2c(Cl)cccc2Cl)C1=O                      ZINC000100392807
REMARK  13 active torsions:
REMARK  status: ('A' for Active; 'I' for Inactive)
REMARK    1  A    between atoms: C_1  and  C_2
REMARK    2  A    between atoms: C_2  and  C_3
REMARK    3  A    between atoms: C_3  and  C_4
REMARK    4  A    between atoms: C_4  and  C_5
REMARK    5  A    between atoms: C_5  and  C_6
REMARK    6  A    between atoms: C_6  and  C_7
REMARK    7  A    between atoms: C_7  and  C_8
REMARK    8  A    between atoms: C_8  and  C_9
REMARK    9  A    between atoms: C_9  and  C_10
REMARK   10  A    between atoms: C_10  and  C_11
REMARK   11  A    between atoms: C_11  and  C_12
REMARK   12  A    between atoms: C_18  and  N_19
REMARK   13  A    between atoms: N_19  and  C_20
REMARK                            x       y       z     vdW  Elec       q    Type
REMARK                         _______ _______ _______ _____ _____    ______ ____
ROOT
ATOM      1  C   UNL     1       1.071   3.337 -23.575  0.00  0.00    -0.008 C 
ATOM      2  C   UNL     1       1.051   2.084 -23.231  0.00  0.00    +0.228 C 
ATOM      3  C   UNL     1       0.064   1.621 -22.522  0.00  0.00    +0.227 C 
ATOM      4  C   UNL     1      -0.902   2.411 -22.158  0.00  0.00    +0.077 C 
ATOM      5  C   UNL     1      -0.881   3.664 -22.502  0.00  0.00    +0.022 C 
ATOM      6  O   UNL     1       0.043   0.367 -22.178  0.00  0.00    -0.284 OA
ATOM      7  O   UNL     1       2.016   1.293 -23.595  0.00  0.00    -0.284 OA
ATOM      8  C   UNL     1       0.106   4.127 -23.210  0.00  0.00    -0.112 C 
ATOM      9  O   UNL     1       0.127   5.381 -23.554  0.00  0.00    -0.828 OA
ENDROOT
BRANCH   5  10
ATOM     10  N   UNL     1      -1.847   4.454 -22.137  0.00  0.00    -0.313 N 
ATOM     11  H   UNL     1      -1.643   5.351 -21.786  0.00  0.00    +0.152 HD
BRANCH  10  12
ATOM     12  C   UNL     1      -3.081   4.060 -22.236  0.00  0.00    +0.068 A 
ATOM     13  C   UNL     1      -3.670   4.050 -23.395  0.00  0.00    +0.063 A 
ATOM     14  C   UNL     1      -4.905   3.656 -23.494  0.00  0.00    +0.022 A 
ATOM     15  C   UNL     1      -5.551   3.272 -22.434  0.00  0.00    +0.003 A 
ATOM     16  C   UNL     1      -4.963   3.282 -21.275  0.00  0.00    +0.022 A 
ATOM     17 CL   UNL     1      -3.023   4.435 -24.456  0.00  0.00    -0.082 Cl
ATOM     18  C   UNL     1      -3.728   3.676 -21.175  0.00  0.00    +0.063 A 
ATOM     19 CL   UNL     1      -3.140   3.686 -20.016  0.00  0.00    -0.082 Cl
ENDBRANCH  10  12
ENDBRANCH   5  10
BRANCH   1  20
ATOM     20  C   UNL     1       2.058   3.800 -24.283  0.00  0.00    +0.038 C 
BRANCH  20  21
ATOM     21  C   UNL     1       3.212   4.018 -23.727  0.00  0.00    +0.005 C 
BRANCH  21  22
ATOM     22  C   UNL     1       3.491   5.192 -23.244  0.00  0.00    +0.000 C 
BRANCH  22  23
ATOM     23  C   UNL     1       4.582   5.372 -22.562  0.00  0.00    +0.000 C 
BRANCH  23  24
ATOM     24  C   UNL     1       5.715   4.927 -23.018  0.00  0.00    +0.000 C 
BRANCH  24  25
ATOM     25  C   UNL     1       6.510   4.253 -22.240  0.00  0.00    +0.000 C 
BRANCH  25  26
ATOM     26  C   UNL     1       6.751   3.000 -22.485  0.00  0.00    -0.000 C 
BRANCH  26  27
ATOM     27  C   UNL     1       5.782   2.133 -22.449  0.00  0.00    -0.000 C 
BRANCH  27  28
ATOM     28  C   UNL     1       5.374   1.662 -21.308  0.00  0.00    -0.000 C 
BRANCH  28  30
ATOM     29  C   UNL     1       3.531   0.542 -20.664  0.00  0.00    +0.004 C 
ATOM     30  C   UNL     1       4.105   1.650 -21.026  0.00  0.00    -0.003 C 
ENDBRANCH  28  30
ENDBRANCH  27  28
ENDBRANCH  26  27
ENDBRANCH  25  26
ENDBRANCH  24  25
ENDBRANCH  23  24
ENDBRANCH  22  23
ENDBRANCH  21  22
ENDBRANCH  20  21
ENDBRANCH   1  20
TORSDOF 12
ENDMDL
MODEL 8
REMARK VINA RESULT:    -7.494      2.354      2.969
REMARK INTER + INTRA:         -14.001
REMARK INTER:                 -13.401
REMARK INTRA:                  -0.601
REMARK UNBOUND:                -1.251
REMARK  Name = CCCCCCCCCCCC1=C(O)C(=O)C=C(Nc2c(Cl)cccc2Cl)C1=O                      ZINC000100392807
REMARK  13 active torsions:
REMARK  status: ('A' for Active; 'I' for Inactive)
REMARK    1  A    between atoms: C_1  and  C_2
REMARK    2  A    between atoms: C_2  and  C_3
REMARK    3  A    between atoms: C_3  and  C_4
REMARK    4  A    between atoms: C_4  and  C_5
REMARK    5  A    between atoms: C_5  and  C_6
REMARK    6  A    between atoms: C_6  and  C_7
REMARK    7  A    between atoms: C_7  and  C_8
REMARK    8  A    between atoms: C_8  and  C_9
REMARK    9  A    between atoms: C_9  and  C_10
REMARK   10  A    between atoms: C_10  and  C_11
REMARK   11  A    between atoms: C_11  and  C_12
REMARK   12  A    between atoms: C_18  and  N_19
REMARK   13  A    between atoms: N_19  and  C_20
REMARK                            x       y       z     vdW  Elec       q    Type
REMARK                         _______ _______ _______ _____ _____    ______ ____
ROOT
ATOM      1  C   UNL     1       1.108   2.046 -22.701  0.00  0.00    -0.008 C 
ATOM      2  C   UNL     1       0.925   2.545 -23.887  0.00  0.00    +0.228 C 
ATOM      3  C   UNL     1       1.820   3.332 -24.406  0.00  0.00    +0.227 C 
ATOM      4  C   UNL     1       2.898   3.620 -23.739  0.00  0.00    +0.077 C 
ATOM      5  C   UNL     1       3.081   3.121 -22.552  0.00  0.00    +0.022 C 
ATOM      6  O   UNL     1       1.638   3.831 -25.593  0.00  0.00    -0.284 OA
ATOM      7  O   UNL     1      -0.153   2.257 -24.555  0.00  0.00    -0.284 OA
ATOM      8  C   UNL     1       2.185   2.334 -22.033  0.00  0.00    -0.112 C 
ATOM      9  O   UNL     1       2.368   1.835 -20.847  0.00  0.00    -0.828 OA
ENDROOT
BRANCH   5  10
ATOM     10  N   UNL     1       4.158   3.409 -21.885  0.00  0.00    -0.313 N 
ATOM     11  H   UNL     1       4.114   3.539 -20.911  0.00  0.00    +0.152 HD
BRANCH  10  12
ATOM     12  C   UNL     1       5.295   3.525 -22.505  0.00  0.00    +0.068 A 
ATOM     13  C   UNL     1       6.009   2.469 -22.758  0.00  0.00    +0.063 A 
ATOM     14  C   UNL     1       7.146   2.586 -23.378  0.00  0.00    +0.022 A 
ATOM     15  C   UNL     1       7.568   3.759 -23.745  0.00  0.00    +0.003 A 
ATOM     16  C   UNL     1       6.854   4.815 -23.493  0.00  0.00    +0.022 A 
ATOM     17 CL   UNL     1       5.586   1.296 -22.390  0.00  0.00    -0.082 Cl
ATOM     18  C   UNL     1       5.718   4.699 -22.873  0.00  0.00    +0.063 A 
ATOM     19 CL   UNL     1       5.004   5.756 -22.621  0.00  0.00    -0.082 Cl
ENDBRANCH  10  12
ENDBRANCH   5  10
BRANCH   1  20
ATOM     20  C   UNL     1       0.213   1.259 -22.182  0.00  0.00    +0.038 C 
BRANCH  20  21
ATOM     21  C   UNL     1      -0.647   1.727 -21.327  0.00  0.00    +0.005 C 
BRANCH  21  22
ATOM     22  C   UNL     1      -1.786   2.198 -21.740  0.00  0.00    +0.000 C 
BRANCH  22  23
ATOM     23  C   UNL     1      -2.448   3.040 -21.004  0.00  0.00    +0.000 C 
BRANCH  23  24
ATOM     24  C   UNL     1      -3.738   2.928 -20.890  0.00  0.00    +0.000 C 
BRANCH  24  25
ATOM     25  C   UNL     1      -4.521   3.710 -21.573  0.00  0.00    +0.000 C 
BRANCH  25  26
ATOM     26  C   UNL     1      -5.118   3.262 -22.638  0.00  0.00    -0.000 C 
BRANCH  26  27
ATOM     27  C   UNL     1      -5.001   3.899 -23.765  0.00  0.00    -0.000 C 
BRANCH  27  28
ATOM     28  C   UNL     1      -3.843   3.977 -24.351  0.00  0.00    -0.000 C 
BRANCH  28  30
ATOM     29  C   UNL     1      -3.969   3.150 -26.441  0.00  0.00    +0.004 C 
ATOM     30  C   UNL     1      -3.498   3.084 -25.230  0.00  0.00    -0.003 C 
ENDBRANCH  28  30
ENDBRANCH  27  28
ENDBRANCH  26  27
ENDBRANCH  25  26
ENDBRANCH  24  25
ENDBRANCH  23  24
ENDBRANCH  22  23
ENDBRANCH  21  22
ENDBRANCH  20  21
ENDBRANCH   1  20
TORSDOF 12
ENDMDL
MODEL 9
REMARK VINA RESULT:    -7.226      3.645      8.268
REMARK INTER + INTRA:         -13.546
REMARK INTER:                 -12.295
REMARK INTRA:                  -1.251
REMARK UNBOUND:                -1.251
REMARK  Name = CCCCCCCCCCCC1=C(O)C(=O)C=C(Nc2c(Cl)cccc2Cl)C1=O                      ZINC000100392807
REMARK  13 active torsions:
REMARK  status: ('A' for Active; 'I' for Inactive)
REMARK    1  A    between atoms: C_1  and  C_2
REMARK    2  A    between atoms: C_2  and  C_3
REMARK    3  A    between atoms: C_3  and  C_4
REMARK    4  A    between atoms: C_4  and  C_5
REMARK    5  A    between atoms: C_5  and  C_6
REMARK    6  A    between atoms: C_6  and  C_7
REMARK    7  A    between atoms: C_7  and  C_8
REMARK    8  A    between atoms: C_8  and  C_9
REMARK    9  A    between atoms: C_9  and  C_10
REMARK   10  A    between atoms: C_10  and  C_11
REMARK   11  A    between atoms: C_11  and  C_12
REMARK   12  A    between atoms: C_18  and  N_19
REMARK   13  A    between atoms: N_19  and  C_20
REMARK                            x       y       z     vdW  Elec       q    Type
REMARK                         _______ _______ _______ _____ _____    ______ ____
ROOT
ATOM      1  C   UNL     1       2.982   3.389 -23.296  0.00  0.00    -0.008 C 
ATOM      2  C   UNL     1       2.848   2.163 -22.883  0.00  0.00    +0.228 C 
ATOM      3  C   UNL     1       1.676   1.721 -22.532  0.00  0.00    +0.227 C 
ATOM      4  C   UNL     1       0.640   2.503 -22.595  0.00  0.00    +0.077 C 
ATOM      5  C   UNL     1       0.774   3.728 -23.008  0.00  0.00    +0.022 C 
ATOM      6  O   UNL     1       1.542   0.495 -22.119  0.00  0.00    -0.284 OA
ATOM      7  O   UNL     1       3.884   1.381 -22.820  0.00  0.00    -0.284 OA
ATOM      8  C   UNL     1       1.946   4.171 -23.359  0.00  0.00    -0.112 C 
ATOM      9  O   UNL     1       2.080   5.396 -23.772  0.00  0.00    -0.828 OA
ENDROOT
BRANCH   5  10
ATOM     10  N   UNL     1      -0.262   4.510 -23.071  0.00  0.00    -0.313 N 
ATOM     11  H   UNL     1      -0.193   5.443 -22.764  0.00  0.00    +0.152 HD
BRANCH  10  12
ATOM     12  C   UNL     1      -1.388   4.060 -23.538  0.00  0.00    +0.068 A 
ATOM     13  C   UNL     1      -2.403   3.896 -22.743  0.00  0.00    +0.063 A 
ATOM     14  C   UNL     1      -3.530   3.446 -23.210  0.00  0.00    +0.022 A 
ATOM     15  C   UNL     1      -3.641   3.160 -24.473  0.00  0.00    +0.003 A 
ATOM     16  C   UNL     1      -2.626   3.324 -25.269  0.00  0.00    +0.022 A 
ATOM     17 CL   UNL     1      -2.291   4.182 -21.479  0.00  0.00    -0.082 Cl
ATOM     18  C   UNL     1      -1.500   3.774 -24.802  0.00  0.00    +0.063 A 
ATOM     19 CL   UNL     1      -0.485   3.938 -25.597  0.00  0.00    -0.082 Cl
ENDBRANCH  10  12
ENDBRANCH   5  10
BRANCH   1  20
ATOM     20  C   UNL     1       4.152   3.832 -23.647  0.00  0.00    +0.038 C 
BRANCH  20  21
ATOM     21  C   UNL     1       4.942   4.357 -22.759  0.00  0.00    +0.005 C 
BRANCH  21  22
ATOM     22  C   UNL     1       6.193   4.567 -23.041  0.00  0.00    +0.000 C 
BRANCH  22  23
ATOM     23  C   UNL     1       7.119   4.198 -22.208  0.00  0.00    +0.000 C 
BRANCH  23  24
ATOM     24  C   UNL     1       6.938   4.340 -20.929  0.00  0.00    +0.000 C 
BRANCH  24  25
ATOM     25  C   UNL     1       7.600   5.249 -20.275  0.00  0.00    +0.000 C 
BRANCH  25  26
ATOM     26  C   UNL     1       7.025   6.371 -19.960  0.00  0.00    -0.000 C 
BRANCH  26  27
ATOM     27  C   UNL     1       7.258   7.440 -20.662  0.00  0.00    -0.000 C 
BRANCH  27  28
ATOM     28  C   UNL     1       6.310   8.308 -20.859  0.00  0.00    -0.000 C 
BRANCH  28  30
ATOM     29  C   UNL     1       4.345   7.867 -21.865  0.00  0.00    +0.004 C 
ATOM     30  C   UNL     1       5.065   7.940 -20.785  0.00  0.00    -0.003 C 
ENDBRANCH  28  30
ENDBRANCH  27  28
ENDBRANCH  26  27
ENDBRANCH  25  26
ENDBRANCH  24  25
ENDBRANCH  23  24
ENDBRANCH  22  23
ENDBRANCH  21  22
ENDBRANCH  20  21
ENDBRANCH   1  20
TORSDOF 12
ENDMDL
