MODEL 1
REMARK VINA RESULT:   -13.220      0.000      0.000
REMARK INTER + INTRA:         -13.220
REMARK INTER:                 -13.220
REMARK INTRA:                   0.000
REMARK UNBOUND:                 0.000
REMARK  Name = C[C@]12CC[C@@H]3[C@@H](CC=C4CC5(CC[C@@]43C)OCCO5)[C@H]1CCC2=O        ZINC000253505318
REMARK  2 active torsions:
REMARK  status: ('A' for Active; 'I' for Inactive)
REMARK    1  A    between atoms: C_1  and  C_2
REMARK    2  A    between atoms: C_14  and  C_15
REMARK                            x       y       z     vdW  Elec       q    Type
REMARK                         _______ _______ _______ _____ _____    ______ ____
ROOT
ATOM      1  C   UNL     1      -4.875   2.893 -21.650  0.00  0.00    +0.019 C 
ATOM      2  C   UNL     1      -3.991   3.129 -22.573  0.00  0.00    +0.029 C 
ATOM      3  C   UNL     1      -3.511   2.537 -21.520  0.00  0.00    +0.015 C 
ATOM      4  C   UNL     1      -2.247   2.238 -21.463  0.00  0.00    +0.005 C 
ATOM      5  C   UNL     1      -1.464   2.530 -22.459  0.00  0.00    +0.003 C 
ATOM      6  C   UNL     1      -1.944   3.121 -23.512  0.00  0.00    +0.001 C 
ATOM      7  C   UNL     1      -1.160   3.413 -24.507  0.00  0.00    +0.031 C 
ATOM      8  C   UNL     1       0.103   3.113 -24.450  0.00  0.00    -0.027 C 
ATOM      9  C   UNL     1       0.583   2.521 -23.396  0.00  0.00    -0.062 C 
ATOM     10  C   UNL     1       1.847   2.221 -23.338  0.00  0.00    +0.096 C 
ATOM     11  C   UNL     1       2.327   1.630 -22.285  0.00  0.00    +0.174 C 
ATOM     12  O   UNL     1       2.929   1.041 -21.295  0.00  0.00    -0.346 OA
ATOM     13  C   UNL     1       4.185   0.913 -21.606  0.00  0.00    +0.191 C 
ATOM     14  C   UNL     1       4.359   1.424 -22.788  0.00  0.00    +0.191 C 
ATOM     15  C   UNL     1       1.544   1.338 -21.290  0.00  0.00    +0.066 C 
ATOM     16  C   UNL     1       0.280   1.638 -21.348  0.00  0.00    +0.016 C 
ATOM     17  O   UNL     1       3.212   1.867 -23.209  0.00  0.00    -0.346 OA
ATOM     18  C   UNL     1      -0.200   2.230 -22.401  0.00  0.00    -0.008 C 
ATOM     19  C   UNL     1      -0.984   1.938 -21.405  0.00  0.00    +0.016 C 
ATOM     20  C   UNL     1      -5.191   3.528 -22.875  0.00  0.00    +0.139 C 
ATOM     21  O   UNL     1      -6.247   3.410 -22.128  0.00  0.00    -0.297 OA
ATOM     22  C   UNL     1      -5.149   4.067 -24.058  0.00  0.00    +0.075 C 
ATOM     23  C   UNL     1      -3.924   4.001 -24.487  0.00  0.00    +0.012 C 
ATOM     24  C   UNL     1      -3.208   3.421 -23.570  0.00  0.00    +0.006 C 
ENDROOT
TORSDOF 0
ENDMDL
MODEL 2
REMARK VINA RESULT:   -12.992      0.931      2.407
REMARK INTER + INTRA:         -12.992
REMARK INTER:                 -12.992
REMARK INTRA:                   0.000
REMARK UNBOUND:                 0.000
REMARK  Name = C[C@]12CC[C@@H]3[C@@H](CC=C4CC5(CC[C@@]43C)OCCO5)[C@H]1CCC2=O        ZINC000253505318
REMARK  2 active torsions:
REMARK  status: ('A' for Active; 'I' for Inactive)
REMARK    1  A    between atoms: C_1  and  C_2
REMARK    2  A    between atoms: C_14  and  C_15
REMARK                            x       y       z     vdW  Elec       q    Type
REMARK                         _______ _______ _______ _____ _____    ______ ____
ROOT
ATOM      1  C   UNL     1      -3.687   4.496 -25.145  0.00  0.00    +0.019 C 
ATOM      2  C   UNL     1      -3.412   3.827 -24.066  0.00  0.00    +0.029 C 
ATOM      3  C   UNL     1      -2.390   4.013 -24.847  0.00  0.00    +0.015 C 
ATOM      4  C   UNL     1      -1.225   3.543 -24.515  0.00  0.00    +0.005 C 
ATOM      5  C   UNL     1      -1.080   2.887 -23.402  0.00  0.00    +0.003 C 
ATOM      6  C   UNL     1      -2.102   2.700 -22.621  0.00  0.00    +0.001 C 
ATOM      7  C   UNL     1      -1.958   2.044 -21.508  0.00  0.00    +0.031 C 
ATOM      8  C   UNL     1      -0.792   1.575 -21.177  0.00  0.00    -0.027 C 
ATOM      9  C   UNL     1       0.230   1.761 -21.959  0.00  0.00    -0.062 C 
ATOM     10  C   UNL     1       1.396   1.292 -21.627  0.00  0.00    +0.096 C 
ATOM     11  C   UNL     1       2.418   1.478 -22.409  0.00  0.00    +0.174 C 
ATOM     12  O   UNL     1       3.513   1.595 -23.098  0.00  0.00    -0.346 OA
ATOM     13  C   UNL     1       4.466   0.998 -22.445  0.00  0.00    +0.191 C 
ATOM     14  C   UNL     1       3.958   0.512 -21.352  0.00  0.00    +0.191 C 
ATOM     15  C   UNL     1       2.274   2.134 -23.521  0.00  0.00    +0.066 C 
ATOM     16  C   UNL     1       1.108   2.604 -23.853  0.00  0.00    +0.016 C 
ATOM     17  O   UNL     1       2.693   0.808 -21.328  0.00  0.00    -0.346 OA
ATOM     18  C   UNL     1       0.086   2.417 -23.071  0.00  0.00    -0.008 C 
ATOM     19  C   UNL     1      -0.059   3.074 -24.184  0.00  0.00    +0.016 C 
ATOM     20  C   UNL     1      -4.658   4.185 -24.163  0.00  0.00    +0.139 C 
ATOM     21  O   UNL     1      -5.186   4.859 -25.140  0.00  0.00    -0.297 OA
ATOM     22  C   UNL     1      -5.284   3.750 -23.109  0.00  0.00    +0.075 C 
ATOM     23  C   UNL     1      -4.426   3.123 -22.362  0.00  0.00    +0.012 C 
ATOM     24  C   UNL     1      -3.269   3.170 -22.952  0.00  0.00    +0.006 C 
ENDROOT
TORSDOF 0
ENDMDL
MODEL 3
REMARK VINA RESULT:   -12.243      0.925      6.399
REMARK INTER + INTRA:         -12.243
REMARK INTER:                 -12.243
REMARK INTRA:                   0.000
REMARK UNBOUND:                 0.000
REMARK  Name = C[C@]12CC[C@@H]3[C@@H](CC=C4CC5(CC[C@@]43C)OCCO5)[C@H]1CCC2=O        ZINC000253505318
REMARK  2 active torsions:
REMARK  status: ('A' for Active; 'I' for Inactive)
REMARK    1  A    between atoms: C_1  and  C_2
REMARK    2  A    between atoms: C_14  and  C_15
REMARK                            x       y       z     vdW  Elec       q    Type
REMARK                         _______ _______ _______ _____ _____    ______ ____
ROOT
ATOM      1  C   UNL     1       3.288   1.231 -21.311  0.00  0.00    +0.019 C 
ATOM      2  C   UNL     1       2.659   1.789 -22.301  0.00  0.00    +0.029 C 
ATOM      3  C   UNL     1       1.893   1.471 -21.300  0.00  0.00    +0.015 C 
ATOM      4  C   UNL     1       0.618   1.719 -21.353  0.00  0.00    +0.005 C 
ATOM      5  C   UNL     1       0.108   2.285 -22.406  0.00  0.00    +0.003 C 
ATOM      6  C   UNL     1       0.874   2.603 -23.407  0.00  0.00    +0.001 C 
ATOM      7  C   UNL     1       0.364   3.170 -24.461  0.00  0.00    +0.031 C 
ATOM      8  C   UNL     1      -0.911   3.418 -24.513  0.00  0.00    -0.027 C 
ATOM      9  C   UNL     1      -1.676   3.099 -23.511  0.00  0.00    -0.062 C 
ATOM     10  C   UNL     1      -2.952   3.346 -23.563  0.00  0.00    +0.096 C 
ATOM     11  C   UNL     1      -3.717   3.028 -22.562  0.00  0.00    +0.174 C 
ATOM     12  O   UNL     1      -4.587   2.761 -21.634  0.00  0.00    -0.346 OA
ATOM     13  C   UNL     1      -5.754   3.154 -22.050  0.00  0.00    +0.191 C 
ATOM     14  C   UNL     1      -5.605   3.665 -23.236  0.00  0.00    +0.191 C 
ATOM     15  C   UNL     1      -3.208   2.462 -21.509  0.00  0.00    +0.066 C 
ATOM     16  C   UNL     1      -1.932   2.214 -21.457  0.00  0.00    +0.016 C 
ATOM     17  O   UNL     1      -4.347   3.587 -23.554  0.00  0.00    -0.346 OA
ATOM     18  C   UNL     1      -1.167   2.533 -22.458  0.00  0.00    -0.008 C 
ATOM     19  C   UNL     1      -0.657   1.966 -21.405  0.00  0.00    +0.016 C 
ATOM     20  C   UNL     1       3.937   1.653 -22.497  0.00  0.00    +0.139 C 
ATOM     21  O   UNL     1       4.785   1.128 -21.665  0.00  0.00    -0.297 OA
ATOM     22  C   UNL     1       4.217   2.135 -23.672  0.00  0.00    +0.075 C 
ATOM     23  C   UNL     1       3.112   2.570 -24.202  0.00  0.00    +0.012 C 
ATOM     24  C   UNL     1       2.149   2.356 -23.355  0.00  0.00    +0.006 C 
ENDROOT
TORSDOF 0
ENDMDL
MODEL 4
REMARK VINA RESULT:   -11.824      1.380      6.868
REMARK INTER + INTRA:         -11.824
REMARK INTER:                 -11.824
REMARK INTRA:                   0.000
REMARK UNBOUND:                 0.000
REMARK  Name = C[C@]12CC[C@@H]3[C@@H](CC=C4CC5(CC[C@@]43C)OCCO5)[C@H]1CCC2=O        ZINC000253505318
REMARK  2 active torsions:
REMARK  status: ('A' for Active; 'I' for Inactive)
REMARK    1  A    between atoms: C_1  and  C_2
REMARK    2  A    between atoms: C_14  and  C_15
REMARK                            x       y       z     vdW  Elec       q    Type
REMARK                         _______ _______ _______ _____ _____    ______ ____
ROOT
ATOM      1  C   UNL     1       4.193   2.932 -23.413  0.00  0.00    +0.019 C 
ATOM      2  C   UNL     1       3.200   2.449 -22.728  0.00  0.00    +0.029 C 
ATOM      3  C   UNL     1       2.841   3.244 -23.691  0.00  0.00    +0.015 C 
ATOM      4  C   UNL     1       1.581   3.490 -23.894  0.00  0.00    +0.005 C 
ATOM      5  C   UNL     1       0.680   2.941 -23.134  0.00  0.00    +0.003 C 
ATOM      6  C   UNL     1       1.039   2.145 -22.171  0.00  0.00    +0.001 C 
ATOM      7  C   UNL     1       0.138   1.596 -21.412  0.00  0.00    +0.031 C 
ATOM      8  C   UNL     1      -1.122   1.843 -21.615  0.00  0.00    -0.027 C 
ATOM      9  C   UNL     1      -1.481   2.638 -22.579  0.00  0.00    -0.062 C 
ATOM     10  C   UNL     1      -2.741   2.885 -22.782  0.00  0.00    +0.096 C 
ATOM     11  C   UNL     1      -3.101   3.681 -23.745  0.00  0.00    +0.174 C 
ATOM     12  O   UNL     1      -3.589   4.454 -24.669  0.00  0.00    -0.346 OA
ATOM     13  C   UNL     1      -4.884   4.448 -24.555  0.00  0.00    +0.191 C 
ATOM     14  C   UNL     1      -5.195   3.672 -23.561  0.00  0.00    +0.191 C 
ATOM     15  C   UNL     1      -2.200   4.230 -24.505  0.00  0.00    +0.066 C 
ATOM     16  C   UNL     1      -0.939   3.984 -24.301  0.00  0.00    +0.016 C 
ATOM     17  O   UNL     1      -4.094   3.197 -23.060  0.00  0.00    -0.346 OA
ATOM     18  C   UNL     1      -0.580   3.188 -23.338  0.00  0.00    -0.008 C 
ATOM     19  C   UNL     1       0.321   3.737 -24.097  0.00  0.00    +0.016 C 
ATOM     20  C   UNL     1       4.368   2.046 -22.322  0.00  0.00    +0.139 C 
ATOM     21  O   UNL     1       5.513   2.382 -22.835  0.00  0.00    -0.297 OA
ATOM     22  C   UNL     1       4.189   1.248 -21.311  0.00  0.00    +0.075 C 
ATOM     23  C   UNL     1       2.911   1.157 -21.092  0.00  0.00    +0.012 C 
ATOM     24  C   UNL     1       2.300   1.899 -21.968  0.00  0.00    +0.006 C 
ENDROOT
TORSDOF 0
ENDMDL
MODEL 5
REMARK VINA RESULT:   -11.046      1.539      3.028
REMARK INTER + INTRA:         -11.046
REMARK INTER:                 -11.046
REMARK INTRA:                   0.000
REMARK UNBOUND:                 0.000
REMARK  Name = C[C@]12CC[C@@H]3[C@@H](CC=C4CC5(CC[C@@]43C)OCCO5)[C@H]1CCC2=O        ZINC000253505318
REMARK  2 active torsions:
REMARK  status: ('A' for Active; 'I' for Inactive)
REMARK    1  A    between atoms: C_1  and  C_2
REMARK    2  A    between atoms: C_14  and  C_15
REMARK                            x       y       z     vdW  Elec       q    Type
REMARK                         _______ _______ _______ _____ _____    ______ ____
ROOT
ATOM      1  C   UNL     1      -2.782   4.488 -24.103  0.00  0.00    +0.019 C 
ATOM      2  C   UNL     1      -2.160   3.665 -23.313  0.00  0.00    +0.029 C 
ATOM      3  C   UNL     1      -1.371   4.391 -24.048  0.00  0.00    +0.015 C 
ATOM      4  C   UNL     1      -0.082   4.254 -23.948  0.00  0.00    +0.005 C 
ATOM      5  C   UNL     1       0.418   3.391 -23.115  0.00  0.00    +0.003 C 
ATOM      6  C   UNL     1      -0.371   2.665 -22.380  0.00  0.00    +0.001 C 
ATOM      7  C   UNL     1       0.129   1.802 -21.546  0.00  0.00    +0.031 C 
ATOM      8  C   UNL     1       1.418   1.665 -21.447  0.00  0.00    -0.027 C 
ATOM      9  C   UNL     1       2.207   2.391 -22.183  0.00  0.00    -0.062 C 
ATOM     10  C   UNL     1       3.496   2.254 -22.084  0.00  0.00    +0.096 C 
ATOM     11  C   UNL     1       4.285   2.980 -22.818  0.00  0.00    +0.174 C 
ATOM     12  O   UNL     1       5.178   3.641 -23.492  0.00  0.00    -0.346 OA
ATOM     13  C   UNL     1       6.352   3.228 -23.119  0.00  0.00    +0.191 C 
ATOM     14  C   UNL     1       6.185   2.311 -22.214  0.00  0.00    +0.191 C 
ATOM     15  C   UNL     1       3.786   3.843 -23.652  0.00  0.00    +0.066 C 
ATOM     16  C   UNL     1       2.496   3.980 -23.751  0.00  0.00    +0.016 C 
ATOM     17  O   UNL     1       4.907   2.157 -22.027  0.00  0.00    -0.346 OA
ATOM     18  C   UNL     1       1.707   3.254 -23.016  0.00  0.00    -0.008 C 
ATOM     19  C   UNL     1       1.207   4.117 -23.850  0.00  0.00    +0.016 C 
ATOM     20  C   UNL     1      -3.456   3.609 -23.221  0.00  0.00    +0.139 C 
ATOM     21  O   UNL     1      -4.302   4.324 -23.900  0.00  0.00    -0.297 OA
ATOM     22  C   UNL     1      -3.756   2.710 -22.331  0.00  0.00    +0.075 C 
ATOM     23  C   UNL     1      -2.647   2.211 -21.872  0.00  0.00    +0.012 C 
ATOM     24  C   UNL     1      -1.660   2.802 -22.479  0.00  0.00    +0.006 C 
ENDROOT
TORSDOF 0
ENDMDL
