MODEL 1
REMARK VINA RESULT:    -8.907      0.000      0.000
REMARK INTER + INTRA:          -6.874
REMARK INTER:                 -11.676
REMARK INTRA:                   4.802
REMARK UNBOUND:                 4.635
REMARK  Name = CCCC[C@@]12Oc3c(OC)ccc4c3[C@@]13CCN(C)[C@@H](C4)C3=CC=C2OC           ZINC000253505415
REMARK  9 active torsions:
REMARK  status: ('A' for Active; 'I' for Inactive)
REMARK    1  A    between atoms: C_1  and  C_2
REMARK    2  A    between atoms: C_2  and  C_3
REMARK    3  A    between atoms: C_3  and  C_4
REMARK    4  A    between atoms: C_4  and  C_5
REMARK    5  A    between atoms: C_8  and  O_9
REMARK    6  A    between atoms: O_9  and  C_10
REMARK    7  A    between atoms: N_18  and  C_19
REMARK    8  A    between atoms: C_25  and  O_26
REMARK    9  A    between atoms: O_26  and  C_27
REMARK                            x       y       z     vdW  Elec       q    Type
REMARK                         _______ _______ _______ _____ _____    ______ ____
ROOT
ATOM      1  C   UNL     1      -1.536   3.213 -23.827  0.00  0.00    +0.181 C 
ATOM      2  O   UNL     1      -1.861   3.082 -22.354  0.00  0.00    -0.473 OA
ATOM      3  C   UNL     1      -3.336   3.157 -22.055  0.00  0.00    +0.168 A 
ATOM      4  C   UNL     1      -4.240   3.129 -21.162  0.00  0.00    +0.162 A 
ATOM      5  C   UNL     1      -5.458   3.251 -21.499  0.00  0.00    +0.050 A 
ATOM      6  C   UNL     1      -5.773   3.399 -22.706  0.00  0.00    +0.008 A 
ATOM      7  C   UNL     1      -4.875   3.427 -23.589  0.00  0.00    -0.034 A 
ATOM      8  C   UNL     1      -5.192   3.578 -24.817  0.00  0.00    +0.094 C 
ATOM      9  C   UNL     1      -4.296   3.605 -25.697  0.00  0.00    +0.096 C 
ATOM     10  C   UNL     1      -3.078   3.483 -25.361  0.00  0.00    -0.007 C 
ATOM     11  C   UNL     1      -2.175   3.511 -26.252  0.00  0.00    +0.009 C 
ATOM     12  C   UNL     1      -0.966   3.391 -25.928  0.00  0.00    +0.045 C 
ATOM     13  N   UNL     1      -3.357   3.650 -26.775  0.00  0.00    +0.239 N 
ATOM     14  H   UNL     1      -3.644   3.772 -27.747  0.00  0.00    +0.204 HD
ATOM     15  C   UNL     1      -3.730   3.800 -27.964  0.00  0.00    +0.191 C 
ATOM     16  C   UNL     1      -1.990   3.517 -26.436  0.00  0.00    +0.133 C 
ATOM     17  C   UNL     1      -1.665   3.351 -25.068  0.00  0.00    +0.071 C 
ATOM     18  C   UNL     1      -3.657   3.307 -23.272  0.00  0.00    +0.016 A 
ATOM     19  C   UNL     1      -0.643   3.241 -24.710  0.00  0.00    +0.142 C 
ATOM     20  C   UNL     1      -2.766   3.335 -24.155  0.00  0.00    +0.077 C 
ENDROOT
BRANCH   4  21
ATOM     21  O   UNL     1      -3.930   2.981 -19.954  0.00  0.00    -0.491 OA
ATOM     22  C   UNL     1      -3.077   3.735 -19.426  0.00  0.00    +0.277 C 
ENDBRANCH   4  21
BRANCH  19  23
ATOM     23  O   UNL     1       0.566   3.121 -24.390  0.00  0.00    -0.495 OA
ATOM     24  C   UNL     1       1.439   2.972 -25.279  0.00  0.00    +0.276 C 
ENDBRANCH  19  23
BRANCH   1  25
ATOM     25  C   UNL     1      -0.408   3.070 -23.233  0.00  0.00    +0.057 C 
BRANCH  25  26
ATOM     26  C   UNL     1      -0.313   2.598 -22.052  0.00  0.00    +0.004 C 
BRANCH  26  28
ATOM     27  C   UNL     1       1.492   1.482 -21.550  0.00  0.00    +0.004 C 
ATOM     28  C   UNL     1       0.259   1.503 -21.828  0.00  0.00    -0.003 C 
ENDBRANCH  26  28
ENDBRANCH  25  26
ENDBRANCH   1  25
TORSDOF 5
ENDMDL
MODEL 2
REMARK VINA RESULT:    -8.483      1.871      4.375
REMARK INTER + INTRA:          -6.328
REMARK INTER:                 -10.994
REMARK INTRA:                   4.667
REMARK UNBOUND:                 4.635
REMARK  Name = CCCC[C@@]12Oc3c(OC)ccc4c3[C@@]13CCN(C)[C@@H](C4)C3=CC=C2OC           ZINC000253505415
REMARK  9 active torsions:
REMARK  status: ('A' for Active; 'I' for Inactive)
REMARK    1  A    between atoms: C_1  and  C_2
REMARK    2  A    between atoms: C_2  and  C_3
REMARK    3  A    between atoms: C_3  and  C_4
REMARK    4  A    between atoms: C_4  and  C_5
REMARK    5  A    between atoms: C_8  and  O_9
REMARK    6  A    between atoms: O_9  and  C_10
REMARK    7  A    between atoms: N_18  and  C_19
REMARK    8  A    between atoms: C_25  and  O_26
REMARK    9  A    between atoms: O_26  and  C_27
REMARK                            x       y       z     vdW  Elec       q    Type
REMARK                         _______ _______ _______ _____ _____    ______ ____
ROOT
ATOM      1  C   UNL     1      -1.198   2.816 -23.316  0.00  0.00    +0.181 C 
ATOM      2  O   UNL     1      -1.272   2.984 -24.820  0.00  0.00    -0.473 OA
ATOM      3  C   UNL     1      -2.656   3.311 -25.321  0.00  0.00    +0.168 A 
ATOM      4  C   UNL     1      -3.387   3.559 -26.331  0.00  0.00    +0.162 A 
ATOM      5  C   UNL     1      -4.624   3.789 -26.166  0.00  0.00    +0.050 A 
ATOM      6  C   UNL     1      -5.128   3.772 -25.016  0.00  0.00    +0.008 A 
ATOM      7  C   UNL     1      -4.402   3.525 -24.017  0.00  0.00    -0.034 A 
ATOM      8  C   UNL     1      -4.911   3.506 -22.846  0.00  0.00    +0.094 C 
ATOM      9  C   UNL     1      -4.186   3.260 -21.851  0.00  0.00    +0.096 C 
ATOM     10  C   UNL     1      -2.947   3.031 -22.013  0.00  0.00    -0.007 C 
ATOM     11  C   UNL     1      -2.217   2.782 -21.006  0.00  0.00    +0.009 C 
ATOM     12  C   UNL     1      -0.991   2.554 -21.158  0.00  0.00    +0.045 C 
ATOM     13  N   UNL     1      -3.451   2.992 -20.653  0.00  0.00    +0.239 N 
ATOM     14  H   UNL     1      -3.889   2.985 -19.731  0.00  0.00    +0.204 HD
ATOM     15  C   UNL     1      -4.008   2.988 -19.528  0.00  0.00    +0.191 C 
ATOM     16  C   UNL     1      -2.068   2.731 -20.798  0.00  0.00    +0.133 C 
ATOM     17  C   UNL     1      -1.528   2.758 -22.107  0.00  0.00    +0.071 C 
ATOM     18  C   UNL     1      -3.167   3.294 -24.161  0.00  0.00    +0.016 A 
ATOM     19  C   UNL     1      -0.477   2.570 -22.318  0.00  0.00    +0.142 C 
ATOM     20  C   UNL     1      -2.446   3.049 -23.163  0.00  0.00    +0.077 C 
ENDROOT
BRANCH   4  21
ATOM     21  O   UNL     1      -2.887   3.578 -27.483  0.00  0.00    -0.491 OA
ATOM     22  C   UNL     1      -3.616   3.392 -28.487  0.00  0.00    +0.277 C 
ENDBRANCH   4  21
BRANCH  19  23
ATOM     23  O   UNL     1       0.749   2.341 -22.467  0.00  0.00    -0.495 OA
ATOM     24  C   UNL     1       1.339   1.550 -21.691  0.00  0.00    +0.276 C 
ENDBRANCH  19  23
BRANCH   1  25
ATOM     25  C   UNL     1      -0.006   2.623 -23.747  0.00  0.00    +0.057 C 
BRANCH  25  26
ATOM     26  C   UNL     1       0.385   3.043 -24.886  0.00  0.00    +0.004 C 
BRANCH  26  28
ATOM     27  C   UNL     1       2.204   1.962 -25.414  0.00  0.00    +0.004 C 
ATOM     28  C   UNL     1       1.602   3.052 -25.199  0.00  0.00    -0.003 C 
ENDBRANCH  26  28
ENDBRANCH  25  26
ENDBRANCH   1  25
TORSDOF 5
ENDMDL
MODEL 3
REMARK VINA RESULT:    -8.220      1.721      4.264
REMARK INTER + INTRA:          -5.988
REMARK INTER:                 -11.547
REMARK INTRA:                   5.559
REMARK UNBOUND:                 4.635
REMARK  Name = CCCC[C@@]12Oc3c(OC)ccc4c3[C@@]13CCN(C)[C@@H](C4)C3=CC=C2OC           ZINC000253505415
REMARK  9 active torsions:
REMARK  status: ('A' for Active; 'I' for Inactive)
REMARK    1  A    between atoms: C_1  and  C_2
REMARK    2  A    between atoms: C_2  and  C_3
REMARK    3  A    between atoms: C_3  and  C_4
REMARK    4  A    between atoms: C_4  and  C_5
REMARK    5  A    between atoms: C_8  and  O_9
REMARK    6  A    between atoms: O_9  and  C_10
REMARK    7  A    between atoms: N_18  and  C_19
REMARK    8  A    between atoms: C_25  and  O_26
REMARK    9  A    between atoms: O_26  and  C_27
REMARK                            x       y       z     vdW  Elec       q    Type
REMARK                         _______ _______ _______ _____ _____    ______ ____
ROOT
ATOM      1  C   UNL     1      -1.822   3.110 -24.529  0.00  0.00    +0.181 C 
ATOM      2  O   UNL     1      -0.371   2.725 -24.328  0.00  0.00    -0.473 OA
ATOM      3  C   UNL     1      -0.064   2.242 -22.934  0.00  0.00    +0.168 A 
ATOM      4  C   UNL     1       0.822   1.806 -22.133  0.00  0.00    +0.162 A 
ATOM      5  C   UNL     1       0.500   1.524 -20.938  0.00  0.00    +0.050 A 
ATOM      6  C   UNL     1      -0.683   1.672 -20.544  0.00  0.00    +0.008 A 
ATOM      7  C   UNL     1      -1.559   2.105 -21.339  0.00  0.00    -0.034 A 
ATOM      8  C   UNL     1      -2.763   2.257 -20.941  0.00  0.00    +0.094 C 
ATOM      9  C   UNL     1      -3.635   2.688 -21.734  0.00  0.00    +0.096 C 
ATOM     10  C   UNL     1      -3.316   2.972 -22.931  0.00  0.00    -0.007 C 
ATOM     11  C   UNL     1      -4.199   3.407 -23.730  0.00  0.00    +0.009 C 
ATOM     12  C   UNL     1      -3.892   3.690 -24.916  0.00  0.00    +0.045 C 
ATOM     13  N   UNL     1      -4.703   3.172 -22.554  0.00  0.00    +0.239 N 
ATOM     14  H   UNL     1      -5.655   3.282 -22.205  0.00  0.00    +0.204 HD
ATOM     15  C   UNL     1      -5.868   3.300 -22.106  0.00  0.00    +0.191 C 
ATOM     16  C   UNL     1      -4.382   3.497 -23.894  0.00  0.00    +0.133 C 
ATOM     17  C   UNL     1      -3.040   3.319 -24.310  0.00  0.00    +0.071 C 
ATOM     18  C   UNL     1      -1.258   2.392 -22.533  0.00  0.00    +0.016 A 
ATOM     19  C   UNL     1      -2.698   3.542 -25.319  0.00  0.00    +0.142 C 
ATOM     20  C   UNL     1      -2.133   2.822 -23.322  0.00  0.00    +0.077 C 
ENDROOT
BRANCH   4  21
ATOM     21  O   UNL     1       2.006   1.656 -22.523  0.00  0.00    -0.491 OA
ATOM     22  C   UNL     1       2.700   0.710 -22.077  0.00  0.00    +0.277 C 
ENDBRANCH   4  21
BRANCH  19  23
ATOM     23  O   UNL     1      -2.394   3.825 -26.504  0.00  0.00    -0.495 OA
ATOM     24  C   UNL     1      -3.211   3.605 -27.431  0.00  0.00    +0.276 C 
ENDBRANCH  19  23
BRANCH   1  25
ATOM     25  C   UNL     1      -1.248   3.316 -25.657  0.00  0.00    +0.057 C 
BRANCH  25  26
ATOM     26  C   UNL     1       0.017   3.256 -25.800  0.00  0.00    +0.004 C 
BRANCH  26  28
ATOM     27  C   UNL     1       1.649   4.485 -25.036  0.00  0.00    +0.004 C 
ATOM     28  C   UNL     1       0.719   4.296 -25.871  0.00  0.00    -0.003 C 
ENDBRANCH  26  28
ENDBRANCH  25  26
ENDBRANCH   1  25
TORSDOF 5
ENDMDL
MODEL 4
REMARK VINA RESULT:    -8.132      1.197      4.339
REMARK INTER + INTRA:          -5.874
REMARK INTER:                 -11.127
REMARK INTRA:                   5.253
REMARK UNBOUND:                 4.635
REMARK  Name = CCCC[C@@]12Oc3c(OC)ccc4c3[C@@]13CCN(C)[C@@H](C4)C3=CC=C2OC           ZINC000253505415
REMARK  9 active torsions:
REMARK  status: ('A' for Active; 'I' for Inactive)
REMARK    1  A    between atoms: C_1  and  C_2
REMARK    2  A    between atoms: C_2  and  C_3
REMARK    3  A    between atoms: C_3  and  C_4
REMARK    4  A    between atoms: C_4  and  C_5
REMARK    5  A    between atoms: C_8  and  O_9
REMARK    6  A    between atoms: O_9  and  C_10
REMARK    7  A    between atoms: N_18  and  C_19
REMARK    8  A    between atoms: C_25  and  O_26
REMARK    9  A    between atoms: O_26  and  C_27
REMARK                            x       y       z     vdW  Elec       q    Type
REMARK                         _______ _______ _______ _____ _____    ______ ____
ROOT
ATOM      1  C   UNL     1      -2.760   2.756 -22.843  0.00  0.00    +0.181 C 
ATOM      2  O   UNL     1      -1.651   2.362 -21.890  0.00  0.00    -0.473 OA
ATOM      3  C   UNL     1      -0.282   2.379 -22.519  0.00  0.00    +0.168 A 
ATOM      4  C   UNL     1       0.964   2.189 -22.353  0.00  0.00    +0.162 A 
ATOM      5  C   UNL     1       1.759   2.369 -23.326  0.00  0.00    +0.050 A 
ATOM      6  C   UNL     1       1.324   2.733 -24.447  0.00  0.00    +0.008 A 
ATOM      7  C   UNL     1       0.089   2.921 -24.608  0.00  0.00    -0.034 A 
ATOM      8  C   UNL     1      -0.357   3.290 -25.746  0.00  0.00    +0.094 C 
ATOM      9  C   UNL     1      -1.589   3.477 -25.906  0.00  0.00    +0.096 C 
ATOM     10  C   UNL     1      -2.386   3.298 -24.934  0.00  0.00    -0.007 C 
ATOM     11  C   UNL     1      -3.630   3.487 -25.098  0.00  0.00    +0.009 C 
ATOM     12  C   UNL     1      -4.426   3.311 -24.141  0.00  0.00    +0.045 C 
ATOM     13  N   UNL     1      -2.969   3.717 -26.195  0.00  0.00    +0.239 N 
ATOM     14  H   UNL     1      -3.292   4.012 -27.116  0.00  0.00    +0.204 HD
ATOM     15  C   UNL     1      -3.348   4.080 -27.335  0.00  0.00    +0.191 C 
ATOM     16  C   UNL     1      -3.885   3.526 -25.133  0.00  0.00    +0.133 C 
ATOM     17  C   UNL     1      -3.365   3.116 -23.882  0.00  0.00    +0.071 C 
ATOM     18  C   UNL     1      -0.719   2.746 -23.651  0.00  0.00    +0.016 A 
ATOM     19  C   UNL     1      -3.990   2.944 -23.007  0.00  0.00    +0.142 C 
ATOM     20  C   UNL     1      -1.948   2.934 -23.815  0.00  0.00    +0.077 C 
ENDROOT
BRANCH   4  21
ATOM     21  O   UNL     1       1.405   1.826 -21.234  0.00  0.00    -0.491 OA
ATOM     22  C   UNL     1       2.596   1.448 -21.120  0.00  0.00    +0.277 C 
ENDBRANCH   4  21
BRANCH  19  23
ATOM     23  O   UNL     1      -4.788   2.770 -22.053  0.00  0.00    -0.495 OA
ATOM     24  C   UNL     1      -5.980   3.152 -22.153  0.00  0.00    +0.276 C 
ENDBRANCH  19  23
BRANCH   1  25
ATOM     25  C   UNL     1      -3.335   2.510 -21.724  0.00  0.00    +0.057 C 
BRANCH  25  26
ATOM     26  C   UNL     1      -2.753   2.689 -20.603  0.00  0.00    +0.004 C 
BRANCH  26  28
ATOM     27  C   UNL     1      -3.106   4.819 -20.295  0.00  0.00    +0.004 C 
ATOM     28  C   UNL     1      -3.071   3.639 -19.844  0.00  0.00    -0.003 C 
ENDBRANCH  26  28
ENDBRANCH  25  26
ENDBRANCH   1  25
TORSDOF 5
ENDMDL
MODEL 5
REMARK VINA RESULT:    -8.045      1.541      3.611
REMARK INTER + INTRA:          -5.761
REMARK INTER:                 -11.475
REMARK INTRA:                   5.714
REMARK UNBOUND:                 4.635
REMARK  Name = CCCC[C@@]12Oc3c(OC)ccc4c3[C@@]13CCN(C)[C@@H](C4)C3=CC=C2OC           ZINC000253505415
REMARK  9 active torsions:
REMARK  status: ('A' for Active; 'I' for Inactive)
REMARK    1  A    between atoms: C_1  and  C_2
REMARK    2  A    between atoms: C_2  and  C_3
REMARK    3  A    between atoms: C_3  and  C_4
REMARK    4  A    between atoms: C_4  and  C_5
REMARK    5  A    between atoms: C_8  and  O_9
REMARK    6  A    between atoms: O_9  and  C_10
REMARK    7  A    between atoms: N_18  and  C_19
REMARK    8  A    between atoms: C_25  and  O_26
REMARK    9  A    between atoms: O_26  and  C_27
REMARK                            x       y       z     vdW  Elec       q    Type
REMARK                         _______ _______ _______ _____ _____    ______ ____
ROOT
ATOM      1  C   UNL     1      -1.584   2.596 -22.609  0.00  0.00    +0.181 C 
ATOM      2  O   UNL     1      -3.072   2.824 -22.445  0.00  0.00    -0.473 OA
ATOM      3  C   UNL     1      -3.746   3.326 -23.696  0.00  0.00    +0.168 A 
ATOM      4  C   UNL     1      -4.834   3.693 -24.241  0.00  0.00    +0.162 A 
ATOM      5  C   UNL     1      -4.833   4.058 -25.457  0.00  0.00    +0.050 A 
ATOM      6  C   UNL     1      -3.767   4.060 -26.121  0.00  0.00    +0.008 A 
ATOM      7  C   UNL     1      -2.690   3.696 -25.579  0.00  0.00    -0.034 A 
ATOM      8  C   UNL     1      -1.605   3.696 -26.252  0.00  0.00    +0.094 C 
ATOM      9  C   UNL     1      -0.532   3.333 -25.711  0.00  0.00    +0.096 C 
ATOM     10  C   UNL     1      -0.530   2.967 -24.494  0.00  0.00    -0.007 C 
ATOM     11  C   UNL     1       0.556   2.601 -23.950  0.00  0.00    +0.009 C 
ATOM     12  C   UNL     1       0.566   2.237 -22.747  0.00  0.00    +0.045 C 
ATOM     13  N   UNL     1       0.742   2.940 -25.192  0.00  0.00    +0.239 N 
ATOM     14  H   UNL     1       1.591   2.952 -25.757  0.00  0.00    +0.204 HD
ATOM     15  C   UNL     1       1.776   2.961 -25.903  0.00  0.00    +0.191 C 
ATOM     16  C   UNL     1       0.780   2.526 -23.839  0.00  0.00    +0.133 C 
ATOM     17  C   UNL     1      -0.438   2.535 -23.115  0.00  0.00    +0.071 C 
ATOM     18  C   UNL     1      -2.671   3.329 -24.370  0.00  0.00    +0.016 A 
ATOM     19  C   UNL     1      -0.509   2.234 -22.071  0.00  0.00    +0.142 C 
ATOM     20  C   UNL     1      -1.596   2.967 -23.833  0.00  0.00    +0.077 C 
ENDROOT
BRANCH   4  21
ATOM     21  O   UNL     1      -5.902   3.693 -23.581  0.00  0.00    -0.491 OA
ATOM     22  C   UNL     1      -5.898   3.337 -22.377  0.00  0.00    +0.277 C 
ENDBRANCH   4  21
BRANCH  19  23
ATOM     23  O   UNL     1      -0.495   1.870 -20.869  0.00  0.00    -0.495 OA
ATOM     24  C   UNL     1       0.580   1.502 -20.337  0.00  0.00    +0.276 C 
ENDBRANCH  19  23
BRANCH   1  25
ATOM     25  C   UNL     1      -1.853   2.281 -21.395  0.00  0.00    +0.057 C 
BRANCH  25  26
ATOM     26  C   UNL     1      -3.046   2.252 -20.945  0.00  0.00    +0.004 C 
BRANCH  26  28
ATOM     27  C   UNL     1      -3.110   4.143 -19.860  0.00  0.00    +0.004 C 
ATOM     28  C   UNL     1      -3.378   2.910 -19.927  0.00  0.00    -0.003 C 
ENDBRANCH  26  28
ENDBRANCH  25  26
ENDBRANCH   1  25
TORSDOF 5
ENDMDL
MODEL 6
REMARK VINA RESULT:    -7.911      1.855      4.271
REMARK INTER + INTRA:          -5.589
REMARK INTER:                 -10.765
REMARK INTRA:                   5.176
REMARK UNBOUND:                 4.635
REMARK  Name = CCCC[C@@]12Oc3c(OC)ccc4c3[C@@]13CCN(C)[C@@H](C4)C3=CC=C2OC           ZINC000253505415
REMARK  9 active torsions:
REMARK  status: ('A' for Active; 'I' for Inactive)
REMARK    1  A    between atoms: C_1  and  C_2
REMARK    2  A    between atoms: C_2  and  C_3
REMARK    3  A    between atoms: C_3  and  C_4
REMARK    4  A    between atoms: C_4  and  C_5
REMARK    5  A    between atoms: C_8  and  O_9
REMARK    6  A    between atoms: O_9  and  C_10
REMARK    7  A    between atoms: N_18  and  C_19
REMARK    8  A    between atoms: C_25  and  O_26
REMARK    9  A    between atoms: O_26  and  C_27
REMARK                            x       y       z     vdW  Elec       q    Type
REMARK                         _______ _______ _______ _____ _____    ______ ____
ROOT
ATOM      1  C   UNL     1      -1.307   3.223 -24.048  0.00  0.00    +0.181 C 
ATOM      2  O   UNL     1      -2.755   3.578 -24.315  0.00  0.00    -0.473 OA
ATOM      3  C   UNL     1      -3.669   3.288 -23.153  0.00  0.00    +0.168 A 
ATOM      4  C   UNL     1      -4.858   3.321 -22.704  0.00  0.00    +0.162 A 
ATOM      5  C   UNL     1      -5.095   2.908 -21.528  0.00  0.00    +0.050 A 
ATOM      6  C   UNL     1      -4.165   2.468 -20.807  0.00  0.00    +0.008 A 
ATOM      7  C   UNL     1      -2.988   2.436 -21.254  0.00  0.00    -0.034 A 
ATOM      8  C   UNL     1      -2.040   1.989 -20.524  0.00  0.00    +0.094 C 
ATOM      9  C   UNL     1      -0.867   1.958 -20.970  0.00  0.00    +0.096 C 
ATOM     10  C   UNL     1      -0.627   2.371 -22.147  0.00  0.00    -0.007 C 
ATOM     11  C   UNL     1       0.559   2.337 -22.595  0.00  0.00    +0.009 C 
ATOM     12  C   UNL     1       0.804   2.744 -23.758  0.00  0.00    +0.045 C 
ATOM     13  N   UNL     1       0.501   1.878 -21.380  0.00  0.00    +0.239 N 
ATOM     14  H   UNL     1       1.235   1.515 -20.770  0.00  0.00    +0.204 HD
ATOM     15  C   UNL     1       1.390   1.429 -20.616  0.00  0.00    +0.191 C 
ATOM     16  C   UNL     1       0.804   2.330 -22.686  0.00  0.00    +0.133 C 
ATOM     17  C   UNL     1      -0.265   2.821 -23.475  0.00  0.00    +0.071 C 
ATOM     18  C   UNL     1      -2.733   2.843 -22.423  0.00  0.00    +0.016 A 
ATOM     19  C   UNL     1      -0.132   3.190 -24.490  0.00  0.00    +0.142 C 
ATOM     20  C   UNL     1      -1.558   2.810 -22.865  0.00  0.00    +0.077 C 
ENDROOT
BRANCH   4  21
ATOM     21  O   UNL     1      -5.791   3.761 -23.421  0.00  0.00    -0.491 OA
ATOM     22  C   UNL     1      -5.532   4.433 -24.448  0.00  0.00    +0.277 C 
ENDBRANCH   4  21
BRANCH  19  23
ATOM     23  O   UNL     1       0.116   3.595 -25.653  0.00  0.00    -0.495 OA
ATOM     24  C   UNL     1       1.217   4.144 -25.904  0.00  0.00    +0.276 C 
ENDBRANCH  19  23
BRANCH   1  25
ATOM     25  C   UNL     1      -1.336   3.690 -25.243  0.00  0.00    +0.057 C 
BRANCH  25  26
ATOM     26  C   UNL     1      -2.429   3.936 -25.852  0.00  0.00    +0.004 C 
BRANCH  26  28
ATOM     27  C   UNL     1      -3.730   3.329 -27.494  0.00  0.00    +0.004 C 
ATOM     28  C   UNL     1      -2.584   3.641 -27.064  0.00  0.00    -0.003 C 
ENDBRANCH  26  28
ENDBRANCH  25  26
ENDBRANCH   1  25
TORSDOF 5
ENDMDL
MODEL 7
REMARK VINA RESULT:    -7.618      1.866      5.554
REMARK INTER + INTRA:          -5.209
REMARK INTER:                  -9.964
REMARK INTRA:                   4.754
REMARK UNBOUND:                 4.635
REMARK  Name = CCCC[C@@]12Oc3c(OC)ccc4c3[C@@]13CCN(C)[C@@H](C4)C3=CC=C2OC           ZINC000253505415
REMARK  9 active torsions:
REMARK  status: ('A' for Active; 'I' for Inactive)
REMARK    1  A    between atoms: C_1  and  C_2
REMARK    2  A    between atoms: C_2  and  C_3
REMARK    3  A    between atoms: C_3  and  C_4
REMARK    4  A    between atoms: C_4  and  C_5
REMARK    5  A    between atoms: C_8  and  O_9
REMARK    6  A    between atoms: O_9  and  C_10
REMARK    7  A    between atoms: N_18  and  C_19
REMARK    8  A    between atoms: C_25  and  O_26
REMARK    9  A    between atoms: O_26  and  C_27
REMARK                            x       y       z     vdW  Elec       q    Type
REMARK                         _______ _______ _______ _____ _____    ______ ____
ROOT
ATOM      1  C   UNL     1      -2.824   3.350 -23.996  0.00  0.00    +0.181 C 
ATOM      2  O   UNL     1      -1.573   3.268 -24.846  0.00  0.00    -0.473 OA
ATOM      3  C   UNL     1      -0.365   2.775 -24.092  0.00  0.00    +0.168 A 
ATOM      4  C   UNL     1       0.872   2.486 -24.142  0.00  0.00    +0.162 A 
ATOM      5  C   UNL     1       1.460   2.069 -23.098  0.00  0.00    +0.050 A 
ATOM      6  C   UNL     1       0.830   1.940 -22.019  0.00  0.00    +0.008 A 
ATOM      7  C   UNL     1      -0.396   2.227 -21.972  0.00  0.00    -0.034 A 
ATOM      8  C   UNL     1      -1.040   2.097 -20.877  0.00  0.00    +0.094 C 
ATOM      9  C   UNL     1      -2.262   2.383 -20.831  0.00  0.00    +0.096 C 
ATOM     10  C   UNL     1      -2.853   2.801 -21.874  0.00  0.00    -0.007 C 
ATOM     11  C   UNL     1      -4.087   3.089 -21.825  0.00  0.00    +0.009 C 
ATOM     12  C   UNL     1      -4.679   3.503 -22.853  0.00  0.00    +0.045 C 
ATOM     13  N   UNL     1      -3.652   2.680 -20.670  0.00  0.00    +0.239 N 
ATOM     14  H   UNL     1      -4.137   2.565 -19.779  0.00  0.00    +0.204 HD
ATOM     15  C   UNL     1      -4.231   2.532 -19.566  0.00  0.00    +0.191 C 
ATOM     16  C   UNL     1      -4.341   3.148 -21.813  0.00  0.00    +0.133 C 
ATOM     17  C   UNL     1      -3.604   3.283 -23.015  0.00  0.00    +0.071 C 
ATOM     18  C   UNL     1      -0.999   2.644 -23.002  0.00  0.00    +0.016 A 
ATOM     19  C   UNL     1      -4.046   3.635 -23.945  0.00  0.00    +0.142 C 
ATOM     20  C   UNL     1      -2.220   2.929 -22.951  0.00  0.00    +0.077 C 
ENDROOT
BRANCH   4  21
ATOM     21  O   UNL     1       1.507   2.614 -25.219  0.00  0.00    -0.491 OA
ATOM     22  C   UNL     1       2.417   1.801 -25.512  0.00  0.00    +0.277 C 
ENDBRANCH   4  21
BRANCH  19  23
ATOM     23  O   UNL     1      -4.640   4.050 -24.972  0.00  0.00    -0.495 OA
ATOM     24  C   UNL     1      -5.836   3.727 -25.177  0.00  0.00    +0.276 C 
ENDBRANCH  19  23
BRANCH   1  25
ATOM     25  C   UNL     1      -3.173   3.742 -25.167  0.00  0.00    +0.057 C 
BRANCH  25  26
ATOM     26  C   UNL     1      -2.551   3.381 -26.220  0.00  0.00    +0.004 C 
BRANCH  26  28
ATOM     27  C   UNL     1      -3.571   3.283 -28.145  0.00  0.00    +0.004 C 
ATOM     28  C   UNL     1      -2.810   3.890 -27.340  0.00  0.00    -0.003 C 
ENDBRANCH  26  28
ENDBRANCH  25  26
ENDBRANCH   1  25
TORSDOF 5
ENDMDL
MODEL 8
REMARK VINA RESULT:    -6.843      1.316      4.477
REMARK INTER + INTRA:          -4.208
REMARK INTER:                  -9.546
REMARK INTRA:                   5.338
REMARK UNBOUND:                 4.635
REMARK  Name = CCCC[C@@]12Oc3c(OC)ccc4c3[C@@]13CCN(C)[C@@H](C4)C3=CC=C2OC           ZINC000253505415
REMARK  9 active torsions:
REMARK  status: ('A' for Active; 'I' for Inactive)
REMARK    1  A    between atoms: C_1  and  C_2
REMARK    2  A    between atoms: C_2  and  C_3
REMARK    3  A    between atoms: C_3  and  C_4
REMARK    4  A    between atoms: C_4  and  C_5
REMARK    5  A    between atoms: C_8  and  O_9
REMARK    6  A    between atoms: O_9  and  C_10
REMARK    7  A    between atoms: N_18  and  C_19
REMARK    8  A    between atoms: C_25  and  O_26
REMARK    9  A    between atoms: O_26  and  C_27
REMARK                            x       y       z     vdW  Elec       q    Type
REMARK                         _______ _______ _______ _____ _____    ______ ____
ROOT
ATOM      1  C   UNL     1      -1.550   2.635 -22.456  0.00  0.00    +0.181 C 
ATOM      2  O   UNL     1      -0.062   2.363 -22.380  0.00  0.00    -0.473 OA
ATOM      3  C   UNL     1       0.668   2.651 -23.667  0.00  0.00    +0.168 A 
ATOM      4  C   UNL     1       1.785   2.658 -24.274  0.00  0.00    +0.162 A 
ATOM      5  C   UNL     1       1.836   3.034 -25.486  0.00  0.00    +0.050 A 
ATOM      6  C   UNL     1       0.794   3.398 -26.085  0.00  0.00    +0.008 A 
ATOM      7  C   UNL     1      -0.312   3.390 -25.481  0.00  0.00    -0.034 A 
ATOM      8  C   UNL     1      -1.373   3.760 -26.087  0.00  0.00    +0.094 C 
ATOM      9  C   UNL     1      -2.474   3.752 -25.484  0.00  0.00    +0.096 C 
ATOM     10  C   UNL     1      -2.528   3.376 -24.272  0.00  0.00    -0.007 C 
ATOM     11  C   UNL     1      -3.642   3.368 -23.665  0.00  0.00    +0.009 C 
ATOM     12  C   UNL     1      -3.704   2.998 -22.466  0.00  0.00    +0.045 C 
ATOM     13  N   UNL     1      -3.776   3.780 -24.891  0.00  0.00    +0.239 N 
ATOM     14  H   UNL     1      -4.605   4.082 -25.405  0.00  0.00    +0.204 HD
ATOM     15  C   UNL     1      -4.784   4.154 -25.539  0.00  0.00    +0.191 C 
ATOM     16  C   UNL     1      -3.872   3.367 -23.541  0.00  0.00    +0.133 C 
ATOM     17  C   UNL     1      -2.680   2.962 -22.892  0.00  0.00    +0.071 C 
ATOM     18  C   UNL     1      -0.383   3.019 -24.274  0.00  0.00    +0.016 A 
ATOM     19  C   UNL     1      -2.654   2.629 -21.856  0.00  0.00    +0.142 C 
ATOM     20  C   UNL     1      -1.485   3.012 -23.676  0.00  0.00    +0.077 C 
ENDROOT
BRANCH   4  21
ATOM     21  O   UNL     1       2.829   2.294 -23.679  0.00  0.00    -0.491 OA
ATOM     22  C   UNL     1       3.173   1.087 -23.692  0.00  0.00    +0.277 C 
ENDBRANCH   4  21
BRANCH  19  23
ATOM     23  O   UNL     1      -2.718   2.259 -20.658  0.00  0.00    -0.495 OA
ATOM     24  C   UNL     1      -3.690   2.610 -19.944  0.00  0.00    +0.276 C 
ENDBRANCH  19  23
BRANCH   1  25
ATOM     25  C   UNL     1      -1.333   2.220 -21.262  0.00  0.00    +0.057 C 
BRANCH  25  26
ATOM     26  C   UNL     1      -0.356   1.452 -20.974  0.00  0.00    +0.004 C 
BRANCH  26  28
ATOM     27  C   UNL     1       1.701   1.398 -20.251  0.00  0.00    +0.004 C 
ATOM     28  C   UNL     1       0.504   1.779 -20.117  0.00  0.00    -0.003 C 
ENDBRANCH  26  28
ENDBRANCH  25  26
ENDBRANCH   1  25
TORSDOF 5
ENDMDL
MODEL 9
REMARK VINA RESULT:    -6.801      5.851      8.483
REMARK INTER + INTRA:          -4.154
REMARK INTER:                  -8.789
REMARK INTRA:                   4.635
REMARK UNBOUND:                 4.635
REMARK  Name = CCCC[C@@]12Oc3c(OC)ccc4c3[C@@]13CCN(C)[C@@H](C4)C3=CC=C2OC           ZINC000253505415
REMARK  9 active torsions:
REMARK  status: ('A' for Active; 'I' for Inactive)
REMARK    1  A    between atoms: C_1  and  C_2
REMARK    2  A    between atoms: C_2  and  C_3
REMARK    3  A    between atoms: C_3  and  C_4
REMARK    4  A    between atoms: C_4  and  C_5
REMARK    5  A    between atoms: C_8  and  O_9
REMARK    6  A    between atoms: O_9  and  C_10
REMARK    7  A    between atoms: N_18  and  C_19
REMARK    8  A    between atoms: C_25  and  O_26
REMARK    9  A    between atoms: O_26  and  C_27
REMARK                            x       y       z     vdW  Elec       q    Type
REMARK                         _______ _______ _______ _____ _____    ______ ____
ROOT
ATOM      1  C   UNL     1       5.172   5.978 -22.416  0.00  0.00    +0.181 C 
ATOM      2  O   UNL     1       3.699   6.329 -22.446  0.00  0.00    -0.473 OA
ATOM      3  C   UNL     1       2.834   5.244 -23.034  0.00  0.00    +0.168 A 
ATOM      4  C   UNL     1       1.658   4.877 -23.345  0.00  0.00    +0.162 A 
ATOM      5  C   UNL     1       1.477   3.737 -23.872  0.00  0.00    +0.050 A 
ATOM      6  C   UNL     1       2.449   2.972 -24.088  0.00  0.00    +0.008 A 
ATOM      7  C   UNL     1       3.614   3.338 -23.779  0.00  0.00    -0.034 A 
ATOM      8  C   UNL     1       4.606   2.564 -23.997  0.00  0.00    +0.094 C 
ATOM      9  C   UNL     1       5.767   2.930 -23.690  0.00  0.00    +0.096 C 
ATOM     10  C   UNL     1       5.951   4.070 -23.162  0.00  0.00    -0.007 C 
ATOM     11  C   UNL     1       7.125   4.437 -22.852  0.00  0.00    +0.009 C 
ATOM     12  C   UNL     1       7.315   5.565 -22.330  0.00  0.00    +0.045 C 
ATOM     13  N   UNL     1       7.126   3.248 -23.378  0.00  0.00    +0.239 N 
ATOM     14  H   UNL     1       7.896   2.605 -23.565  0.00  0.00    +0.204 HD
ATOM     15  C   UNL     1       8.060   2.444 -23.616  0.00  0.00    +0.191 C 
ATOM     16  C   UNL     1       7.367   4.512 -22.789  0.00  0.00    +0.133 C 
ATOM     17  C   UNL     1       6.250   5.352 -22.558  0.00  0.00    +0.071 C 
ATOM     18  C   UNL     1       3.815   4.471 -23.253  0.00  0.00    +0.016 A 
ATOM     19  C   UNL     1       6.335   6.340 -22.110  0.00  0.00    +0.142 C 
ATOM     20  C   UNL     1       4.977   4.832 -22.948  0.00  0.00    +0.077 C 
ENDROOT
BRANCH   4  21
ATOM     21  O   UNL     1       0.682   5.638 -23.131  0.00  0.00    -0.491 OA
ATOM     22  C   UNL     1      -0.491   5.200 -23.226  0.00  0.00    +0.277 C 
ENDBRANCH   4  21
BRANCH  19  23
ATOM     23  O   UNL     1       6.528   7.466 -21.587  0.00  0.00    -0.495 OA
ATOM     24  C   UNL     1       7.581   7.685 -20.939  0.00  0.00    +0.276 C 
ENDBRANCH  19  23
BRANCH   1  25
ATOM     25  C   UNL     1       5.084   7.153 -21.908  0.00  0.00    +0.057 C 
BRANCH  25  26
ATOM     26  C   UNL     1       4.059   7.893 -22.075  0.00  0.00    +0.004 C 
BRANCH  26  28
ATOM     27  C   UNL     1       4.168   9.743 -20.924  0.00  0.00    +0.004 C 
ATOM     28  C   UNL     1       4.143   9.147 -22.037  0.00  0.00    -0.003 C 
ENDBRANCH  26  28
ENDBRANCH  25  26
ENDBRANCH   1  25
TORSDOF 5
ENDMDL
