MODEL 1
REMARK VINA RESULT:   -10.197      0.000      0.000
REMARK INTER + INTRA:         -13.412
REMARK INTER:                 -12.776
REMARK INTRA:                  -0.636
REMARK UNBOUND:                 0.362
REMARK  Name = ZINC000004618458
REMARK  6 active torsions:
REMARK  status: ('A' for Active; 'I' for Inactive)
REMARK    1  A    between atoms: C_2  and  C_3
REMARK    2  A    between atoms: C_10  and  C_11
REMARK    3  A    between atoms: C_11  and  O_12
REMARK    4  A    between atoms: C_11  and  C_21
REMARK    5  A    between atoms: O_12  and  C_13
REMARK    6  A    between atoms: C_13  and  C_15
REMARK                            x       y       z     vdW  Elec       q    Type
REMARK                         _______ _______ _______ _____ _____    ______ ____
ROOT
ATOM      1  C   UNL     1      -0.986   2.680 -23.814  0.00  0.00    +0.255 C 
ENDROOT
BRANCH   1   2
ATOM      2  C   UNL     1      -2.086   3.071 -24.437  0.00  0.00    +0.009 A 
ATOM      3  C   UNL     1      -2.060   3.307 -25.734  0.00  0.00    +0.028 A 
ATOM      4  C   UNL     1      -3.157   3.698 -26.358  0.00  0.00    +0.112 A 
ATOM      5  N   UNL     1      -4.279   3.851 -25.678  0.00  0.00    -0.255 NA
ATOM      6  C   UNL     1      -4.305   3.616 -24.382  0.00  0.00    +0.071 A 
ATOM      7  C   UNL     1      -5.427   3.769 -23.702  0.00  0.00    +0.028 A 
ATOM      8  C   UNL     1      -5.452   3.533 -22.406  0.00  0.00    +0.002 A 
ATOM      9  C   UNL     1      -4.355   3.142 -21.782  0.00  0.00    +0.001 A 
ATOM     10  C   UNL     1      -3.233   2.989 -22.462  0.00  0.00    +0.010 A 
ATOM     11  C   UNL     1      -3.208   3.225 -23.758  0.00  0.00    +0.007 A 
ENDBRANCH   1   2
BRANCH   1  18
ATOM     12  C   UNL     1       2.030   5.234 -23.307  0.00  0.00    +0.060 C 
ATOM     13  C   UNL     1       0.883   5.407 -22.632  0.00  0.00    +0.139 C 
ATOM     14  N   UNL     1      -0.115   4.541 -22.815  0.00  0.00    +0.241 N 
ATOM     15  H   UNL     1      -1.052   4.477 -22.419  0.00  0.00    +0.204 HD
ATOM     16  C   UNL     1       0.894   4.803 -23.095  0.00  0.00    +0.132 C 
ATOM     17  C   UNL     1       1.216   4.016 -23.845  0.00  0.00    +0.055 C 
ATOM     18  C   UNL     1       0.013   3.526 -23.646  0.00  0.00    +0.111 C 
ATOM     19  C   UNL     1       1.155   3.357 -24.316  0.00  0.00    +0.063 C 
ATOM     20  C   UNL     1       2.152   4.202 -24.148  0.00  0.00    +0.011 C 
BRANCH  12  22
ATOM     21  C   UNL     1       4.224   5.633 -22.790  0.00  0.00    +0.004 C 
ATOM     22  C   UNL     1       3.033   6.080 -23.142  0.00  0.00    -0.026 C 
ENDBRANCH  12  22
ENDBRANCH   1  18
BRANCH   1  23
ATOM     23  O   UNL     1      -0.889   1.445 -23.360  0.00  0.00    -0.447 OA
BRANCH  23  24
ATOM     24  C   UNL     1      -0.437   1.224 -22.141  0.00  0.00    +0.340 C 
ATOM     25  O   UNL     1      -1.283   1.084 -21.138  0.00  0.00    -0.245 OA
BRANCH  24  26
ATOM     26  C   UNL     1       0.862   1.144 -21.925  0.00  0.00    +0.059 A 
ATOM     27  C   UNL     1       1.393   1.736 -20.868  0.00  0.00    +0.015 A 
ATOM     28  C   UNL     1       2.692   1.655 -20.653  0.00  0.00    +0.001 A 
ATOM     29  C   UNL     1       3.463   0.985 -21.488  0.00  0.00    +0.000 A 
ATOM     30  C   UNL     1       2.931   0.393 -22.545  0.00  0.00    +0.001 A 
ATOM     31  C   UNL     1       1.632   0.475 -22.760  0.00  0.00    +0.015 A 
ENDBRANCH  24  26
ENDBRANCH  23  24
ENDBRANCH   1  23
TORSDOF 6
ENDMDL
MODEL 2
REMARK VINA RESULT:    -9.691      1.965      5.980
REMARK INTER + INTRA:         -12.728
REMARK INTER:                 -11.361
REMARK INTRA:                  -1.367
REMARK UNBOUND:                 0.362
REMARK  Name = ZINC000004618458
REMARK  6 active torsions:
REMARK  status: ('A' for Active; 'I' for Inactive)
REMARK    1  A    between atoms: C_2  and  C_3
REMARK    2  A    between atoms: C_10  and  C_11
REMARK    3  A    between atoms: C_11  and  O_12
REMARK    4  A    between atoms: C_11  and  C_21
REMARK    5  A    between atoms: O_12  and  C_13
REMARK    6  A    between atoms: C_13  and  C_15
REMARK                            x       y       z     vdW  Elec       q    Type
REMARK                         _______ _______ _______ _____ _____    ______ ____
ROOT
ATOM      1  C   UNL     1       0.865   3.692 -23.003  0.00  0.00    +0.255 C 
ENDROOT
BRANCH   1   2
ATOM      2  C   UNL     1       1.579   2.694 -23.499  0.00  0.00    +0.009 A 
ATOM      3  C   UNL     1       1.572   2.459 -24.796  0.00  0.00    +0.028 A 
ATOM      4  C   UNL     1       2.284   1.463 -25.292  0.00  0.00    +0.112 A 
ATOM      5  N   UNL     1       3.003   0.705 -24.484  0.00  0.00    -0.255 NA
ATOM      6  C   UNL     1       3.010   0.940 -23.188  0.00  0.00    +0.071 A 
ATOM      7  C   UNL     1       3.729   0.181 -22.380  0.00  0.00    +0.028 A 
ATOM      8  C   UNL     1       3.736   0.418 -21.084  0.00  0.00    +0.002 A 
ATOM      9  C   UNL     1       3.023   1.413 -20.587  0.00  0.00    +0.001 A 
ATOM     10  C   UNL     1       2.305   2.171 -21.395  0.00  0.00    +0.010 A 
ATOM     11  C   UNL     1       2.298   1.936 -22.692  0.00  0.00    +0.007 A 
ENDBRANCH   1   2
BRANCH   1  18
ATOM     12  C   UNL     1      -3.116   3.525 -23.092  0.00  0.00    +0.060 C 
ATOM     13  C   UNL     1      -2.453   4.239 -24.014  0.00  0.00    +0.139 C 
ATOM     14  N   UNL     1      -1.121   4.282 -23.968  0.00  0.00    +0.241 N 
ATOM     15  H   UNL     1      -0.426   4.750 -24.550  0.00  0.00    +0.204 HD
ATOM     16  C   UNL     1      -2.011   3.890 -23.502  0.00  0.00    +0.132 C 
ATOM     17  C   UNL     1      -1.648   3.269 -22.626  0.00  0.00    +0.055 C 
ATOM     18  C   UNL     1      -0.454   3.637 -23.033  0.00  0.00    +0.111 C 
ATOM     19  C   UNL     1      -1.117   2.927 -22.116  0.00  0.00    +0.063 C 
ATOM     20  C   UNL     1      -2.433   2.872 -22.146  0.00  0.00    +0.011 C 
BRANCH  12  22
ATOM     21  C   UNL     1      -5.113   3.280 -22.000  0.00  0.00    +0.004 C 
ATOM     22  C   UNL     1      -4.437   3.467 -23.117  0.00  0.00    -0.026 C 
ENDBRANCH  12  22
ENDBRANCH   1  18
BRANCH   1  23
ATOM     23  O   UNL     1       1.470   4.741 -22.481  0.00  0.00    -0.447 OA
BRANCH  23  24
ATOM     24  C   UNL     1       2.244   5.499 -23.234  0.00  0.00    +0.340 C 
ATOM     25  O   UNL     1       1.785   5.985 -24.371  0.00  0.00    -0.245 OA
BRANCH  24  26
ATOM     26  C   UNL     1       3.475   5.770 -22.848  0.00  0.00    +0.059 A 
ATOM     27  C   UNL     1       4.438   4.884 -23.044  0.00  0.00    +0.015 A 
ATOM     28  C   UNL     1       5.670   5.157 -22.659  0.00  0.00    +0.001 A 
ATOM     29  C   UNL     1       5.945   6.308 -22.078  0.00  0.00    +0.000 A 
ATOM     30  C   UNL     1       4.981   7.194 -21.882  0.00  0.00    +0.001 A 
ATOM     31  C   UNL     1       3.750   6.921 -22.268  0.00  0.00    +0.015 A 
ENDBRANCH  24  26
ENDBRANCH  23  24
ENDBRANCH   1  23
TORSDOF 6
ENDMDL
MODEL 3
REMARK VINA RESULT:    -9.586      2.261      4.621
REMARK INTER + INTRA:         -12.586
REMARK INTER:                 -12.386
REMARK INTRA:                  -0.201
REMARK UNBOUND:                 0.362
REMARK  Name = ZINC000004618458
REMARK  6 active torsions:
REMARK  status: ('A' for Active; 'I' for Inactive)
REMARK    1  A    between atoms: C_2  and  C_3
REMARK    2  A    between atoms: C_10  and  C_11
REMARK    3  A    between atoms: C_11  and  O_12
REMARK    4  A    between atoms: C_11  and  C_21
REMARK    5  A    between atoms: O_12  and  C_13
REMARK    6  A    between atoms: C_13  and  C_15
REMARK                            x       y       z     vdW  Elec       q    Type
REMARK                         _______ _______ _______ _____ _____    ______ ____
ROOT
ATOM      1  C   UNL     1       0.201   4.028 -23.467  0.00  0.00    +0.255 C 
ENDROOT
BRANCH   1   2
ATOM      2  C   UNL     1      -0.328   3.077 -22.714  0.00  0.00    +0.009 A 
ATOM      3  C   UNL     1       0.141   1.847 -22.778  0.00  0.00    +0.028 A 
ATOM      4  C   UNL     1      -0.387   0.897 -22.027  0.00  0.00    +0.112 A 
ATOM      5  N   UNL     1      -1.386   1.184 -21.212  0.00  0.00    -0.255 NA
ATOM      6  C   UNL     1      -1.855   2.414 -21.148  0.00  0.00    +0.071 A 
ATOM      7  C   UNL     1      -2.854   2.701 -20.333  0.00  0.00    +0.028 A 
ATOM      8  C   UNL     1      -3.322   3.931 -20.270  0.00  0.00    +0.002 A 
ATOM      9  C   UNL     1      -2.795   4.881 -21.021  0.00  0.00    +0.001 A 
ATOM     10  C   UNL     1      -1.796   4.594 -21.836  0.00  0.00    +0.010 A 
ATOM     11  C   UNL     1      -1.327   3.363 -21.899  0.00  0.00    +0.007 A 
ENDBRANCH   1   2
BRANCH   1  18
ATOM     12  C   UNL     1       4.036   5.016 -23.018  0.00  0.00    +0.060 C 
ATOM     13  C   UNL     1       3.081   5.949 -22.881  0.00  0.00    +0.139 C 
ATOM     14  N   UNL     1       1.804   5.598 -23.035  0.00  0.00    +0.241 N 
ATOM     15  H   UNL     1       0.933   6.126 -22.978  0.00  0.00    +0.204 HD
ATOM     16  C   UNL     1       2.825   5.251 -23.044  0.00  0.00    +0.132 C 
ATOM     17  C   UNL     1       2.768   4.144 -23.282  0.00  0.00    +0.055 C 
ATOM     18  C   UNL     1       1.472   4.355 -23.318  0.00  0.00    +0.111 C 
ATOM     19  C   UNL     1       2.424   3.429 -23.454  0.00  0.00    +0.063 C 
ATOM     20  C   UNL     1       3.692   3.757 -23.306  0.00  0.00    +0.011 C 
BRANCH  12  22
ATOM     21  C   UNL     1       6.254   4.489 -23.222  0.00  0.00    +0.004 C 
ATOM     22  C   UNL     1       5.309   5.340 -22.870  0.00  0.00    -0.026 C 
ENDBRANCH  12  22
ENDBRANCH   1  18
BRANCH   1  23
ATOM     23  O   UNL     1      -0.539   4.647 -24.366  0.00  0.00    -0.447 OA
BRANCH  23  24
ATOM     24  C   UNL     1      -1.095   3.963 -25.347  0.00  0.00    +0.340 C 
ATOM     25  O   UNL     1      -0.338   3.379 -26.256  0.00  0.00    -0.245 OA
BRANCH  24  26
ATOM     26  C   UNL     1      -2.408   3.864 -25.419  0.00  0.00    +0.059 A 
ATOM     27  C   UNL     1      -2.959   2.942 -26.190  0.00  0.00    +0.015 A 
ATOM     28  C   UNL     1      -4.273   2.844 -26.261  0.00  0.00    +0.001 A 
ATOM     29  C   UNL     1      -5.038   3.662 -25.565  0.00  0.00    +0.000 A 
ATOM     30  C   UNL     1      -4.487   4.584 -24.794  0.00  0.00    +0.001 A 
ATOM     31  C   UNL     1      -3.174   4.682 -24.723  0.00  0.00    +0.015 A 
ENDBRANCH  24  26
ENDBRANCH  23  24
ENDBRANCH   1  23
TORSDOF 6
ENDMDL
MODEL 4
REMARK VINA RESULT:    -9.536      1.636      6.046
REMARK INTER + INTRA:         -12.519
REMARK INTER:                 -12.118
REMARK INTRA:                  -0.401
REMARK UNBOUND:                 0.362
REMARK  Name = ZINC000004618458
REMARK  6 active torsions:
REMARK  status: ('A' for Active; 'I' for Inactive)
REMARK    1  A    between atoms: C_2  and  C_3
REMARK    2  A    between atoms: C_10  and  C_11
REMARK    3  A    between atoms: C_11  and  O_12
REMARK    4  A    between atoms: C_11  and  C_21
REMARK    5  A    between atoms: O_12  and  C_13
REMARK    6  A    between atoms: C_13  and  C_15
REMARK                            x       y       z     vdW  Elec       q    Type
REMARK                         _______ _______ _______ _____ _____    ______ ____
ROOT
ATOM      1  C   UNL     1       0.225   3.365 -22.640  0.00  0.00    +0.255 C 
ENDROOT
BRANCH   1   2
ATOM      2  C   UNL     1       1.463   3.756 -22.895  0.00  0.00    +0.009 A 
ATOM      3  C   UNL     1       1.731   5.036 -23.053  0.00  0.00    +0.028 A 
ATOM      4  C   UNL     1       2.967   5.429 -23.307  0.00  0.00    +0.112 A 
ATOM      5  N   UNL     1       3.933   4.533 -23.402  0.00  0.00    -0.255 NA
ATOM      6  C   UNL     1       3.666   3.252 -23.243  0.00  0.00    +0.071 A 
ATOM      7  C   UNL     1       4.632   2.356 -23.337  0.00  0.00    +0.028 A 
ATOM      8  C   UNL     1       4.363   1.076 -23.178  0.00  0.00    +0.002 A 
ATOM      9  C   UNL     1       3.128   0.684 -22.924  0.00  0.00    +0.001 A 
ATOM     10  C   UNL     1       2.162   1.580 -22.830  0.00  0.00    +0.010 A 
ATOM     11  C   UNL     1       2.430   2.861 -22.989  0.00  0.00    +0.007 A 
ENDBRANCH   1   2
BRANCH   1  18
ATOM     12  C   UNL     1      -2.611   3.820 -25.401  0.00  0.00    +0.060 C 
ATOM     13  C   UNL     1      -1.820   2.736 -25.424  0.00  0.00    +0.139 C 
ATOM     14  N   UNL     1      -0.877   2.602 -24.491  0.00  0.00    +0.241 N 
ATOM     15  H   UNL     1      -0.178   1.880 -24.317  0.00  0.00    +0.204 HD
ATOM     16  C   UNL     1      -1.676   3.226 -24.859  0.00  0.00    +0.132 C 
ATOM     17  C   UNL     1      -1.713   4.118 -24.160  0.00  0.00    +0.055 C 
ATOM     18  C   UNL     1      -0.714   3.516 -23.555  0.00  0.00    +0.111 C 
ATOM     19  C   UNL     1      -1.503   4.592 -23.536  0.00  0.00    +0.063 C 
ATOM     20  C   UNL     1      -2.441   4.742 -24.449  0.00  0.00    +0.011 C 
BRANCH  12  22
ATOM     21  C   UNL     1      -4.778   3.540 -26.085  0.00  0.00    +0.004 C 
ATOM     22  C   UNL     1      -3.554   3.975 -26.316  0.00  0.00    -0.026 C 
ENDBRANCH  12  22
ENDBRANCH   1  18
BRANCH   1  23
ATOM     23  O   UNL     1      -0.070   2.824 -21.474  0.00  0.00    -0.447 OA
BRANCH  23  24
ATOM     24  C   UNL     1      -1.125   2.042 -21.358  0.00  0.00    +0.340 C 
ATOM     25  O   UNL     1      -0.990   0.733 -21.450  0.00  0.00    -0.245 OA
BRANCH  24  26
ATOM     26  C   UNL     1      -2.316   2.570 -21.149  0.00  0.00    +0.059 A 
ATOM     27  C   UNL     1      -3.375   2.074 -21.767  0.00  0.00    +0.015 A 
ATOM     28  C   UNL     1      -4.565   2.603 -21.558  0.00  0.00    +0.001 A 
ATOM     29  C   UNL     1      -4.703   3.624 -20.736  0.00  0.00    +0.000 A 
ATOM     30  C   UNL     1      -3.643   4.120 -20.118  0.00  0.00    +0.001 A 
ATOM     31  C   UNL     1      -2.453   3.591 -20.327  0.00  0.00    +0.015 A 
ENDBRANCH  24  26
ENDBRANCH  23  24
ENDBRANCH   1  23
TORSDOF 6
ENDMDL
MODEL 5
REMARK VINA RESULT:    -9.408      1.773      6.372
REMARK INTER + INTRA:         -12.346
REMARK INTER:                 -11.088
REMARK INTRA:                  -1.257
REMARK UNBOUND:                 0.362
REMARK  Name = ZINC000004618458
REMARK  6 active torsions:
REMARK  status: ('A' for Active; 'I' for Inactive)
REMARK    1  A    between atoms: C_2  and  C_3
REMARK    2  A    between atoms: C_10  and  C_11
REMARK    3  A    between atoms: C_11  and  O_12
REMARK    4  A    between atoms: C_11  and  C_21
REMARK    5  A    between atoms: O_12  and  C_13
REMARK    6  A    between atoms: C_13  and  C_15
REMARK                            x       y       z     vdW  Elec       q    Type
REMARK                         _______ _______ _______ _____ _____    ______ ____
ROOT
ATOM      1  C   UNL     1       0.276   3.165 -23.568  0.00  0.00    +0.255 C 
ENDROOT
BRANCH   1   2
ATOM      2  C   UNL     1       1.495   3.545 -23.220  0.00  0.00    +0.009 A 
ATOM      3  C   UNL     1       1.839   4.815 -23.298  0.00  0.00    +0.028 A 
ATOM      4  C   UNL     1       3.055   5.196 -22.951  0.00  0.00    +0.112 A 
ATOM      5  N   UNL     1       3.926   4.298 -22.526  0.00  0.00    -0.255 NA
ATOM      6  C   UNL     1       3.584   3.028 -22.447  0.00  0.00    +0.071 A 
ATOM      7  C   UNL     1       4.455   2.131 -22.022  0.00  0.00    +0.028 A 
ATOM      8  C   UNL     1       4.111   0.862 -21.944  0.00  0.00    +0.002 A 
ATOM      9  C   UNL     1       2.895   0.481 -22.291  0.00  0.00    +0.001 A 
ATOM     10  C   UNL     1       2.024   1.378 -22.716  0.00  0.00    +0.010 A 
ATOM     11  C   UNL     1       2.367   2.649 -22.794  0.00  0.00    +0.007 A 
ENDBRANCH   1   2
BRANCH   1  18
ATOM     12  C   UNL     1      -2.668   3.228 -20.884  0.00  0.00    +0.060 C 
ATOM     13  C   UNL     1      -2.116   4.377 -21.301  0.00  0.00    +0.139 C 
ATOM     14  N   UNL     1      -1.132   4.335 -22.200  0.00  0.00    +0.241 N 
ATOM     15  H   UNL     1      -0.578   5.064 -22.650  0.00  0.00    +0.204 HD
ATOM     16  C   UNL     1      -1.822   3.749 -21.615  0.00  0.00    +0.132 C 
ATOM     17  C   UNL     1      -1.611   2.669 -21.887  0.00  0.00    +0.055 C 
ATOM     18  C   UNL     1      -0.699   3.186 -22.678  0.00  0.00    +0.111 C 
ATOM     19  C   UNL     1      -1.251   2.045 -22.260  0.00  0.00    +0.063 C 
ATOM     20  C   UNL     1      -2.224   2.066 -21.373  0.00  0.00    +0.011 C 
BRANCH  12  22
ATOM     21  C   UNL     1      -4.731   2.521 -20.188  0.00  0.00    +0.004 C 
ATOM     22  C   UNL     1      -3.646   3.244 -19.993  0.00  0.00    -0.026 C 
ENDBRANCH  12  22
ENDBRANCH   1  18
BRANCH   1  23
ATOM     23  O   UNL     1       0.036   2.767 -24.802  0.00  0.00    -0.447 OA
BRANCH  23  24
ATOM     24  C   UNL     1      -0.668   3.530 -25.616  0.00  0.00    +0.340 C 
ATOM     25  O   UNL     1      -0.067   4.187 -26.589  0.00  0.00    -0.245 OA
BRANCH  24  26
ATOM     26  C   UNL     1      -1.972   3.635 -25.455  0.00  0.00    +0.059 A 
ATOM     27  C   UNL     1      -2.501   4.788 -25.081  0.00  0.00    +0.015 A 
ATOM     28  C   UNL     1      -3.806   4.892 -24.921  0.00  0.00    +0.001 A 
ATOM     29  C   UNL     1      -4.586   3.850 -25.133  0.00  0.00    +0.000 A 
ATOM     30  C   UNL     1      -4.057   2.696 -25.507  0.00  0.00    +0.001 A 
ATOM     31  C   UNL     1      -2.752   2.593 -25.667  0.00  0.00    +0.015 A 
ENDBRANCH  24  26
ENDBRANCH  23  24
ENDBRANCH   1  23
TORSDOF 6
ENDMDL
MODEL 6
REMARK VINA RESULT:    -9.112      1.905      6.609
REMARK INTER + INTRA:         -11.946
REMARK INTER:                 -12.143
REMARK INTRA:                   0.197
REMARK UNBOUND:                 0.362
REMARK  Name = ZINC000004618458
REMARK  6 active torsions:
REMARK  status: ('A' for Active; 'I' for Inactive)
REMARK    1  A    between atoms: C_2  and  C_3
REMARK    2  A    between atoms: C_10  and  C_11
REMARK    3  A    between atoms: C_11  and  O_12
REMARK    4  A    between atoms: C_11  and  C_21
REMARK    5  A    between atoms: O_12  and  C_13
REMARK    6  A    between atoms: C_13  and  C_15
REMARK                            x       y       z     vdW  Elec       q    Type
REMARK                         _______ _______ _______ _____ _____    ______ ____
ROOT
ATOM      1  C   UNL     1       0.066   3.383 -23.037  0.00  0.00    +0.255 C 
ENDROOT
BRANCH   1   2
ATOM      2  C   UNL     1       1.174   2.745 -22.699  0.00  0.00    +0.009 A 
ATOM      3  C   UNL     1       1.118   1.486 -22.310  0.00  0.00    +0.028 A 
ATOM      4  C   UNL     1       2.224   0.847 -21.971  0.00  0.00    +0.112 A 
ATOM      5  N   UNL     1       3.385   1.474 -22.024  0.00  0.00    -0.255 NA
ATOM      6  C   UNL     1       3.442   2.731 -22.413  0.00  0.00    +0.071 A 
ATOM      7  C   UNL     1       4.604   3.358 -22.466  0.00  0.00    +0.028 A 
ATOM      8  C   UNL     1       4.659   4.615 -22.855  0.00  0.00    +0.002 A 
ATOM      9  C   UNL     1       3.554   5.255 -23.193  0.00  0.00    +0.001 A 
ATOM     10  C   UNL     1       2.392   4.628 -23.140  0.00  0.00    +0.010 A 
ATOM     11  C   UNL     1       2.336   3.370 -22.751  0.00  0.00    +0.007 A 
ENDBRANCH   1   2
BRANCH   1  18
ATOM     12  C   UNL     1      -3.330   2.642 -21.090  0.00  0.00    +0.060 C 
ATOM     13  C   UNL     1      -2.744   1.673 -21.810  0.00  0.00    +0.139 C 
ATOM     14  N   UNL     1      -1.608   1.941 -22.454  0.00  0.00    +0.241 N 
ATOM     15  H   UNL     1      -1.002   1.374 -23.046  0.00  0.00    +0.204 HD
ATOM     16  C   UNL     1      -2.378   2.341 -21.814  0.00  0.00    +0.132 C 
ATOM     17  C   UNL     1      -2.088   3.420 -21.625  0.00  0.00    +0.055 C 
ATOM     18  C   UNL     1      -1.059   3.138 -22.392  0.00  0.00    +0.111 C 
ATOM     19  C   UNL     1      -1.646   4.099 -21.675  0.00  0.00    +0.063 C 
ATOM     20  C   UNL     1      -2.769   3.853 -21.031  0.00  0.00    +0.011 C 
BRANCH  12  22
ATOM     21  C   UNL     1      -5.618   2.596 -21.038  0.00  0.00    +0.004 C 
ATOM     22  C   UNL     1      -4.458   2.400 -20.442  0.00  0.00    -0.026 C 
ENDBRANCH  12  22
ENDBRANCH   1  18
BRANCH   1  23
ATOM     23  O   UNL     1       0.086   4.264 -24.019  0.00  0.00    -0.447 OA
BRANCH  23  24
ATOM     24  C   UNL     1      -0.485   3.978 -25.173  0.00  0.00    +0.340 C 
ATOM     25  O   UNL     1       0.259   3.731 -26.234  0.00  0.00    -0.245 OA
BRANCH  24  26
ATOM     26  C   UNL     1      -1.800   3.940 -25.265  0.00  0.00    +0.059 A 
ATOM     27  C   UNL     1      -2.527   4.918 -24.750  0.00  0.00    +0.015 A 
ATOM     28  C   UNL     1      -3.842   4.878 -24.843  0.00  0.00    +0.001 A 
ATOM     29  C   UNL     1      -4.435   3.867 -25.447  0.00  0.00    +0.000 A 
ATOM     30  C   UNL     1      -3.708   2.889 -25.961  0.00  0.00    +0.001 A 
ATOM     31  C   UNL     1      -2.393   2.928 -25.869  0.00  0.00    +0.015 A 
ENDBRANCH  24  26
ENDBRANCH  23  24
ENDBRANCH   1  23
TORSDOF 6
ENDMDL
MODEL 7
REMARK VINA RESULT:    -8.776      1.872      6.019
REMARK INTER + INTRA:         -11.493
REMARK INTER:                 -11.335
REMARK INTRA:                  -0.158
REMARK UNBOUND:                 0.362
REMARK  Name = ZINC000004618458
REMARK  6 active torsions:
REMARK  status: ('A' for Active; 'I' for Inactive)
REMARK    1  A    between atoms: C_2  and  C_3
REMARK    2  A    between atoms: C_10  and  C_11
REMARK    3  A    between atoms: C_11  and  O_12
REMARK    4  A    between atoms: C_11  and  C_21
REMARK    5  A    between atoms: O_12  and  C_13
REMARK    6  A    between atoms: C_13  and  C_15
REMARK                            x       y       z     vdW  Elec       q    Type
REMARK                         _______ _______ _______ _____ _____    ______ ____
ROOT
ATOM      1  C   UNL     1       0.484   2.827 -23.106  0.00  0.00    +0.255 C 
ENDROOT
BRANCH   1   2
ATOM      2  C   UNL     1       1.703   2.426 -23.426  0.00  0.00    +0.009 A 
ATOM      3  C   UNL     1       1.904   1.191 -23.841  0.00  0.00    +0.028 A 
ATOM      4  C   UNL     1       3.121   0.788 -24.161  0.00  0.00    +0.112 A 
ATOM      5  N   UNL     1       4.136   1.628 -24.063  0.00  0.00    -0.255 NA
ATOM      6  C   UNL     1       3.936   2.863 -23.648  0.00  0.00    +0.071 A 
ATOM      7  C   UNL     1       4.951   3.702 -23.551  0.00  0.00    +0.028 A 
ATOM      8  C   UNL     1       4.750   4.936 -23.136  0.00  0.00    +0.002 A 
ATOM      9  C   UNL     1       3.533   5.339 -22.816  0.00  0.00    +0.001 A 
ATOM     10  C   UNL     1       2.518   4.499 -22.914  0.00  0.00    +0.010 A 
ATOM     11  C   UNL     1       2.719   3.264 -23.329  0.00  0.00    +0.007 A 
ENDBRANCH   1   2
BRANCH   1  18
ATOM     12  C   UNL     1      -2.248   3.357 -25.959  0.00  0.00    +0.060 C 
ATOM     13  C   UNL     1      -1.082   4.020 -26.014  0.00  0.00    +0.139 C 
ATOM     14  N   UNL     1      -0.181   3.828 -25.050  0.00  0.00    +0.241 N 
ATOM     15  H   UNL     1       0.750   4.215 -24.890  0.00  0.00    +0.204 HD
ATOM     16  C   UNL     1      -1.160   3.559 -25.414  0.00  0.00    +0.132 C 
ATOM     17  C   UNL     1      -1.569   2.815 -24.662  0.00  0.00    +0.055 C 
ATOM     18  C   UNL     1      -0.421   3.003 -24.051  0.00  0.00    +0.111 C 
ATOM     19  C   UNL     1      -1.582   2.346 -24.000  0.00  0.00    +0.063 C 
ATOM     20  C   UNL     1      -2.485   2.522 -24.943  0.00  0.00    +0.011 C 
BRANCH  12  22
ATOM     21  C   UNL     1      -4.414   3.196 -26.682  0.00  0.00    +0.004 C 
ATOM     22  C   UNL     1      -3.157   3.531 -26.904  0.00  0.00    -0.026 C 
ENDBRANCH  12  22
ENDBRANCH   1  18
BRANCH   1  23
ATOM     23  O   UNL     1       0.173   3.052 -21.844  0.00  0.00    -0.447 OA
BRANCH  23  24
ATOM     24  C   UNL     1      -0.653   2.238 -21.214  0.00  0.00    +0.340 C 
ATOM     25  O   UNL     1      -0.221   1.073 -20.772  0.00  0.00    -0.245 OA
BRANCH  24  26
ATOM     26  C   UNL     1      -1.909   2.591 -21.028  0.00  0.00    +0.059 A 
ATOM     27  C   UNL     1      -2.211   3.856 -20.783  0.00  0.00    +0.015 A 
ATOM     28  C   UNL     1      -3.468   4.207 -20.596  0.00  0.00    +0.001 A 
ATOM     29  C   UNL     1      -4.426   3.303 -20.652  0.00  0.00    +0.000 A 
ATOM     30  C   UNL     1      -4.125   2.038 -20.897  0.00  0.00    +0.001 A 
ATOM     31  C   UNL     1      -2.867   1.686 -21.084  0.00  0.00    +0.015 A 
ENDBRANCH  24  26
ENDBRANCH  23  24
ENDBRANCH   1  23
TORSDOF 6
ENDMDL
MODEL 8
REMARK VINA RESULT:    -8.670      2.360      6.371
REMARK INTER + INTRA:         -11.350
REMARK INTER:                 -12.034
REMARK INTRA:                   0.684
REMARK UNBOUND:                 0.362
REMARK  Name = ZINC000004618458
REMARK  6 active torsions:
REMARK  status: ('A' for Active; 'I' for Inactive)
REMARK    1  A    between atoms: C_2  and  C_3
REMARK    2  A    between atoms: C_10  and  C_11
REMARK    3  A    between atoms: C_11  and  O_12
REMARK    4  A    between atoms: C_11  and  C_21
REMARK    5  A    between atoms: O_12  and  C_13
REMARK    6  A    between atoms: C_13  and  C_15
REMARK                            x       y       z     vdW  Elec       q    Type
REMARK                         _______ _______ _______ _____ _____    ______ ____
ROOT
ATOM      1  C   UNL     1       2.997   3.611 -23.947  0.00  0.00    +0.255 C 
ENDROOT
BRANCH   1   2
ATOM      2  C   UNL     1       3.579   4.640 -23.354  0.00  0.00    +0.009 A 
ATOM      3  C   UNL     1       2.852   5.652 -22.924  0.00  0.00    +0.028 A 
ATOM      4  C   UNL     1       3.432   6.681 -22.331  0.00  0.00    +0.112 A 
ATOM      5  N   UNL     1       4.743   6.691 -22.171  0.00  0.00    -0.255 NA
ATOM      6  C   UNL     1       5.471   5.680 -22.601  0.00  0.00    +0.071 A 
ATOM      7  C   UNL     1       6.782   5.691 -22.442  0.00  0.00    +0.028 A 
ATOM      8  C   UNL     1       7.508   4.680 -22.872  0.00  0.00    +0.002 A 
ATOM      9  C   UNL     1       6.929   3.651 -23.464  0.00  0.00    +0.001 A 
ATOM     10  C   UNL     1       5.617   3.641 -23.624  0.00  0.00    +0.010 A 
ATOM     11  C   UNL     1       4.890   4.652 -23.194  0.00  0.00    +0.007 A 
ENDBRANCH   1   2
BRANCH   1  18
ATOM     12  C   UNL     1      -0.950   3.602 -24.493  0.00  0.00    +0.060 C 
ATOM     13  C   UNL     1      -0.442   3.413 -23.266  0.00  0.00    +0.139 C 
ATOM     14  N   UNL     1       0.882   3.419 -23.104  0.00  0.00    +0.241 N 
ATOM     15  H   UNL     1       1.476   3.299 -22.284  0.00  0.00    +0.204 HD
ATOM     16  C   UNL     1       0.076   3.516 -23.814  0.00  0.00    +0.132 C 
ATOM     17  C   UNL     1       0.574   3.694 -24.817  0.00  0.00    +0.055 C 
ATOM     18  C   UNL     1       1.689   3.608 -24.128  0.00  0.00    +0.111 C 
ATOM     19  C   UNL     1       1.180   3.796 -25.348  0.00  0.00    +0.063 C 
ATOM     20  C   UNL     1      -0.125   3.793 -25.527  0.00  0.00    +0.011 C 
BRANCH  12  22
ATOM     21  C   UNL     1      -2.757   3.400 -25.884  0.00  0.00    +0.004 C 
ATOM     22  C   UNL     1      -2.260   3.600 -24.679  0.00  0.00    -0.026 C 
ENDBRANCH  12  22
ENDBRANCH   1  18
BRANCH   1  23
ATOM     23  O   UNL     1       3.723   2.589 -24.357  0.00  0.00    -0.447 OA
BRANCH  23  24
ATOM     24  C   UNL     1       3.424   1.367 -23.960  0.00  0.00    +0.340 C 
ATOM     25  O   UNL     1       2.825   0.532 -24.787  0.00  0.00    -0.245 OA
BRANCH  24  26
ATOM     26  C   UNL     1       3.724   0.981 -22.735  0.00  0.00    +0.059 A 
ATOM     27  C   UNL     1       4.985   0.757 -22.404  0.00  0.00    +0.015 A 
ATOM     28  C   UNL     1       5.285   0.371 -21.179  0.00  0.00    +0.001 A 
ATOM     29  C   UNL     1       4.331   0.208 -20.283  0.00  0.00    +0.000 A 
ATOM     30  C   UNL     1       3.070   0.433 -20.613  0.00  0.00    +0.001 A 
ATOM     31  C   UNL     1       2.771   0.819 -21.839  0.00  0.00    +0.015 A 
ENDBRANCH  24  26
ENDBRANCH  23  24
ENDBRANCH   1  23
TORSDOF 6
ENDMDL
MODEL 9
REMARK VINA RESULT:    -8.478      2.089      3.402
REMARK INTER + INTRA:         -11.090
REMARK INTER:                 -11.452
REMARK INTRA:                   0.362
REMARK UNBOUND:                 0.362
REMARK  Name = ZINC000004618458
REMARK  6 active torsions:
REMARK  status: ('A' for Active; 'I' for Inactive)
REMARK    1  A    between atoms: C_2  and  C_3
REMARK    2  A    between atoms: C_10  and  C_11
REMARK    3  A    between atoms: C_11  and  O_12
REMARK    4  A    between atoms: C_11  and  C_21
REMARK    5  A    between atoms: O_12  and  C_13
REMARK    6  A    between atoms: C_13  and  C_15
REMARK                            x       y       z     vdW  Elec       q    Type
REMARK                         _______ _______ _______ _____ _____    ______ ____
ROOT
ATOM      1  C   UNL     1       1.874   3.128 -23.823  0.00  0.00    +0.255 C 
ENDROOT
BRANCH   1   2
ATOM      2  C   UNL     1       0.697   2.796 -23.318  0.00  0.00    +0.009 A 
ATOM      3  C   UNL     1       0.615   2.326 -22.089  0.00  0.00    +0.028 A 
ATOM      4  C   UNL     1      -0.559   1.993 -21.583  0.00  0.00    +0.112 A 
ATOM      5  N   UNL     1      -1.651   2.133 -22.313  0.00  0.00    -0.255 NA
ATOM      6  C   UNL     1      -1.570   2.603 -23.542  0.00  0.00    +0.071 A 
ATOM      7  C   UNL     1      -2.662   2.743 -24.272  0.00  0.00    +0.028 A 
ATOM      8  C   UNL     1      -2.579   3.212 -25.500  0.00  0.00    +0.002 A 
ATOM      9  C   UNL     1      -1.405   3.545 -26.006  0.00  0.00    +0.001 A 
ATOM     10  C   UNL     1      -0.314   3.405 -25.276  0.00  0.00    +0.010 A 
ATOM     11  C   UNL     1      -0.395   2.935 -24.047  0.00  0.00    +0.007 A 
ENDBRANCH   1   2
BRANCH   1  18
ATOM     12  C   UNL     1       3.750   6.391 -22.514  0.00  0.00    +0.060 C 
ATOM     13  C   UNL     1       2.439   6.437 -22.795  0.00  0.00    +0.139 C 
ATOM     14  N   UNL     1       1.829   5.335 -23.232  0.00  0.00    +0.241 N 
ATOM     15  H   UNL     1       0.864   5.142 -23.500  0.00  0.00    +0.204 HD
ATOM     16  C   UNL     1       2.766   5.759 -22.906  0.00  0.00    +0.132 C 
ATOM     17  C   UNL     1       3.520   4.915 -22.968  0.00  0.00    +0.055 C 
ATOM     18  C   UNL     1       2.495   4.209 -23.389  0.00  0.00    +0.111 C 
ATOM     19  C   UNL     1       3.800   4.166 -23.109  0.00  0.00    +0.063 C 
ATOM     20  C   UNL     1       4.420   5.246 -22.676  0.00  0.00    +0.011 C 
BRANCH  12  22
ATOM     21  C   UNL     1       5.677   7.440 -21.862  0.00  0.00    +0.004 C 
ATOM     22  C   UNL     1       4.377   7.472 -22.080  0.00  0.00    -0.026 C 
ENDBRANCH  12  22
ENDBRANCH   1  18
BRANCH   1  23
ATOM     23  O   UNL     1       2.425   2.380 -24.759  0.00  0.00    -0.447 OA
BRANCH  23  24
ATOM     24  C   UNL     1       2.858   1.169 -24.465  0.00  0.00    +0.340 C 
ATOM     25  O   UNL     1       2.608   0.163 -25.281  0.00  0.00    -0.245 OA
BRANCH  24  26
ATOM     26  C   UNL     1       3.541   0.966 -23.356  0.00  0.00    +0.059 A 
ATOM     27  C   UNL     1       4.813   1.323 -23.289  0.00  0.00    +0.015 A 
ATOM     28  C   UNL     1       5.495   1.118 -22.178  0.00  0.00    +0.001 A 
ATOM     29  C   UNL     1       4.913   0.560 -21.135  0.00  0.00    +0.000 A 
ATOM     30  C   UNL     1       3.641   0.203 -21.202  0.00  0.00    +0.001 A 
ATOM     31  C   UNL     1       2.959   0.407 -22.312  0.00  0.00    +0.015 A 
ENDBRANCH  24  26
ENDBRANCH  23  24
ENDBRANCH   1  23
TORSDOF 6
ENDMDL
