MODEL 1
REMARK VINA RESULT:   -11.654      0.000      0.000
REMARK INTER + INTRA:         -12.677
REMARK INTER:                 -12.767
REMARK INTRA:                   0.090
REMARK UNBOUND:                 0.339
REMARK  Name = CC[C@]1(O)CC[C@H]2[C@@H]3CC(=O)C4=CC(=O)CC[C@]4(C)[C@H]3CC[C@@]21C   ZINC000118913921
REMARK  5 active torsions:
REMARK  status: ('A' for Active; 'I' for Inactive)
REMARK    1  A    between atoms: C_1  and  C_2
REMARK    2  A    between atoms: C_2  and  C_3
REMARK    3  A    between atoms: C_3  and  O_4
REMARK    4  A    between atoms: C_18  and  C_19
REMARK    5  A    between atoms: C_23  and  C_24
REMARK                            x       y       z     vdW  Elec       q    Type
REMARK                         _______ _______ _______ _____ _____    ______ ____
ROOT
ATOM      1  C   UNL     1      -4.695   3.243 -22.463  0.00  0.00    +0.071 C 
ATOM      2  C   UNL     1      -4.655   2.738 -21.254  0.00  0.00    +0.035 C 
ATOM      3  C   UNL     1      -3.418   2.375 -21.010  0.00  0.00    +0.007 C 
ATOM      4  C   UNL     1      -2.694   2.654 -22.064  0.00  0.00    +0.002 C 
ATOM      5  C   UNL     1      -1.422   2.489 -22.322  0.00  0.00    +0.004 C 
ATOM      6  C   UNL     1      -0.636   1.951 -21.416  0.00  0.00    +0.083 C 
ATOM      7  C   UNL     1       0.639   1.784 -21.672  0.00  0.00    +0.160 C 
ATOM      8  C   UNL     1       1.129   2.154 -22.829  0.00  0.00    +0.004 C 
ATOM      9  C   UNL     1       2.405   1.988 -23.086  0.00  0.00    +0.053 C 
ATOM     10  C   UNL     1       2.896   2.358 -24.243  0.00  0.00    +0.157 C 
ATOM     11  C   UNL     1       2.113   2.896 -25.149  0.00  0.00    +0.080 C 
ATOM     12  C   UNL     1       0.836   3.062 -24.890  0.00  0.00    +0.019 C 
ATOM     13  O   UNL     1       4.173   2.191 -24.498  0.00  0.00    -0.293 OA
ATOM     14  C   UNL     1       0.345   2.692 -23.734  0.00  0.00    -0.000 C 
ATOM     15  C   UNL     1      -0.439   3.229 -24.637  0.00  0.00    +0.016 C 
ATOM     16  O   UNL     1       1.423   1.247 -20.768  0.00  0.00    -0.292 OA
ATOM     17  C   UNL     1      -0.930   2.859 -23.479  0.00  0.00    +0.003 C 
ATOM     18  C   UNL     1      -1.716   3.396 -24.383  0.00  0.00    +0.005 C 
ATOM     19  C   UNL     1      -2.991   3.562 -24.126  0.00  0.00    +0.010 C 
ATOM     20  C   UNL     1      -3.481   3.192 -22.969  0.00  0.00    -0.000 C 
ATOM     21  C   UNL     1      -4.288   3.716 -23.830  0.00  0.00    +0.014 C 
ENDROOT
BRANCH   1  23
ATOM     22  C   UNL     1      -6.665   2.403 -21.680  0.00  0.00    +0.007 C 
ATOM     23  C   UNL     1      -5.970   3.391 -22.164  0.00  0.00    +0.032 C 
ENDBRANCH   1  23
BRANCH   1  24
ATOM     24  O   UNL     1      -5.050   3.669 -23.320  0.00  0.00    -0.388 OA
ATOM     25  H   UNL     1      -5.724   4.330 -23.097  0.00  0.00    +0.210 HD
ENDBRANCH   1  24
TORSDOF 2
ENDMDL
MODEL 2
REMARK VINA RESULT:   -11.581      1.072      6.585
REMARK INTER + INTRA:         -12.596
REMARK INTER:                 -12.664
REMARK INTRA:                   0.068
REMARK UNBOUND:                 0.339
REMARK  Name = CC[C@]1(O)CC[C@H]2[C@@H]3CC(=O)C4=CC(=O)CC[C@]4(C)[C@H]3CC[C@@]21C   ZINC000118913921
REMARK  5 active torsions:
REMARK  status: ('A' for Active; 'I' for Inactive)
REMARK    1  A    between atoms: C_1  and  C_2
REMARK    2  A    between atoms: C_2  and  C_3
REMARK    3  A    between atoms: C_3  and  O_4
REMARK    4  A    between atoms: C_18  and  C_19
REMARK    5  A    between atoms: C_23  and  C_24
REMARK                            x       y       z     vdW  Elec       q    Type
REMARK                         _______ _______ _______ _____ _____    ______ ____
ROOT
ATOM      1  C   UNL     1       2.502   2.178 -23.505  0.00  0.00    +0.071 C 
ATOM      2  C   UNL     1       2.532   2.705 -24.704  0.00  0.00    +0.035 C 
ATOM      3  C   UNL     1       1.316   3.095 -25.004  0.00  0.00    +0.007 C 
ATOM      4  C   UNL     1       0.535   2.809 -23.994  0.00  0.00    +0.002 C 
ATOM      5  C   UNL     1      -0.747   2.992 -23.799  0.00  0.00    +0.004 C 
ATOM      6  C   UNL     1      -1.475   3.561 -24.733  0.00  0.00    +0.083 C 
ATOM      7  C   UNL     1      -2.759   3.745 -24.539  0.00  0.00    +0.160 C 
ATOM      8  C   UNL     1      -3.314   3.363 -23.417  0.00  0.00    +0.004 C 
ATOM      9  C   UNL     1      -4.599   3.547 -23.223  0.00  0.00    +0.053 C 
ATOM     10  C   UNL     1      -5.155   3.164 -22.100  0.00  0.00    +0.157 C 
ATOM     11  C   UNL     1      -4.429   2.595 -21.166  0.00  0.00    +0.080 C 
ATOM     12  C   UNL     1      -3.144   2.412 -21.361  0.00  0.00    +0.019 C 
ATOM     13  O   UNL     1      -6.441   3.349 -21.907  0.00  0.00    -0.293 OA
ATOM     14  C   UNL     1      -2.587   2.794 -22.483  0.00  0.00    -0.000 C 
ATOM     15  C   UNL     1      -1.860   2.226 -21.552  0.00  0.00    +0.016 C 
ATOM     16  O   UNL     1      -3.487   4.313 -25.471  0.00  0.00    -0.292 OA
ATOM     17  C   UNL     1      -1.304   2.609 -22.676  0.00  0.00    +0.003 C 
ATOM     18  C   UNL     1      -0.575   2.041 -21.743  0.00  0.00    +0.005 C 
ATOM     19  C   UNL     1       0.709   1.857 -21.938  0.00  0.00    +0.010 C 
ATOM     20  C   UNL     1       1.264   2.240 -23.061  0.00  0.00    -0.000 C 
ATOM     21  C   UNL     1       2.017   1.685 -22.170  0.00  0.00    +0.014 C 
ENDROOT
BRANCH   1  23
ATOM     22  C   UNL     1       4.623   3.004 -23.633  0.00  0.00    +0.007 C 
ATOM     23  C   UNL     1       3.787   2.012 -23.741  0.00  0.00    +0.032 C 
ENDBRANCH   1  23
BRANCH   1  24
ATOM     24  O   UNL     1       2.805   1.728 -22.640  0.00  0.00    -0.388 OA
ATOM     25  H   UNL     1       3.766   1.821 -22.546  0.00  0.00    +0.210 HD
ENDBRANCH   1  24
TORSDOF 2
ENDMDL
MODEL 3
REMARK VINA RESULT:   -11.234      0.902      1.237
REMARK INTER + INTRA:         -12.208
REMARK INTER:                 -12.432
REMARK INTRA:                   0.224
REMARK UNBOUND:                 0.339
REMARK  Name = CC[C@]1(O)CC[C@H]2[C@@H]3CC(=O)C4=CC(=O)CC[C@]4(C)[C@H]3CC[C@@]21C   ZINC000118913921
REMARK  5 active torsions:
REMARK  status: ('A' for Active; 'I' for Inactive)
REMARK    1  A    between atoms: C_1  and  C_2
REMARK    2  A    between atoms: C_2  and  C_3
REMARK    3  A    between atoms: C_3  and  O_4
REMARK    4  A    between atoms: C_18  and  C_19
REMARK    5  A    between atoms: C_23  and  C_24
REMARK                            x       y       z     vdW  Elec       q    Type
REMARK                         _______ _______ _______ _____ _____    ______ ____
ROOT
ATOM      1  C   UNL     1      -3.852   3.424 -23.163  0.00  0.00    +0.071 C 
ATOM      2  C   UNL     1      -4.148   3.102 -21.928  0.00  0.00    +0.035 C 
ATOM      3  C   UNL     1      -3.048   2.687 -21.345  0.00  0.00    +0.007 C 
ATOM      4  C   UNL     1      -2.075   2.752 -22.217  0.00  0.00    +0.002 C 
ATOM      5  C   UNL     1      -0.803   2.456 -22.133  0.00  0.00    +0.004 C 
ATOM      6  C   UNL     1      -0.311   2.000 -21.003  0.00  0.00    +0.083 C 
ATOM      7  C   UNL     1       0.963   1.702 -20.917  0.00  0.00    +0.160 C 
ATOM      8  C   UNL     1       1.745   1.859 -21.955  0.00  0.00    +0.004 C 
ATOM      9  C   UNL     1       3.020   1.562 -21.869  0.00  0.00    +0.053 C 
ATOM     10  C   UNL     1       3.802   1.719 -22.908  0.00  0.00    +0.157 C 
ATOM     11  C   UNL     1       3.313   2.174 -24.038  0.00  0.00    +0.080 C 
ATOM     12  C   UNL     1       2.038   2.472 -24.123  0.00  0.00    +0.019 C 
ATOM     13  O   UNL     1       5.078   1.421 -22.821  0.00  0.00    -0.293 OA
ATOM     14  C   UNL     1       1.255   2.315 -23.085  0.00  0.00    -0.000 C 
ATOM     15  C   UNL     1       0.764   2.770 -24.212  0.00  0.00    +0.016 C 
ATOM     16  O   UNL     1       1.454   1.247 -19.788  0.00  0.00    -0.292 OA
ATOM     17  C   UNL     1      -0.019   2.613 -23.172  0.00  0.00    +0.003 C 
ATOM     18  C   UNL     1      -0.511   3.068 -24.301  0.00  0.00    +0.005 C 
ATOM     19  C   UNL     1      -1.786   3.365 -24.386  0.00  0.00    +0.010 C 
ATOM     20  C   UNL     1      -2.567   3.208 -23.346  0.00  0.00    -0.000 C 
ATOM     21  C   UNL     1      -3.092   3.659 -24.438  0.00  0.00    +0.014 C 
ENDROOT
BRANCH   1  23
ATOM     22  C   UNL     1      -5.958   3.256 -22.302  0.00  0.00    +0.007 C 
ATOM     23  C   UNL     1      -5.138   3.710 -23.206  0.00  0.00    +0.032 C 
ENDBRANCH   1  23
BRANCH   1  24
ATOM     24  O   UNL     1      -3.951   3.745 -24.127  0.00  0.00    -0.388 OA
ATOM     25  H   UNL     1      -4.470   4.564 -24.145  0.00  0.00    +0.210 HD
ENDBRANCH   1  24
TORSDOF 2
ENDMDL
MODEL 4
REMARK VINA RESULT:   -11.107      1.357      2.853
REMARK INTER + INTRA:         -12.066
REMARK INTER:                 -12.286
REMARK INTRA:                   0.220
REMARK UNBOUND:                 0.339
REMARK  Name = CC[C@]1(O)CC[C@H]2[C@@H]3CC(=O)C4=CC(=O)CC[C@]4(C)[C@H]3CC[C@@]21C   ZINC000118913921
REMARK  5 active torsions:
REMARK  status: ('A' for Active; 'I' for Inactive)
REMARK    1  A    between atoms: C_1  and  C_2
REMARK    2  A    between atoms: C_2  and  C_3
REMARK    3  A    between atoms: C_3  and  O_4
REMARK    4  A    between atoms: C_18  and  C_19
REMARK    5  A    between atoms: C_23  and  C_24
REMARK                            x       y       z     vdW  Elec       q    Type
REMARK                         _______ _______ _______ _____ _____    ______ ____
ROOT
ATOM      1  C   UNL     1      -3.659   3.191 -22.568  0.00  0.00    +0.071 C 
ATOM      2  C   UNL     1      -3.697   3.699 -23.776  0.00  0.00    +0.035 C 
ATOM      3  C   UNL     1      -2.501   3.579 -24.301  0.00  0.00    +0.007 C 
ATOM      4  C   UNL     1      -1.724   2.999 -23.421  0.00  0.00    +0.002 C 
ATOM      5  C   UNL     1      -0.461   2.659 -23.457  0.00  0.00    +0.004 C 
ATOM      6  C   UNL     1       0.251   2.903 -24.535  0.00  0.00    +0.083 C 
ATOM      7  C   UNL     1       1.517   2.563 -24.573  0.00  0.00    +0.160 C 
ATOM      8  C   UNL     1       2.071   1.981 -23.539  0.00  0.00    +0.004 C 
ATOM      9  C   UNL     1       3.337   1.641 -23.576  0.00  0.00    +0.053 C 
ATOM     10  C   UNL     1       3.892   1.059 -22.542  0.00  0.00    +0.157 C 
ATOM     11  C   UNL     1       3.182   0.814 -21.465  0.00  0.00    +0.080 C 
ATOM     12  C   UNL     1       1.916   1.155 -21.429  0.00  0.00    +0.019 C 
ATOM     13  O   UNL     1       5.160   0.718 -22.582  0.00  0.00    -0.293 OA
ATOM     14  C   UNL     1       1.360   1.737 -22.462  0.00  0.00    -0.000 C 
ATOM     15  C   UNL     1       0.650   1.494 -21.387  0.00  0.00    +0.016 C 
ATOM     16  O   UNL     1       2.227   2.806 -25.648  0.00  0.00    -0.292 OA
ATOM     17  C   UNL     1       0.095   2.076 -22.423  0.00  0.00    +0.003 C 
ATOM     18  C   UNL     1      -0.618   1.833 -21.347  0.00  0.00    +0.005 C 
ATOM     19  C   UNL     1      -1.884   2.174 -21.310  0.00  0.00    +0.010 C 
ATOM     20  C   UNL     1      -2.437   2.756 -22.345  0.00  0.00    -0.000 C 
ATOM     21  C   UNL     1      -3.174   2.535 -21.306  0.00  0.00    +0.014 C 
ENDROOT
BRANCH   1  23
ATOM     22  C   UNL     1      -5.554   3.786 -23.689  0.00  0.00    +0.007 C 
ATOM     23  C   UNL     1      -4.927   3.549 -22.573  0.00  0.00    +0.032 C 
ENDBRANCH   1  23
BRANCH   1  24
ATOM     24  O   UNL     1      -3.952   2.890 -21.637  0.00  0.00    -0.388 OA
ATOM     25  H   UNL     1      -4.068   1.927 -21.630  0.00  0.00    +0.210 HD
ENDBRANCH   1  24
TORSDOF 2
ENDMDL
MODEL 5
REMARK VINA RESULT:   -10.894      1.730      2.541
REMARK INTER + INTRA:         -11.829
REMARK INTER:                 -11.925
REMARK INTRA:                   0.096
REMARK UNBOUND:                 0.339
REMARK  Name = CC[C@]1(O)CC[C@H]2[C@@H]3CC(=O)C4=CC(=O)CC[C@]4(C)[C@H]3CC[C@@]21C   ZINC000118913921
REMARK  5 active torsions:
REMARK  status: ('A' for Active; 'I' for Inactive)
REMARK    1  A    between atoms: C_1  and  C_2
REMARK    2  A    between atoms: C_2  and  C_3
REMARK    3  A    between atoms: C_3  and  O_4
REMARK    4  A    between atoms: C_18  and  C_19
REMARK    5  A    between atoms: C_23  and  C_24
REMARK                            x       y       z     vdW  Elec       q    Type
REMARK                         _______ _______ _______ _____ _____    ______ ____
ROOT
ATOM      1  C   UNL     1      -2.480   3.426 -22.871  0.00  0.00    +0.071 C 
ATOM      2  C   UNL     1      -2.736   2.381 -22.123  0.00  0.00    +0.035 C 
ATOM      3  C   UNL     1      -1.590   1.859 -21.754  0.00  0.00    +0.007 C 
ATOM      4  C   UNL     1      -0.628   2.578 -22.272  0.00  0.00    +0.002 C 
ATOM      5  C   UNL     1       0.675   2.476 -22.205  0.00  0.00    +0.004 C 
ATOM      6  C   UNL     1       1.220   1.503 -21.510  0.00  0.00    +0.083 C 
ATOM      7  C   UNL     1       2.525   1.399 -21.441  0.00  0.00    +0.160 C 
ATOM      8  C   UNL     1       3.285   2.265 -22.064  0.00  0.00    +0.004 C 
ATOM      9  C   UNL     1       4.591   2.162 -21.995  0.00  0.00    +0.053 C 
ATOM     10  C   UNL     1       5.352   3.027 -22.618  0.00  0.00    +0.157 C 
ATOM     11  C   UNL     1       4.810   4.001 -23.313  0.00  0.00    +0.080 C 
ATOM     12  C   UNL     1       3.503   4.103 -23.381  0.00  0.00    +0.019 C 
ATOM     13  O   UNL     1       6.659   2.923 -22.549  0.00  0.00    -0.293 OA
ATOM     14  C   UNL     1       2.742   3.238 -22.758  0.00  0.00    -0.000 C 
ATOM     15  C   UNL     1       2.199   4.209 -23.451  0.00  0.00    +0.016 C 
ATOM     16  O   UNL     1       3.068   0.427 -20.748  0.00  0.00    -0.292 OA
ATOM     17  C   UNL     1       1.437   3.342 -22.828  0.00  0.00    +0.003 C 
ATOM     18  C   UNL     1       0.892   4.315 -23.522  0.00  0.00    +0.005 C 
ATOM     19  C   UNL     1      -0.414   4.417 -23.590  0.00  0.00    +0.010 C 
ATOM     20  C   UNL     1      -1.173   3.551 -22.967  0.00  0.00    -0.000 C 
ATOM     21  C   UNL     1      -1.750   4.492 -23.638  0.00  0.00    +0.014 C 
ENDROOT
BRANCH   1  23
ATOM     22  C   UNL     1      -4.509   3.384 -21.830  0.00  0.00    +0.007 C 
ATOM     23  C   UNL     1      -3.796   3.492 -22.914  0.00  0.00    +0.032 C 
ENDBRANCH   1  23
BRANCH   1  24
ATOM     24  O   UNL     1      -2.617   4.249 -23.460  0.00  0.00    -0.388 OA
ATOM     25  H   UNL     1      -3.557   4.334 -23.684  0.00  0.00    +0.210 HD
ENDBRANCH   1  24
TORSDOF 2
ENDMDL
MODEL 6
REMARK VINA RESULT:   -10.540      1.412      6.051
REMARK INTER + INTRA:         -11.433
REMARK INTER:                 -11.485
REMARK INTRA:                   0.052
REMARK UNBOUND:                 0.339
REMARK  Name = CC[C@]1(O)CC[C@H]2[C@@H]3CC(=O)C4=CC(=O)CC[C@]4(C)[C@H]3CC[C@@]21C   ZINC000118913921
REMARK  5 active torsions:
REMARK  status: ('A' for Active; 'I' for Inactive)
REMARK    1  A    between atoms: C_1  and  C_2
REMARK    2  A    between atoms: C_2  and  C_3
REMARK    3  A    between atoms: C_3  and  O_4
REMARK    4  A    between atoms: C_18  and  C_19
REMARK    5  A    between atoms: C_23  and  C_24
REMARK                            x       y       z     vdW  Elec       q    Type
REMARK                         _______ _______ _______ _____ _____    ______ ____
ROOT
ATOM      1  C   UNL     1       2.987   1.699 -22.673  0.00  0.00    +0.071 C 
ATOM      2  C   UNL     1       2.744   1.241 -21.470  0.00  0.00    +0.035 C 
ATOM      3  C   UNL     1       1.466   1.410 -21.225  0.00  0.00    +0.007 C 
ATOM      4  C   UNL     1       0.920   1.971 -22.274  0.00  0.00    +0.002 C 
ATOM      5  C   UNL     1      -0.309   2.342 -22.528  0.00  0.00    +0.004 C 
ATOM      6  C   UNL     1      -1.247   2.160 -21.626  0.00  0.00    +0.083 C 
ATOM      7  C   UNL     1      -2.479   2.531 -21.880  0.00  0.00    +0.160 C 
ATOM      8  C   UNL     1      -2.775   3.082 -23.030  0.00  0.00    +0.004 C 
ATOM      9  C   UNL     1      -4.007   3.453 -23.284  0.00  0.00    +0.053 C 
ATOM     10  C   UNL     1      -4.304   4.004 -24.435  0.00  0.00    +0.157 C 
ATOM     11  C   UNL     1      -3.368   4.187 -25.337  0.00  0.00    +0.080 C 
ATOM     12  C   UNL     1      -2.135   3.816 -25.082  0.00  0.00    +0.019 C 
ATOM     13  O   UNL     1      -5.538   4.375 -24.687  0.00  0.00    -0.293 OA
ATOM     14  C   UNL     1      -1.838   3.264 -23.932  0.00  0.00    -0.000 C 
ATOM     15  C   UNL     1      -0.903   3.446 -24.832  0.00  0.00    +0.016 C 
ATOM     16  O   UNL     1      -3.415   2.349 -20.979  0.00  0.00    -0.292 OA
ATOM     17  C   UNL     1      -0.606   2.894 -23.680  0.00  0.00    +0.003 C 
ATOM     18  C   UNL     1       0.331   3.076 -24.581  0.00  0.00    +0.005 C 
ATOM     19  C   UNL     1       1.563   2.704 -24.326  0.00  0.00    +0.010 C 
ATOM     20  C   UNL     1       1.858   2.153 -23.175  0.00  0.00    -0.000 C 
ATOM     21  C   UNL     1       2.811   2.314 -24.033  0.00  0.00    +0.014 C 
ENDROOT
BRANCH   1  23
ATOM     22  C   UNL     1       4.876   1.871 -21.407  0.00  0.00    +0.007 C 
ATOM     23  C   UNL     1       4.211   1.312 -22.377  0.00  0.00    +0.032 C 
ENDBRANCH   1  23
BRANCH   1  24
ATOM     24  O   UNL     1       3.486   1.954 -23.526  0.00  0.00    -0.388 OA
ATOM     25  H   UNL     1       3.568   1.176 -24.099  0.00  0.00    +0.210 HD
ENDBRANCH   1  24
TORSDOF 2
ENDMDL
MODEL 7
REMARK VINA RESULT:    -9.829      2.156      7.101
REMARK INTER + INTRA:         -10.639
REMARK INTER:                 -10.719
REMARK INTRA:                   0.080
REMARK UNBOUND:                 0.339
REMARK  Name = CC[C@]1(O)CC[C@H]2[C@@H]3CC(=O)C4=CC(=O)CC[C@]4(C)[C@H]3CC[C@@]21C   ZINC000118913921
REMARK  5 active torsions:
REMARK  status: ('A' for Active; 'I' for Inactive)
REMARK    1  A    between atoms: C_1  and  C_2
REMARK    2  A    between atoms: C_2  and  C_3
REMARK    3  A    between atoms: C_3  and  O_4
REMARK    4  A    between atoms: C_18  and  C_19
REMARK    5  A    between atoms: C_23  and  C_24
REMARK                            x       y       z     vdW  Elec       q    Type
REMARK                         _______ _______ _______ _____ _____    ______ ____
ROOT
ATOM      1  C   UNL     1       4.827   2.458 -22.649  0.00  0.00    +0.071 C 
ATOM      2  C   UNL     1       5.032   3.601 -23.256  0.00  0.00    +0.035 C 
ATOM      3  C   UNL     1       3.867   4.178 -23.433  0.00  0.00    +0.007 C 
ATOM      4  C   UNL     1       2.943   3.395 -22.938  0.00  0.00    +0.002 C 
ATOM      5  C   UNL     1       1.642   3.512 -22.865  0.00  0.00    +0.004 C 
ATOM      6  C   UNL     1       1.054   4.581 -23.353  0.00  0.00    +0.083 C 
ATOM      7  C   UNL     1      -0.250   4.701 -23.282  0.00  0.00    +0.160 C 
ATOM      8  C   UNL     1      -0.965   3.757 -22.724  0.00  0.00    +0.004 C 
ATOM      9  C   UNL     1      -2.270   3.876 -22.653  0.00  0.00    +0.053 C 
ATOM     10  C   UNL     1      -2.986   2.931 -22.095  0.00  0.00    +0.157 C 
ATOM     11  C   UNL     1      -2.401   1.862 -21.607  0.00  0.00    +0.080 C 
ATOM     12  C   UNL     1      -1.096   1.744 -21.679  0.00  0.00    +0.019 C 
ATOM     13  O   UNL     1      -4.292   3.052 -22.024  0.00  0.00    -0.293 OA
ATOM     14  C   UNL     1      -0.379   2.688 -22.236  0.00  0.00    -0.000 C 
ATOM     15  C   UNL     1       0.208   1.622 -21.749  0.00  0.00    +0.016 C 
ATOM     16  O   UNL     1      -0.837   5.768 -23.769  0.00  0.00    -0.292 OA
ATOM     17  C   UNL     1       0.925   2.567 -22.307  0.00  0.00    +0.003 C 
ATOM     18  C   UNL     1       1.513   1.500 -21.820  0.00  0.00    +0.005 C 
ATOM     19  C   UNL     1       2.817   1.381 -21.892  0.00  0.00    +0.010 C 
ATOM     20  C   UNL     1       3.532   2.326 -22.450  0.00  0.00    -0.000 C 
ATOM     21  C   UNL     1       4.151   1.293 -21.983  0.00  0.00    +0.014 C 
ENDROOT
BRANCH   1  23
ATOM     22  C   UNL     1       6.901   3.349 -22.328  0.00  0.00    +0.007 C 
ATOM     23  C   UNL     1       6.139   2.378 -22.742  0.00  0.00    +0.032 C 
ENDBRANCH   1  23
BRANCH   1  24
ATOM     24  O   UNL     1       5.002   1.555 -22.204  0.00  0.00    -0.388 OA
ATOM     25  H   UNL     1       4.543   1.521 -21.350  0.00  0.00    +0.210 HD
ENDBRANCH   1  24
TORSDOF 2
ENDMDL
MODEL 8
REMARK VINA RESULT:    -9.420      2.264      6.756
REMARK INTER + INTRA:         -10.182
REMARK INTER:                 -10.335
REMARK INTRA:                   0.153
REMARK UNBOUND:                 0.339
REMARK  Name = CC[C@]1(O)CC[C@H]2[C@@H]3CC(=O)C4=CC(=O)CC[C@]4(C)[C@H]3CC[C@@]21C   ZINC000118913921
REMARK  5 active torsions:
REMARK  status: ('A' for Active; 'I' for Inactive)
REMARK    1  A    between atoms: C_1  and  C_2
REMARK    2  A    between atoms: C_2  and  C_3
REMARK    3  A    between atoms: C_3  and  O_4
REMARK    4  A    between atoms: C_18  and  C_19
REMARK    5  A    between atoms: C_23  and  C_24
REMARK                            x       y       z     vdW  Elec       q    Type
REMARK                         _______ _______ _______ _____ _____    ______ ____
ROOT
ATOM      1  C   UNL     1       4.897   3.932 -22.708  0.00  0.00    +0.071 C 
ATOM      2  C   UNL     1       5.095   2.731 -22.222  0.00  0.00    +0.035 C 
ATOM      3  C   UNL     1       3.926   2.144 -22.109  0.00  0.00    +0.007 C 
ATOM      4  C   UNL     1       3.008   2.979 -22.525  0.00  0.00    +0.002 C 
ATOM      5  C   UNL     1       1.707   2.876 -22.614  0.00  0.00    +0.004 C 
ATOM      6  C   UNL     1       1.112   1.765 -22.241  0.00  0.00    +0.083 C 
ATOM      7  C   UNL     1      -0.192   1.660 -22.330  0.00  0.00    +0.160 C 
ATOM      8  C   UNL     1      -0.901   2.660 -22.789  0.00  0.00    +0.004 C 
ATOM      9  C   UNL     1      -2.206   2.555 -22.878  0.00  0.00    +0.053 C 
ATOM     10  C   UNL     1      -2.916   3.556 -23.337  0.00  0.00    +0.157 C 
ATOM     11  C   UNL     1      -2.323   4.667 -23.710  0.00  0.00    +0.080 C 
ATOM     12  C   UNL     1      -1.018   4.770 -23.621  0.00  0.00    +0.019 C 
ATOM     13  O   UNL     1      -4.221   3.449 -23.426  0.00  0.00    -0.293 OA
ATOM     14  C   UNL     1      -0.308   3.771 -23.162  0.00  0.00    -0.000 C 
ATOM     15  C   UNL     1       0.286   4.879 -23.534  0.00  0.00    +0.016 C 
ATOM     16  O   UNL     1      -0.786   0.551 -21.958  0.00  0.00    -0.292 OA
ATOM     17  C   UNL     1       0.996   3.877 -23.074  0.00  0.00    +0.003 C 
ATOM     18  C   UNL     1       1.591   4.987 -23.446  0.00  0.00    +0.005 C 
ATOM     19  C   UNL     1       2.895   5.091 -23.357  0.00  0.00    +0.010 C 
ATOM     20  C   UNL     1       3.604   4.090 -22.898  0.00  0.00    -0.000 C 
ATOM     21  C   UNL     1       4.229   5.163 -23.253  0.00  0.00    +0.014 C 
ENDROOT
BRANCH   1  23
ATOM     22  C   UNL     1       6.950   2.945 -22.809  0.00  0.00    +0.007 C 
ATOM     23  C   UNL     1       6.209   3.995 -22.602  0.00  0.00    +0.032 C 
ENDBRANCH   1  23
BRANCH   1  24
ATOM     24  O   UNL     1       5.078   4.875 -23.056  0.00  0.00    -0.388 OA
ATOM     25  H   UNL     1       5.766   4.841 -23.739  0.00  0.00    +0.210 HD
ENDBRANCH   1  24
TORSDOF 2
ENDMDL
MODEL 9
REMARK VINA RESULT:    -9.199      2.620      4.215
REMARK INTER + INTRA:          -9.935
REMARK INTER:                 -10.275
REMARK INTRA:                   0.339
REMARK UNBOUND:                 0.339
REMARK  Name = CC[C@]1(O)CC[C@H]2[C@@H]3CC(=O)C4=CC(=O)CC[C@]4(C)[C@H]3CC[C@@]21C   ZINC000118913921
REMARK  5 active torsions:
REMARK  status: ('A' for Active; 'I' for Inactive)
REMARK    1  A    between atoms: C_1  and  C_2
REMARK    2  A    between atoms: C_2  and  C_3
REMARK    3  A    between atoms: C_3  and  O_4
REMARK    4  A    between atoms: C_18  and  C_19
REMARK    5  A    between atoms: C_23  and  C_24
REMARK                            x       y       z     vdW  Elec       q    Type
REMARK                         _______ _______ _______ _____ _____    ______ ____
ROOT
ATOM      1  C   UNL     1      -0.769   2.772 -22.541  0.00  0.00    +0.071 C 
ATOM      2  C   UNL     1      -0.749   1.552 -22.065  0.00  0.00    +0.035 C 
ATOM      3  C   UNL     1       0.505   1.196 -21.920  0.00  0.00    +0.007 C 
ATOM      4  C   UNL     1       1.260   2.193 -22.305  0.00  0.00    +0.002 C 
ATOM      5  C   UNL     1       2.560   2.339 -22.355  0.00  0.00    +0.004 C 
ATOM      6  C   UNL     1       3.343   1.358 -21.968  0.00  0.00    +0.083 C 
ATOM      7  C   UNL     1       4.646   1.502 -22.018  0.00  0.00    +0.160 C 
ATOM      8  C   UNL     1       5.165   2.622 -22.452  0.00  0.00    +0.004 C 
ATOM      9  C   UNL     1       6.468   2.767 -22.502  0.00  0.00    +0.053 C 
ATOM     10  C   UNL     1       6.988   3.888 -22.937  0.00  0.00    +0.157 C 
ATOM     11  C   UNL     1       6.207   4.870 -23.324  0.00  0.00    +0.080 C 
ATOM     12  C   UNL     1       4.904   4.724 -23.274  0.00  0.00    +0.019 C 
ATOM     13  O   UNL     1       8.292   4.032 -22.986  0.00  0.00    -0.293 OA
ATOM     14  C   UNL     1       4.383   3.604 -22.839  0.00  0.00    -0.000 C 
ATOM     15  C   UNL     1       3.601   4.583 -23.226  0.00  0.00    +0.016 C 
ATOM     16  O   UNL     1       5.428   0.522 -21.631  0.00  0.00    -0.292 OA
ATOM     17  C   UNL     1       3.081   3.460 -22.790  0.00  0.00    +0.003 C 
ATOM     18  C   UNL     1       2.297   4.441 -23.177  0.00  0.00    +0.005 C 
ATOM     19  C   UNL     1       0.995   4.295 -23.126  0.00  0.00    +0.010 C 
ATOM     20  C   UNL     1       0.476   3.174 -22.692  0.00  0.00    -0.000 C 
ATOM     21  C   UNL     1      -0.331   4.112 -23.062  0.00  0.00    +0.014 C 
ENDROOT
BRANCH   1  23
ATOM     22  C   UNL     1      -2.801   3.237 -21.616  0.00  0.00    +0.007 C 
ATOM     23  C   UNL     1      -2.071   2.585 -22.475  0.00  0.00    +0.032 C 
ENDBRANCH   1  23
BRANCH   1  24
ATOM     24  O   UNL     1      -1.115   3.667 -22.892  0.00  0.00    -0.388 OA
ATOM     25  H   UNL     1      -0.365   4.231 -23.138  0.00  0.00    +0.210 HD
ENDBRANCH   1  24
TORSDOF 2
ENDMDL
