MODEL 1
REMARK VINA RESULT:    -7.625      0.000      0.000
REMARK INTER + INTRA:          -7.848
REMARK INTER:                  -7.848
REMARK INTRA:                   0.000
REMARK UNBOUND:                 0.000
REMARK  Name = ZINC000000338213
REMARK  3 active torsions:
REMARK  status: ('A' for Active; 'I' for Inactive)
REMARK    1  A    between atoms: C_1  and  C_2
REMARK    2  A    between atoms: C_2  and  C_3
REMARK    3  A    between atoms: C_8  and  O_9
REMARK                            x       y       z     vdW  Elec       q    Type
REMARK                         _______ _______ _______ _____ _____    ______ ____
ROOT
ATOM      1  C   UNL     1      -3.961   3.325 -20.453  0.00  0.00    +0.055 C 
ATOM      2  C   UNL     1      -3.394   3.313 -21.623  0.00  0.00    +0.105 C 
ATOM      3  C   UNL     1      -4.633   3.484 -21.975  0.00  0.00    +0.052 C 
ATOM      4  C   UNL     1      -4.944   3.586 -23.233  0.00  0.00    +0.043 C 
ATOM      5  C   UNL     1      -4.014   3.516 -24.139  0.00  0.00    -0.002 A 
ATOM      6  C   UNL     1      -4.324   3.617 -25.398  0.00  0.00    +0.052 A 
ATOM      7  C   UNL     1      -3.395   3.547 -26.304  0.00  0.00    +0.117 A 
ATOM      8  C   UNL     1      -2.155   3.375 -25.952  0.00  0.00    +0.049 A 
ATOM      9  C   UNL     1      -1.845   3.274 -24.694  0.00  0.00    +0.049 A 
ATOM     10  C   UNL     1      -2.775   3.344 -23.787  0.00  0.00    +0.125 A 
ATOM     11  C   UNL     1      -2.352   3.146 -20.864  0.00  0.00    +0.055 C 
ATOM     12  O   UNL     1      -2.464   3.243 -22.529  0.00  0.00    -0.486 OA
ENDROOT
BRANCH   7  13
ATOM     13  O   UNL     1      -3.705   3.648 -27.562  0.00  0.00    -0.507 OA
ATOM     14  H   UNL     1      -3.962   4.477 -27.916  0.00  0.00    +0.292 HD
ENDBRANCH   7  13
TORSDOF 1
ENDMDL
MODEL 2
REMARK VINA RESULT:    -7.555      1.617      2.236
REMARK INTER + INTRA:          -7.775
REMARK INTER:                  -7.775
REMARK INTRA:                   0.000
REMARK UNBOUND:                 0.000
REMARK  Name = ZINC000000338213
REMARK  3 active torsions:
REMARK  status: ('A' for Active; 'I' for Inactive)
REMARK    1  A    between atoms: C_1  and  C_2
REMARK    2  A    between atoms: C_2  and  C_3
REMARK    3  A    between atoms: C_8  and  O_9
REMARK                            x       y       z     vdW  Elec       q    Type
REMARK                         _______ _______ _______ _____ _____    ______ ____
ROOT
ATOM      1  C   UNL     1      -5.758   3.259 -22.136  0.00  0.00    +0.055 C 
ATOM      2  C   UNL     1      -4.496   3.087 -22.396  0.00  0.00    +0.105 C 
ATOM      3  C   UNL     1      -4.875   3.671 -23.493  0.00  0.00    +0.052 C 
ATOM      4  C   UNL     1      -4.013   3.902 -24.438  0.00  0.00    +0.043 C 
ATOM      5  C   UNL     1      -2.772   3.548 -24.285  0.00  0.00    -0.002 A 
ATOM      6  C   UNL     1      -1.909   3.778 -25.230  0.00  0.00    +0.052 A 
ATOM      7  C   UNL     1      -0.667   3.424 -25.077  0.00  0.00    +0.117 A 
ATOM      8  C   UNL     1      -0.288   2.840 -23.980  0.00  0.00    +0.049 A 
ATOM      9  C   UNL     1      -1.150   2.610 -23.035  0.00  0.00    +0.049 A 
ATOM     10  C   UNL     1      -2.393   2.964 -23.188  0.00  0.00    +0.125 A 
ATOM     11  C   UNL     1      -4.556   2.562 -21.208  0.00  0.00    +0.055 C 
ATOM     12  O   UNL     1      -3.255   2.733 -22.243  0.00  0.00    -0.486 OA
ENDROOT
BRANCH   7  13
ATOM     13  O   UNL     1       0.195   3.655 -26.022  0.00  0.00    -0.507 OA
ATOM     14  H   UNL     1       0.505   2.950 -26.556  0.00  0.00    +0.292 HD
ENDBRANCH   7  13
TORSDOF 1
ENDMDL
MODEL 3
REMARK VINA RESULT:    -7.514      1.878      3.629
REMARK INTER + INTRA:          -7.734
REMARK INTER:                  -7.734
REMARK INTRA:                   0.000
REMARK UNBOUND:                 0.000
REMARK  Name = ZINC000000338213
REMARK  3 active torsions:
REMARK  status: ('A' for Active; 'I' for Inactive)
REMARK    1  A    between atoms: C_1  and  C_2
REMARK    2  A    between atoms: C_2  and  C_3
REMARK    3  A    between atoms: C_8  and  O_9
REMARK                            x       y       z     vdW  Elec       q    Type
REMARK                         _______ _______ _______ _____ _____    ______ ____
ROOT
ATOM      1  C   UNL     1      -5.840   3.339 -22.169  0.00  0.00    +0.055 C 
ATOM      2  C   UNL     1      -4.630   3.264 -22.637  0.00  0.00    +0.105 C 
ATOM      3  C   UNL     1      -4.447   2.755 -21.455  0.00  0.00    +0.052 C 
ATOM      4  C   UNL     1      -3.263   2.358 -21.095  0.00  0.00    +0.043 C 
ATOM      5  C   UNL     1      -2.263   2.469 -21.917  0.00  0.00    -0.002 A 
ATOM      6  C   UNL     1      -1.078   2.071 -21.557  0.00  0.00    +0.052 A 
ATOM      7  C   UNL     1      -0.077   2.182 -22.379  0.00  0.00    +0.117 A 
ATOM      8  C   UNL     1      -0.260   2.691 -23.561  0.00  0.00    +0.049 A 
ATOM      9  C   UNL     1      -1.444   3.089 -23.921  0.00  0.00    +0.049 A 
ATOM     10  C   UNL     1      -2.446   2.978 -23.099  0.00  0.00    +0.125 A 
ATOM     11  C   UNL     1      -5.234   3.799 -23.656  0.00  0.00    +0.055 C 
ATOM     12  O   UNL     1      -3.629   3.376 -23.459  0.00  0.00    -0.486 OA
ENDROOT
BRANCH   7  13
ATOM     13  O   UNL     1       1.106   1.784 -22.019  0.00  0.00    -0.507 OA
ATOM     14  H   UNL     1       1.623   2.311 -21.441  0.00  0.00    +0.292 HD
ENDBRANCH   7  13
TORSDOF 1
ENDMDL
MODEL 4
REMARK VINA RESULT:    -7.413      2.073      3.704
REMARK INTER + INTRA:          -7.630
REMARK INTER:                  -7.630
REMARK INTRA:                   0.000
REMARK UNBOUND:                 0.000
REMARK  Name = ZINC000000338213
REMARK  3 active torsions:
REMARK  status: ('A' for Active; 'I' for Inactive)
REMARK    1  A    between atoms: C_1  and  C_2
REMARK    2  A    between atoms: C_2  and  C_3
REMARK    3  A    between atoms: C_8  and  O_9
REMARK                            x       y       z     vdW  Elec       q    Type
REMARK                         _______ _______ _______ _____ _____    ______ ____
ROOT
ATOM      1  C   UNL     1       0.821   1.868 -22.452  0.00  0.00    +0.055 C 
ATOM      2  C   UNL     1      -0.414   2.045 -22.087  0.00  0.00    +0.105 C 
ATOM      3  C   UNL     1      -0.464   2.523 -23.295  0.00  0.00    +0.052 C 
ATOM      4  C   UNL     1      -1.583   2.990 -23.763  0.00  0.00    +0.043 C 
ATOM      5  C   UNL     1      -2.652   2.979 -23.023  0.00  0.00    -0.002 A 
ATOM      6  C   UNL     1      -3.772   3.447 -23.491  0.00  0.00    +0.052 A 
ATOM      7  C   UNL     1      -4.840   3.436 -22.751  0.00  0.00    +0.117 A 
ATOM      8  C   UNL     1      -4.790   2.958 -21.543  0.00  0.00    +0.049 A 
ATOM      9  C   UNL     1      -3.671   2.491 -21.075  0.00  0.00    +0.049 A 
ATOM     10  C   UNL     1      -2.601   2.502 -21.815  0.00  0.00    +0.125 A 
ATOM     11  C   UNL     1       0.066   1.506 -21.006  0.00  0.00    +0.055 C 
ATOM     12  O   UNL     1      -1.483   2.034 -21.347  0.00  0.00    -0.486 OA
ENDROOT
BRANCH   7  13
ATOM     13  O   UNL     1      -5.959   3.903 -23.219  0.00  0.00    -0.507 OA
ATOM     14  H   UNL     1      -6.037   4.814 -23.424  0.00  0.00    +0.292 HD
ENDBRANCH   7  13
TORSDOF 1
ENDMDL
MODEL 5
REMARK VINA RESULT:    -7.337      1.926      3.672
REMARK INTER + INTRA:          -7.552
REMARK INTER:                  -7.552
REMARK INTRA:                   0.000
REMARK UNBOUND:                 0.000
REMARK  Name = ZINC000000338213
REMARK  3 active torsions:
REMARK  status: ('A' for Active; 'I' for Inactive)
REMARK    1  A    between atoms: C_1  and  C_2
REMARK    2  A    between atoms: C_2  and  C_3
REMARK    3  A    between atoms: C_8  and  O_9
REMARK                            x       y       z     vdW  Elec       q    Type
REMARK                         _______ _______ _______ _____ _____    ______ ____
ROOT
ATOM      1  C   UNL     1       0.646   2.120 -22.504  0.00  0.00    +0.055 C 
ATOM      2  C   UNL     1      -0.508   2.532 -22.938  0.00  0.00    +0.105 C 
ATOM      3  C   UNL     1      -0.836   2.170 -21.734  0.00  0.00    +0.052 C 
ATOM      4  C   UNL     1      -2.065   2.295 -21.329  0.00  0.00    +0.043 C 
ATOM      5  C   UNL     1      -2.966   2.783 -22.130  0.00  0.00    -0.002 A 
ATOM      6  C   UNL     1      -4.195   2.908 -21.726  0.00  0.00    +0.052 A 
ATOM      7  C   UNL     1      -5.096   3.396 -22.526  0.00  0.00    +0.117 A 
ATOM      8  C   UNL     1      -4.768   3.758 -23.731  0.00  0.00    +0.049 A 
ATOM      9  C   UNL     1      -3.539   3.633 -24.135  0.00  0.00    +0.049 A 
ATOM     10  C   UNL     1      -2.637   3.145 -23.334  0.00  0.00    +0.125 A 
ATOM     11  C   UNL     1       0.221   2.751 -23.992  0.00  0.00    +0.055 C 
ATOM     12  O   UNL     1      -1.409   3.019 -23.739  0.00  0.00    -0.486 OA
ENDROOT
BRANCH   7  13
ATOM     13  O   UNL     1      -6.325   3.521 -22.122  0.00  0.00    -0.507 OA
ATOM     14  H   UNL     1      -7.032   3.312 -22.700  0.00  0.00    +0.292 HD
ENDBRANCH   7  13
TORSDOF 1
ENDMDL
MODEL 6
REMARK VINA RESULT:    -7.333      1.785      3.844
REMARK INTER + INTRA:          -7.547
REMARK INTER:                  -7.547
REMARK INTRA:                   0.000
REMARK UNBOUND:                 0.000
REMARK  Name = ZINC000000338213
REMARK  3 active torsions:
REMARK  status: ('A' for Active; 'I' for Inactive)
REMARK    1  A    between atoms: C_1  and  C_2
REMARK    2  A    between atoms: C_2  and  C_3
REMARK    3  A    between atoms: C_8  and  O_9
REMARK                            x       y       z     vdW  Elec       q    Type
REMARK                         _______ _______ _______ _____ _____    ______ ____
ROOT
ATOM      1  C   UNL     1       0.080   3.386 -25.060  0.00  0.00    +0.055 C 
ATOM      2  C   UNL     1      -0.800   3.163 -24.130  0.00  0.00    +0.105 C 
ATOM      3  C   UNL     1      -1.556   3.724 -25.027  0.00  0.00    +0.052 C 
ATOM      4  C   UNL     1      -2.823   3.894 -24.795  0.00  0.00    +0.043 C 
ATOM      5  C   UNL     1      -3.335   3.503 -23.666  0.00  0.00    -0.002 A 
ATOM      6  C   UNL     1      -4.603   3.673 -23.433  0.00  0.00    +0.052 A 
ATOM      7  C   UNL     1      -5.115   3.282 -22.304  0.00  0.00    +0.117 A 
ATOM      8  C   UNL     1      -4.359   2.721 -21.407  0.00  0.00    +0.049 A 
ATOM      9  C   UNL     1      -3.092   2.551 -21.639  0.00  0.00    +0.049 A 
ATOM     10  C   UNL     1      -2.579   2.942 -22.769  0.00  0.00    +0.125 A 
ATOM     11  C   UNL     1       0.261   2.679 -23.556  0.00  0.00    +0.055 C 
ATOM     12  O   UNL     1      -1.312   2.772 -23.001  0.00  0.00    -0.486 OA
ENDROOT
BRANCH   7  13
ATOM     13  O   UNL     1      -6.382   3.453 -22.072  0.00  0.00    -0.507 OA
ATOM     14  H   UNL     1      -6.702   3.453 -21.191  0.00  0.00    +0.292 HD
ENDBRANCH   7  13
TORSDOF 1
ENDMDL
MODEL 7
REMARK VINA RESULT:    -7.219      1.535      2.460
REMARK INTER + INTRA:          -7.430
REMARK INTER:                  -7.430
REMARK INTRA:                   0.000
REMARK UNBOUND:                 0.000
REMARK  Name = ZINC000000338213
REMARK  3 active torsions:
REMARK  status: ('A' for Active; 'I' for Inactive)
REMARK    1  A    between atoms: C_1  and  C_2
REMARK    2  A    between atoms: C_2  and  C_3
REMARK    3  A    between atoms: C_8  and  O_9
REMARK                            x       y       z     vdW  Elec       q    Type
REMARK                         _______ _______ _______ _____ _____    ______ ____
ROOT
ATOM      1  C   UNL     1      -4.165   2.869 -20.426  0.00  0.00    +0.055 C 
ATOM      2  C   UNL     1      -3.849   3.005 -21.679  0.00  0.00    +0.105 C 
ATOM      3  C   UNL     1      -2.662   2.953 -21.151  0.00  0.00    +0.052 C 
ATOM      4  C   UNL     1      -1.610   3.039 -21.909  0.00  0.00    +0.043 C 
ATOM      5  C   UNL     1      -1.744   3.177 -23.195  0.00  0.00    -0.002 A 
ATOM      6  C   UNL     1      -0.691   3.263 -23.953  0.00  0.00    +0.052 A 
ATOM      7  C   UNL     1      -0.826   3.401 -25.239  0.00  0.00    +0.117 A 
ATOM      8  C   UNL     1      -2.013   3.453 -25.766  0.00  0.00    +0.049 A 
ATOM      9  C   UNL     1      -3.065   3.367 -25.009  0.00  0.00    +0.049 A 
ATOM     10  C   UNL     1      -2.931   3.229 -23.722  0.00  0.00    +0.125 A 
ATOM     11  C   UNL     1      -5.146   3.009 -21.771  0.00  0.00    +0.055 C 
ATOM     12  O   UNL     1      -3.983   3.143 -22.965  0.00  0.00    -0.486 OA
ENDROOT
BRANCH   7  13
ATOM     13  O   UNL     1       0.227   3.486 -25.996  0.00  0.00    -0.507 OA
ATOM     14  H   UNL     1       0.874   4.143 -25.827  0.00  0.00    +0.292 HD
ENDBRANCH   7  13
TORSDOF 1
ENDMDL
MODEL 8
REMARK VINA RESULT:    -7.198      1.837      4.013
REMARK INTER + INTRA:          -7.408
REMARK INTER:                  -7.408
REMARK INTRA:                   0.000
REMARK UNBOUND:                 0.000
REMARK  Name = ZINC000000338213
REMARK  3 active torsions:
REMARK  status: ('A' for Active; 'I' for Inactive)
REMARK    1  A    between atoms: C_1  and  C_2
REMARK    2  A    between atoms: C_2  and  C_3
REMARK    3  A    between atoms: C_8  and  O_9
REMARK                            x       y       z     vdW  Elec       q    Type
REMARK                         _______ _______ _______ _____ _____    ______ ____
ROOT
ATOM      1  C   UNL     1      -4.882   4.350 -24.744  0.00  0.00    +0.055 C 
ATOM      2  C   UNL     1      -4.081   3.758 -23.909  0.00  0.00    +0.105 C 
ATOM      3  C   UNL     1      -3.245   4.040 -24.864  0.00  0.00    +0.052 C 
ATOM      4  C   UNL     1      -1.994   3.703 -24.754  0.00  0.00    +0.043 C 
ATOM      5  C   UNL     1      -1.580   3.085 -23.688  0.00  0.00    -0.002 A 
ATOM      6  C   UNL     1      -0.328   2.749 -23.577  0.00  0.00    +0.052 A 
ATOM      7  C   UNL     1       0.086   2.131 -22.511  0.00  0.00    +0.117 A 
ATOM      8  C   UNL     1      -0.750   1.849 -21.556  0.00  0.00    +0.049 A 
ATOM      9  C   UNL     1      -2.000   2.186 -21.667  0.00  0.00    +0.049 A 
ATOM     10  C   UNL     1      -2.415   2.804 -22.733  0.00  0.00    +0.125 A 
ATOM     11  C   UNL     1      -5.195   3.682 -23.245  0.00  0.00    +0.055 C 
ATOM     12  O   UNL     1      -3.666   3.140 -22.844  0.00  0.00    -0.486 OA
ENDROOT
BRANCH   7  13
ATOM     13  O   UNL     1       1.337   1.794 -22.400  0.00  0.00    -0.507 OA
ATOM     14  H   UNL     1       1.964   2.417 -22.089  0.00  0.00    +0.292 HD
ENDBRANCH   7  13
TORSDOF 1
ENDMDL
MODEL 9
REMARK VINA RESULT:    -7.115      1.669      2.297
REMARK INTER + INTRA:          -7.323
REMARK INTER:                  -7.323
REMARK INTRA:                   0.000
REMARK UNBOUND:                 0.000
REMARK  Name = ZINC000000338213
REMARK  3 active torsions:
REMARK  status: ('A' for Active; 'I' for Inactive)
REMARK    1  A    between atoms: C_1  and  C_2
REMARK    2  A    between atoms: C_2  and  C_3
REMARK    3  A    between atoms: C_8  and  O_9
REMARK                            x       y       z     vdW  Elec       q    Type
REMARK                         _______ _______ _______ _____ _____    ______ ____
ROOT
ATOM      1  C   UNL     1      -0.381   1.808 -21.110  0.00  0.00    +0.055 C 
ATOM      2  C   UNL     1      -0.799   2.213 -22.273  0.00  0.00    +0.105 C 
ATOM      3  C   UNL     1      -1.878   2.392 -21.569  0.00  0.00    +0.052 C 
ATOM      4  C   UNL     1      -2.950   2.864 -22.132  0.00  0.00    +0.043 C 
ATOM      5  C   UNL     1      -2.943   3.158 -23.399  0.00  0.00    -0.002 A 
ATOM      6  C   UNL     1      -4.015   3.630 -23.963  0.00  0.00    +0.052 A 
ATOM      7  C   UNL     1      -4.008   3.923 -25.229  0.00  0.00    +0.117 A 
ATOM      8  C   UNL     1      -2.930   3.744 -25.932  0.00  0.00    +0.049 A 
ATOM      9  C   UNL     1      -1.858   3.272 -25.369  0.00  0.00    +0.049 A 
ATOM     10  C   UNL     1      -1.864   2.978 -24.102  0.00  0.00    +0.125 A 
ATOM     11  C   UNL     1       0.425   1.893 -22.571  0.00  0.00    +0.055 C 
ATOM     12  O   UNL     1      -0.792   2.506 -23.539  0.00  0.00    -0.486 OA
ENDROOT
BRANCH   7  13
ATOM     13  O   UNL     1      -5.080   4.396 -25.792  0.00  0.00    -0.507 OA
ATOM     14  H   UNL     1      -5.120   4.485 -26.724  0.00  0.00    +0.292 HD
ENDBRANCH   7  13
TORSDOF 1
ENDMDL
