MODEL 1
REMARK VINA RESULT:   -10.754      0.000      0.000
REMARK INTER + INTRA:         -11.068
REMARK INTER:                 -11.068
REMARK INTRA:                   0.000
REMARK UNBOUND:                 0.000
REMARK  Name = CN1CC[C@@]23CC(=O)CC[C@H]2[C@H]1Cc1ccc(O)cc13                        ZINC000169369172
REMARK  2 active torsions:
REMARK  status: ('A' for Active; 'I' for Inactive)
REMARK    1  A    between atoms: C_1  and  N_2
REMARK    2  A    between atoms: C_17  and  O_18
REMARK                            x       y       z     vdW  Elec       q    Type
REMARK                         _______ _______ _______ _____ _____    ______ ____
ROOT
ATOM      1  C   UNL     1      -3.683   3.011 -20.266  0.00  0.00    +0.190 C 
ATOM      2  N   UNL     1      -3.473   3.100 -21.762  0.00  0.00    +0.236 N 
ATOM      3  H   UNL     1      -4.192   3.403 -22.420  0.00  0.00    +0.203 HD
ATOM      4  C   UNL     1      -3.360   3.187 -22.936  0.00  0.00    +0.132 C 
ATOM      5  C   UNL     1      -2.374   2.937 -23.599  0.00  0.00    +0.063 C 
ATOM      6  C   UNL     1      -1.579   2.633 -23.166  0.00  0.00    +0.015 C 
ATOM      7  C   UNL     1      -0.499   2.345 -23.757  0.00  0.00    +0.086 C 
ATOM      8  C   UNL     1       0.536   1.937 -23.071  0.00  0.00    +0.134 C 
ATOM      9  C   UNL     1       0.469   1.820 -21.754  0.00  0.00    +0.075 C 
ATOM     10  C   UNL     1      -0.626   2.107 -21.101  0.00  0.00    +0.017 C 
ATOM     11  O   UNL     1       1.621   1.654 -23.721  0.00  0.00    -0.297 OA
ATOM     12  C   UNL     1      -3.063   3.182 -23.808  0.00  0.00    -0.033 A 
ATOM     13  C   UNL     1      -3.006   3.299 -25.089  0.00  0.00    +0.050 A 
ATOM     14  C   UNL     1      -4.027   3.699 -25.741  0.00  0.00    +0.117 A 
ATOM     15  C   UNL     1      -5.119   3.988 -25.119  0.00  0.00    +0.046 A 
ATOM     16  C   UNL     1      -5.182   3.872 -23.828  0.00  0.00    +0.007 A 
ATOM     17  C   UNL     1      -4.161   3.472 -23.173  0.00  0.00    -0.038 A 
ATOM     18  C   UNL     1      -4.179   3.352 -21.981  0.00  0.00    +0.090 C 
ATOM     19  C   UNL     1      -1.655   2.508 -21.738  0.00  0.00    +0.049 C 
ATOM     20  C   UNL     1      -2.845   2.839 -21.218  0.00  0.00    +0.072 C 
ENDROOT
BRANCH  14  21
ATOM     21  O   UNL     1      -3.805   3.768 -27.082  0.00  0.00    -0.507 OA
ATOM     22  H   UNL     1      -4.434   4.180 -27.640  0.00  0.00    +0.292 HD
ENDBRANCH  14  21
TORSDOF 1
ENDMDL
MODEL 2
REMARK VINA RESULT:   -10.731      2.337      3.622
REMARK INTER + INTRA:         -11.045
REMARK INTER:                 -11.045
REMARK INTRA:                   0.000
REMARK UNBOUND:                 0.000
REMARK  Name = CN1CC[C@@]23CC(=O)CC[C@H]2[C@H]1Cc1ccc(O)cc13                        ZINC000169369172
REMARK  2 active torsions:
REMARK  status: ('A' for Active; 'I' for Inactive)
REMARK    1  A    between atoms: C_1  and  N_2
REMARK    2  A    between atoms: C_17  and  O_18
REMARK                            x       y       z     vdW  Elec       q    Type
REMARK                         _______ _______ _______ _____ _____    ______ ____
ROOT
ATOM      1  C   UNL     1      -2.988   3.377 -26.339  0.00  0.00    +0.190 C 
ATOM      2  N   UNL     1      -2.792   3.512 -24.845  0.00  0.00    +0.236 N 
ATOM      3  H   UNL     1      -3.552   3.465 -24.164  0.00  0.00    +0.203 HD
ATOM      4  C   UNL     1      -2.692   3.612 -23.671  0.00  0.00    +0.132 C 
ATOM      5  C   UNL     1      -1.674   3.790 -23.034  0.00  0.00    +0.063 C 
ATOM      6  C   UNL     1      -0.839   3.863 -23.490  0.00  0.00    +0.015 C 
ATOM      7  C   UNL     1       0.279   4.048 -22.927  0.00  0.00    +0.086 C 
ATOM      8  C   UNL     1       1.368   4.135 -23.645  0.00  0.00    +0.134 C 
ATOM      9  C   UNL     1       1.319   4.031 -24.963  0.00  0.00    +0.075 C 
ATOM     10  C   UNL     1       0.186   3.840 -25.588  0.00  0.00    +0.017 C 
ATOM     11  O   UNL     1       2.490   4.324 -23.023  0.00  0.00    -0.297 OA
ATOM     12  C   UNL     1      -2.395   3.714 -22.804  0.00  0.00    -0.033 A 
ATOM     13  C   UNL     1      -2.354   3.814 -21.522  0.00  0.00    +0.050 A 
ATOM     14  C   UNL     1      -3.429   3.727 -20.839  0.00  0.00    +0.117 A 
ATOM     15  C   UNL     1      -4.558   3.538 -21.432  0.00  0.00    +0.046 A 
ATOM     16  C   UNL     1      -4.605   3.436 -22.725  0.00  0.00    +0.007 A 
ATOM     17  C   UNL     1      -3.530   3.524 -23.411  0.00  0.00    -0.038 A 
ATOM     18  C   UNL     1      -3.532   3.435 -24.605  0.00  0.00    +0.090 C 
ATOM     19  C   UNL     1      -0.896   3.750 -24.920  0.00  0.00    +0.049 C 
ATOM     20  C   UNL     1      -2.129   3.556 -25.408  0.00  0.00    +0.072 C 
ENDROOT
BRANCH  14  21
ATOM     21  O   UNL     1      -3.217   3.853 -19.500  0.00  0.00    -0.507 OA
ATOM     22  H   UNL     1      -2.344   3.828 -19.160  0.00  0.00    +0.292 HD
ENDBRANCH  14  21
TORSDOF 1
ENDMDL
MODEL 3
REMARK VINA RESULT:   -10.407      2.279      4.503
REMARK INTER + INTRA:         -10.711
REMARK INTER:                 -10.711
REMARK INTRA:                   0.000
REMARK UNBOUND:                 0.000
REMARK  Name = CN1CC[C@@]23CC(=O)CC[C@H]2[C@H]1Cc1ccc(O)cc13                        ZINC000169369172
REMARK  2 active torsions:
REMARK  status: ('A' for Active; 'I' for Inactive)
REMARK    1  A    between atoms: C_1  and  N_2
REMARK    2  A    between atoms: C_17  and  O_18
REMARK                            x       y       z     vdW  Elec       q    Type
REMARK                         _______ _______ _______ _____ _____    ______ ____
ROOT
ATOM      1  C   UNL     1      -3.863   3.252 -25.935  0.00  0.00    +0.190 C 
ATOM      2  N   UNL     1      -2.609   3.459 -25.113  0.00  0.00    +0.236 N 
ATOM      3  H   UNL     1      -1.675   3.550 -25.514  0.00  0.00    +0.203 HD
ATOM      4  C   UNL     1      -1.601   3.621 -24.517  0.00  0.00    +0.132 C 
ATOM      5  C   UNL     1      -1.467   3.713 -23.315  0.00  0.00    +0.063 C 
ATOM      6  C   UNL     1      -2.233   3.654 -22.748  0.00  0.00    +0.015 C 
ATOM      7  C   UNL     1      -2.208   3.736 -21.487  0.00  0.00    +0.086 C 
ATOM      8  C   UNL     1      -3.317   3.642 -20.801  0.00  0.00    +0.134 C 
ATOM      9  C   UNL     1      -4.476   3.460 -21.413  0.00  0.00    +0.075 C 
ATOM     10  C   UNL     1      -4.550   3.369 -22.715  0.00  0.00    +0.017 C 
ATOM     11  O   UNL     1      -3.241   3.732 -19.510  0.00  0.00    -0.297 OA
ATOM     12  C   UNL     1      -0.953   3.742 -23.873  0.00  0.00    -0.033 A 
ATOM     13  C   UNL     1       0.178   3.919 -23.285  0.00  0.00    +0.050 A 
ATOM     14  C   UNL     1       1.250   4.009 -23.972  0.00  0.00    +0.117 A 
ATOM     15  C   UNL     1       1.203   3.922 -25.258  0.00  0.00    +0.046 A 
ATOM     16  C   UNL     1       0.065   3.744 -25.857  0.00  0.00    +0.007 A 
ATOM     17  C   UNL     1      -1.009   3.654 -25.171  0.00  0.00    -0.038 A 
ATOM     18  C   UNL     1      -2.078   3.489 -25.686  0.00  0.00    +0.090 C 
ATOM     19  C   UNL     1      -3.488   3.457 -23.415  0.00  0.00    +0.049 C 
ATOM     20  C   UNL     1      -3.398   3.384 -24.751  0.00  0.00    +0.072 C 
ENDROOT
BRANCH  14  21
ATOM     21  O   UNL     1       2.358   4.194 -23.203  0.00  0.00    -0.507 OA
ATOM     22  H   UNL     1       3.209   4.163 -23.594  0.00  0.00    +0.292 HD
ENDBRANCH  14  21
TORSDOF 1
ENDMDL
MODEL 4
REMARK VINA RESULT:   -10.380      0.561      4.267
REMARK INTER + INTRA:         -10.683
REMARK INTER:                 -10.683
REMARK INTRA:                   0.000
REMARK UNBOUND:                 0.000
REMARK  Name = CN1CC[C@@]23CC(=O)CC[C@H]2[C@H]1Cc1ccc(O)cc13                        ZINC000169369172
REMARK  2 active torsions:
REMARK  status: ('A' for Active; 'I' for Inactive)
REMARK    1  A    between atoms: C_1  and  N_2
REMARK    2  A    between atoms: C_17  and  O_18
REMARK                            x       y       z     vdW  Elec       q    Type
REMARK                         _______ _______ _______ _____ _____    ______ ____
ROOT
ATOM      1  C   UNL     1      -4.169   3.134 -20.996  0.00  0.00    +0.190 C 
ATOM      2  N   UNL     1      -2.928   2.845 -21.813  0.00  0.00    +0.236 N 
ATOM      3  H   UNL     1      -2.051   2.506 -21.415  0.00  0.00    +0.203 HD
ATOM      4  C   UNL     1      -1.933   2.604 -22.405  0.00  0.00    +0.132 C 
ATOM      5  C   UNL     1      -1.748   2.709 -23.600  0.00  0.00    +0.063 C 
ATOM      6  C   UNL     1      -2.455   3.016 -24.162  0.00  0.00    +0.015 C 
ATOM      7  C   UNL     1      -2.371   3.163 -25.415  0.00  0.00    +0.086 C 
ATOM      8  C   UNL     1      -3.402   3.591 -26.096  0.00  0.00    +0.134 C 
ATOM      9  C   UNL     1      -4.542   3.876 -25.488  0.00  0.00    +0.075 C 
ATOM     10  C   UNL     1      -4.675   3.740 -24.195  0.00  0.00    +0.017 C 
ATOM     11  O   UNL     1      -3.267   3.724 -27.379  0.00  0.00    -0.297 OA
ATOM     12  C   UNL     1      -1.281   2.481 -23.045  0.00  0.00    -0.033 A 
ATOM     13  C   UNL     1      -0.169   2.202 -23.629  0.00  0.00    +0.050 A 
ATOM     14  C   UNL     1       0.826   1.785 -22.946  0.00  0.00    +0.117 A 
ATOM     15  C   UNL     1       0.719   1.643 -21.669  0.00  0.00    +0.046 A 
ATOM     16  C   UNL     1      -0.400   1.923 -21.075  0.00  0.00    +0.007 A 
ATOM     17  C   UNL     1      -1.397   2.341 -21.756  0.00  0.00    -0.038 A 
ATOM     18  C   UNL     1      -2.446   2.610 -21.244  0.00  0.00    +0.090 C 
ATOM     19  C   UNL     1      -3.690   3.325 -23.499  0.00  0.00    +0.049 C 
ATOM     20  C   UNL     1      -3.667   3.134 -22.173  0.00  0.00    +0.072 C 
ENDROOT
BRANCH  14  21
ATOM     21  O   UNL     1       1.924   1.535 -23.710  0.00  0.00    -0.507 OA
ATOM     22  H   UNL     1       1.845   1.019 -24.489  0.00  0.00    +0.292 HD
ENDBRANCH  14  21
TORSDOF 1
ENDMDL
MODEL 5
REMARK VINA RESULT:   -10.064      1.999      3.107
REMARK INTER + INTRA:         -10.358
REMARK INTER:                 -10.358
REMARK INTRA:                   0.000
REMARK UNBOUND:                 0.000
REMARK  Name = CN1CC[C@@]23CC(=O)CC[C@H]2[C@H]1Cc1ccc(O)cc13                        ZINC000169369172
REMARK  2 active torsions:
REMARK  status: ('A' for Active; 'I' for Inactive)
REMARK    1  A    between atoms: C_1  and  N_2
REMARK    2  A    between atoms: C_17  and  O_18
REMARK                            x       y       z     vdW  Elec       q    Type
REMARK                         _______ _______ _______ _____ _____    ______ ____
ROOT
ATOM      1  C   UNL     1      -0.415   3.749 -25.884  0.00  0.00    +0.190 C 
ATOM      2  N   UNL     1      -1.383   3.489 -24.752  0.00  0.00    +0.236 N 
ATOM      3  H   UNL     1      -2.381   3.702 -24.796  0.00  0.00    +0.203 HD
ATOM      4  C   UNL     1      -2.181   3.306 -23.897  0.00  0.00    +0.132 C 
ATOM      5  C   UNL     1      -1.982   2.831 -22.798  0.00  0.00    +0.063 C 
ATOM      6  C   UNL     1      -1.099   2.562 -22.553  0.00  0.00    +0.015 C 
ATOM      7  C   UNL     1      -0.780   2.057 -21.438  0.00  0.00    +0.086 C 
ATOM      8  C   UNL     1       0.461   1.721 -21.201  0.00  0.00    +0.134 C 
ATOM      9  C   UNL     1       1.396   1.902 -22.119  0.00  0.00    +0.075 C 
ATOM     10  C   UNL     1       1.113   2.420 -23.286  0.00  0.00    +0.017 C 
ATOM     11  O   UNL     1       0.738   1.207 -20.044  0.00  0.00    -0.297 OA
ATOM     12  C   UNL     1      -2.622   3.084 -23.120  0.00  0.00    -0.033 A 
ATOM     13  C   UNL     1      -3.538   2.911 -22.232  0.00  0.00    +0.050 A 
ATOM     14  C   UNL     1      -4.744   3.246 -22.483  0.00  0.00    +0.117 A 
ATOM     15  C   UNL     1      -5.048   3.759 -23.626  0.00  0.00    +0.046 A 
ATOM     16  C   UNL     1      -4.129   3.936 -24.525  0.00  0.00    +0.007 A 
ATOM     17  C   UNL     1      -2.921   3.601 -24.276  0.00  0.00    -0.038 A 
ATOM     18  C   UNL     1      -2.044   3.748 -25.079  0.00  0.00    +0.090 C 
ATOM     19  C   UNL     1      -0.086   2.759 -23.551  0.00  0.00    +0.049 C 
ATOM     20  C   UNL     1      -0.535   3.300 -24.692  0.00  0.00    +0.072 C 
ENDROOT
BRANCH  14  21
ATOM     21  O   UNL     1      -5.588   2.999 -21.444  0.00  0.00    -0.507 OA
ATOM     22  H   UNL     1      -6.289   3.593 -21.259  0.00  0.00    +0.292 HD
ENDBRANCH  14  21
TORSDOF 1
ENDMDL
MODEL 6
REMARK VINA RESULT:    -9.942      2.250      5.446
REMARK INTER + INTRA:         -10.233
REMARK INTER:                 -10.233
REMARK INTRA:                   0.000
REMARK UNBOUND:                 0.000
REMARK  Name = CN1CC[C@@]23CC(=O)CC[C@H]2[C@H]1Cc1ccc(O)cc13                        ZINC000169369172
REMARK  2 active torsions:
REMARK  status: ('A' for Active; 'I' for Inactive)
REMARK    1  A    between atoms: C_1  and  N_2
REMARK    2  A    between atoms: C_17  and  O_18
REMARK                            x       y       z     vdW  Elec       q    Type
REMARK                         _______ _______ _______ _____ _____    ______ ____
ROOT
ATOM      1  C   UNL     1      -0.531   3.696 -25.490  0.00  0.00    +0.190 C 
ATOM      2  N   UNL     1      -0.223   3.133 -24.120  0.00  0.00    +0.236 N 
ATOM      3  H   UNL     1       0.717   2.890 -23.803  0.00  0.00    +0.203 HD
ATOM      4  C   UNL     1       0.071   2.692 -23.063  0.00  0.00    +0.132 C 
ATOM      5  C   UNL     1      -0.677   2.437 -22.141  0.00  0.00    +0.063 C 
ATOM      6  C   UNL     1      -1.614   2.595 -22.236  0.00  0.00    +0.015 C 
ATOM      7  C   UNL     1      -2.479   2.367 -21.343  0.00  0.00    +0.086 C 
ATOM      8  C   UNL     1      -3.741   2.619 -21.573  0.00  0.00    +0.134 C 
ATOM      9  C   UNL     1      -4.130   3.113 -22.737  0.00  0.00    +0.075 C 
ATOM     10  C   UNL     1      -3.270   3.365 -23.690  0.00  0.00    +0.017 C 
ATOM     11  O   UNL     1      -4.591   2.368 -20.627  0.00  0.00    -0.297 OA
ATOM     12  C   UNL     1       0.077   2.363 -22.202  0.00  0.00    -0.033 A 
ATOM     13  C   UNL     1       0.463   1.882 -21.072  0.00  0.00    +0.050 A 
ATOM     14  C   UNL     1       1.700   1.643 -20.867  0.00  0.00    +0.117 A 
ATOM     15  C   UNL     1       2.567   1.882 -21.791  0.00  0.00    +0.046 A 
ATOM     16  C   UNL     1       2.183   2.367 -22.932  0.00  0.00    +0.007 A 
ATOM     17  C   UNL     1       0.946   2.607 -23.140  0.00  0.00    -0.038 A 
ATOM     18  C   UNL     1       0.553   3.055 -24.179  0.00  0.00    +0.090 C 
ATOM     19  C   UNL     1      -2.032   3.131 -23.500  0.00  0.00    +0.049 C 
ATOM     20  C   UNL     1      -1.033   3.334 -24.370  0.00  0.00    +0.072 C 
ENDROOT
BRANCH  14  21
ATOM     21  O   UNL     1       1.942   1.138 -19.627  0.00  0.00    -0.507 OA
ATOM     22  H   UNL     1       1.309   0.583 -19.215  0.00  0.00    +0.292 HD
ENDBRANCH  14  21
TORSDOF 1
ENDMDL
MODEL 7
REMARK VINA RESULT:    -9.837      1.564      2.194
REMARK INTER + INTRA:         -10.125
REMARK INTER:                 -10.125
REMARK INTRA:                   0.000
REMARK UNBOUND:                 0.000
REMARK  Name = CN1CC[C@@]23CC(=O)CC[C@H]2[C@H]1Cc1ccc(O)cc13                        ZINC000169369172
REMARK  2 active torsions:
REMARK  status: ('A' for Active; 'I' for Inactive)
REMARK    1  A    between atoms: C_1  and  N_2
REMARK    2  A    between atoms: C_17  and  O_18
REMARK                            x       y       z     vdW  Elec       q    Type
REMARK                         _______ _______ _______ _____ _____    ______ ____
ROOT
ATOM      1  C   UNL     1      -1.037   1.472 -20.997  0.00  0.00    +0.190 C 
ATOM      2  N   UNL     1      -1.769   2.294 -22.035  0.00  0.00    +0.236 N 
ATOM      3  H   UNL     1      -2.770   2.491 -22.003  0.00  0.00    +0.203 HD
ATOM      4  C   UNL     1      -2.387   2.929 -22.819  0.00  0.00    +0.132 C 
ATOM      5  C   UNL     1      -1.964   3.475 -23.817  0.00  0.00    +0.063 C 
ATOM      6  C   UNL     1      -1.036   3.411 -24.033  0.00  0.00    +0.015 C 
ATOM      7  C   UNL     1      -0.491   3.940 -25.044  0.00  0.00    +0.086 C 
ATOM      8  C   UNL     1       0.791   3.793 -25.250  0.00  0.00    +0.134 C 
ATOM      9  C   UNL     1       1.535   3.094 -24.408  0.00  0.00    +0.075 C 
ATOM     10  C   UNL     1       1.015   2.530 -23.349  0.00  0.00    +0.017 C 
ATOM     11  O   UNL     1       1.304   4.353 -26.300  0.00  0.00    -0.297 OA
ATOM     12  C   UNL     1      -2.667   3.444 -23.530  0.00  0.00    -0.033 A 
ATOM     13  C   UNL     1      -3.397   4.122 -24.344  0.00  0.00    +0.050 A 
ATOM     14  C   UNL     1      -4.647   4.254 -24.126  0.00  0.00    +0.117 A 
ATOM     15  C   UNL     1      -5.184   3.707 -23.089  0.00  0.00    +0.046 A 
ATOM     16  C   UNL     1      -4.453   3.022 -22.264  0.00  0.00    +0.007 A 
ATOM     17  C   UNL     1      -3.201   2.889 -22.480  0.00  0.00    -0.038 A 
ATOM     18  C   UNL     1      -2.493   2.264 -21.743  0.00  0.00    +0.090 C 
ATOM     19  C   UNL     1      -0.233   2.653 -23.117  0.00  0.00    +0.049 C 
ATOM     20  C   UNL     1      -0.913   2.139 -22.083  0.00  0.00    +0.072 C 
ENDROOT
BRANCH  14  21
ATOM     21  O   UNL     1      -5.275   4.998 -25.078  0.00  0.00    -0.507 OA
ATOM     22  H   UNL     1      -6.162   5.270 -24.949  0.00  0.00    +0.292 HD
ENDBRANCH  14  21
TORSDOF 1
ENDMDL
MODEL 8
REMARK VINA RESULT:    -9.651      1.654      4.316
REMARK INTER + INTRA:          -9.933
REMARK INTER:                  -9.933
REMARK INTRA:                   0.000
REMARK UNBOUND:                 0.000
REMARK  Name = CN1CC[C@@]23CC(=O)CC[C@H]2[C@H]1Cc1ccc(O)cc13                        ZINC000169369172
REMARK  2 active torsions:
REMARK  status: ('A' for Active; 'I' for Inactive)
REMARK    1  A    between atoms: C_1  and  N_2
REMARK    2  A    between atoms: C_17  and  O_18
REMARK                            x       y       z     vdW  Elec       q    Type
REMARK                         _______ _______ _______ _____ _____    ______ ____
ROOT
ATOM      1  C   UNL     1      -1.663   1.608 -20.963  0.00  0.00    +0.190 C 
ATOM      2  N   UNL     1      -1.237   2.310 -22.234  0.00  0.00    +0.236 N 
ATOM      3  H   UNL     1      -0.275   2.333 -22.575  0.00  0.00    +0.203 HD
ATOM      4  C   UNL     1      -0.852   2.842 -23.217  0.00  0.00    +0.132 C 
ATOM      5  C   UNL     1      -1.514   3.467 -24.019  0.00  0.00    +0.063 C 
ATOM      6  C   UNL     1      -2.454   3.565 -23.881  0.00  0.00    +0.015 C 
ATOM      7  C   UNL     1      -3.236   4.194 -24.651  0.00  0.00    +0.086 C 
ATOM      8  C   UNL     1      -4.511   4.270 -24.371  0.00  0.00    +0.134 C 
ATOM      9  C   UNL     1      -4.999   3.694 -23.285  0.00  0.00    +0.075 C 
ATOM     10  C   UNL     1      -4.229   3.034 -22.460  0.00  0.00    +0.017 C 
ATOM     11  O   UNL     1      -5.273   4.924 -25.191  0.00  0.00    -0.297 OA
ATOM     12  C   UNL     1      -0.770   3.313 -24.005  0.00  0.00    -0.033 A 
ATOM     13  C   UNL     1      -0.288   3.871 -25.060  0.00  0.00    +0.050 A 
ATOM     14  C   UNL     1       0.960   3.785 -25.315  0.00  0.00    +0.117 A 
ATOM     15  C   UNL     1       1.741   3.140 -24.517  0.00  0.00    +0.046 A 
ATOM     16  C   UNL     1       1.259   2.576 -23.452  0.00  0.00    +0.007 A 
ATOM     17  C   UNL     1       0.011   2.660 -23.194  0.00  0.00    -0.038 A 
ATOM     18  C   UNL     1      -0.471   2.153 -22.222  0.00  0.00    +0.090 C 
ATOM     19  C   UNL     1      -2.980   2.940 -22.702  0.00  0.00    +0.049 C 
ATOM     20  C   UNL     1      -2.064   2.302 -21.960  0.00  0.00    +0.072 C 
ENDROOT
BRANCH  14  21
ATOM     21  O   UNL     1       1.310   4.426 -26.464  0.00  0.00    -0.507 OA
ATOM     22  H   UNL     1       1.038   5.311 -26.607  0.00  0.00    +0.292 HD
ENDBRANCH  14  21
TORSDOF 1
ENDMDL
MODEL 9
REMARK VINA RESULT:    -8.425      4.248      7.292
REMARK INTER + INTRA:          -8.671
REMARK INTER:                  -8.671
REMARK INTRA:                   0.000
REMARK UNBOUND:                 0.000
REMARK  Name = CN1CC[C@@]23CC(=O)CC[C@H]2[C@H]1Cc1ccc(O)cc13                        ZINC000169369172
REMARK  2 active torsions:
REMARK  status: ('A' for Active; 'I' for Inactive)
REMARK    1  A    between atoms: C_1  and  N_2
REMARK    2  A    between atoms: C_17  and  O_18
REMARK                            x       y       z     vdW  Elec       q    Type
REMARK                         _______ _______ _______ _____ _____    ______ ____
ROOT
ATOM      1  C   UNL     1       3.074   0.807 -24.596  0.00  0.00    +0.190 C 
ATOM      2  N   UNL     1       3.382   2.193 -24.072  0.00  0.00    +0.236 N 
ATOM      3  H   UNL     1       4.324   2.523 -23.854  0.00  0.00    +0.203 HD
ATOM      4  C   UNL     1       3.676   3.263 -23.662  0.00  0.00    +0.132 C 
ATOM      5  C   UNL     1       2.926   4.185 -23.417  0.00  0.00    +0.063 C 
ATOM      6  C   UNL     1       1.987   4.080 -23.555  0.00  0.00    +0.015 C 
ATOM      7  C   UNL     1       1.119   4.972 -23.333  0.00  0.00    +0.086 C 
ATOM      8  C   UNL     1      -0.145   4.727 -23.556  0.00  0.00    +0.134 C 
ATOM      9  C   UNL     1      -0.534   3.549 -24.015  0.00  0.00    +0.075 C 
ATOM     10  C   UNL     1       0.328   2.596 -24.259  0.00  0.00    +0.017 C 
ATOM     11  O   UNL     1      -0.997   5.673 -23.313  0.00  0.00    -0.297 OA
ATOM     12  C   UNL     1       3.682   4.131 -23.354  0.00  0.00    -0.033 A 
ATOM     13  C   UNL     1       4.068   5.275 -22.908  0.00  0.00    +0.050 A 
ATOM     14  C   UNL     1       5.307   5.495 -22.697  0.00  0.00    +0.117 A 
ATOM     15  C   UNL     1       6.176   4.572 -22.930  0.00  0.00    +0.046 A 
ATOM     16  C   UNL     1       5.793   3.416 -23.380  0.00  0.00    +0.007 A 
ATOM     17  C   UNL     1       4.553   3.194 -23.592  0.00  0.00    -0.038 A 
ATOM     18  C   UNL     1       4.159   2.141 -24.007  0.00  0.00    +0.090 C 
ATOM     19  C   UNL     1       1.569   2.800 -24.053  0.00  0.00    +0.049 C 
ATOM     20  C   UNL     1       2.571   1.932 -24.252  0.00  0.00    +0.072 C 
ENDROOT
BRANCH  14  21
ATOM     21  O   UNL     1       5.549   6.749 -22.227  0.00  0.00    -0.507 OA
ATOM     22  H   UNL     1       5.832   7.423 -22.814  0.00  0.00    +0.292 HD
ENDBRANCH  14  21
TORSDOF 1
ENDMDL
