MODEL 1
REMARK VINA RESULT:    -9.012      0.000      0.000
REMARK INTER + INTRA:         -11.767
REMARK INTER:                 -11.781
REMARK INTRA:                   0.013
REMARK UNBOUND:                 0.669
REMARK  Name = ZINC000001614079
REMARK  12 active torsions:
REMARK  status: ('A' for Active; 'I' for Inactive)
REMARK    1  A    between atoms: C_1  and  O_2
REMARK    2  A    between atoms: O_2  and  C_3
REMARK    3  A    between atoms: C_6  and  C_7
REMARK    4  A    between atoms: C_12  and  O_13
REMARK    5  A    between atoms: C_14  and  O_15
REMARK    6  A    between atoms: O_15  and  C_16
REMARK    7  A    between atoms: C_17  and  O_18
REMARK    8  A    between atoms: O_18  and  C_19
REMARK    9  A    between atoms: C_20  and  O_21
REMARK   10  A    between atoms: O_21  and  C_22
REMARK   11  A    between atoms: C_26  and  O_27
REMARK   12  A    between atoms: O_27  and  C_28
REMARK                            x       y       z     vdW  Elec       q    Type
REMARK                         _______ _______ _______ _____ _____    ______ ____
ROOT
ATOM      1  C   UNL     1       0.958   2.286 -22.365  0.00  0.00    +0.140 A 
ATOM      2  C   UNL     1       1.470   1.200 -21.867  0.00  0.00    +0.098 A 
ATOM      3  C   UNL     1       2.759   1.076 -21.766  0.00  0.00    +0.197 A 
ATOM      4  C   UNL     1       3.538   2.038 -22.163  0.00  0.00    +0.113 A 
ATOM      5  C   UNL     1       4.829   1.914 -22.062  0.00  0.00    +0.177 A 
ATOM      6  C   UNL     1       5.607   2.876 -22.460  0.00  0.00    +0.208 A 
ATOM      7  C   UNL     1       5.095   3.962 -22.958  0.00  0.00    +0.211 A 
ATOM      8  C   UNL     1       3.805   4.086 -23.059  0.00  0.00    +0.209 A 
ATOM      9  C   UNL     1       3.026   3.124 -22.662  0.00  0.00    +0.188 A 
ATOM     10  O   UNL     1       3.271  -0.010 -21.267  0.00  0.00    -0.287 OA
ATOM     11  O   UNL     1       1.736   3.248 -22.763  0.00  0.00    -0.451 OA
ENDROOT
BRANCH   1  15
ATOM     12  C   UNL     1      -2.912   2.659 -22.670  0.00  0.00    +0.162 A 
ATOM     13  C   UNL     1      -2.360   2.541 -21.499  0.00  0.00    +0.050 A 
ATOM     14  C   UNL     1      -1.070   2.417 -21.398  0.00  0.00    +0.015 A 
ATOM     15  C   UNL     1      -0.332   2.410 -22.467  0.00  0.00    +0.021 A 
ATOM     16  C   UNL     1      -0.884   2.528 -23.638  0.00  0.00    +0.061 A 
ATOM     17  C   UNL     1      -2.173   2.653 -23.740  0.00  0.00    +0.162 A 
BRANCH  12  19
ATOM     18  C   UNL     1      -4.875   3.370 -21.826  0.00  0.00    +0.277 C 
ATOM     19  O   UNL     1      -4.202   2.783 -22.771  0.00  0.00    -0.491 OA
ENDBRANCH  12  19
BRANCH  17  20
ATOM     20  O   UNL     1      -2.725   2.770 -24.911  0.00  0.00    -0.491 OA
ATOM     21  C   UNL     1      -2.124   3.443 -25.848  0.00  0.00    +0.277 C 
ENDBRANCH  17  20
ENDBRANCH   1  15
BRANCH   8  22
ATOM     22  O   UNL     1       3.294   5.173 -23.558  0.00  0.00    -0.488 OA
ATOM     23  C   UNL     1       2.851   6.105 -22.768  0.00  0.00    +0.277 C 
ENDBRANCH   8  22
BRANCH   7  24
ATOM     24  O   UNL     1       5.874   4.924 -23.356  0.00  0.00    -0.488 OA
ATOM     25  C   UNL     1       6.331   5.787 -22.497  0.00  0.00    +0.277 C 
ENDBRANCH   7  24
BRANCH   6  26
ATOM     26  O   UNL     1       6.897   2.752 -22.358  0.00  0.00    -0.488 OA
ATOM     27  C   UNL     1       7.616   2.553 -23.423  0.00  0.00    +0.277 C 
ENDBRANCH   6  26
BRANCH   5  28
ATOM     28  O   UNL     1       5.340   0.828 -21.564  0.00  0.00    -0.503 OA
ATOM     29  H   UNL     1       5.535   0.102 -22.123  0.00  0.00    +0.292 HD
ENDBRANCH   5  28
TORSDOF 7
ENDMDL
MODEL 2
REMARK VINA RESULT:    -8.976      1.304      3.095
REMARK INTER + INTRA:         -11.718
REMARK INTER:                 -11.633
REMARK INTRA:                  -0.085
REMARK UNBOUND:                 0.669
REMARK  Name = ZINC000001614079
REMARK  12 active torsions:
REMARK  status: ('A' for Active; 'I' for Inactive)
REMARK    1  A    between atoms: C_1  and  O_2
REMARK    2  A    between atoms: O_2  and  C_3
REMARK    3  A    between atoms: C_6  and  C_7
REMARK    4  A    between atoms: C_12  and  O_13
REMARK    5  A    between atoms: C_14  and  O_15
REMARK    6  A    between atoms: O_15  and  C_16
REMARK    7  A    between atoms: C_17  and  O_18
REMARK    8  A    between atoms: O_18  and  C_19
REMARK    9  A    between atoms: C_20  and  O_21
REMARK   10  A    between atoms: O_21  and  C_22
REMARK   11  A    between atoms: C_26  and  O_27
REMARK   12  A    between atoms: O_27  and  C_28
REMARK                            x       y       z     vdW  Elec       q    Type
REMARK                         _______ _______ _______ _____ _____    ______ ____
ROOT
ATOM      1  C   UNL     1       0.269   3.886 -23.067  0.00  0.00    +0.140 A 
ATOM      2  C   UNL     1       0.824   5.039 -23.296  0.00  0.00    +0.098 A 
ATOM      3  C   UNL     1       2.116   5.162 -23.238  0.00  0.00    +0.197 A 
ATOM      4  C   UNL     1       2.854   4.132 -22.949  0.00  0.00    +0.113 A 
ATOM      5  C   UNL     1       4.148   4.254 -22.891  0.00  0.00    +0.177 A 
ATOM      6  C   UNL     1       4.886   3.224 -22.602  0.00  0.00    +0.208 A 
ATOM      7  C   UNL     1       4.331   2.071 -22.372  0.00  0.00    +0.211 A 
ATOM      8  C   UNL     1       3.039   1.948 -22.431  0.00  0.00    +0.209 A 
ATOM      9  C   UNL     1       2.300   2.978 -22.720  0.00  0.00    +0.188 A 
ATOM     10  O   UNL     1       2.671   6.315 -23.467  0.00  0.00    -0.287 OA
ATOM     11  O   UNL     1       1.007   2.855 -22.778  0.00  0.00    -0.451 OA
ENDROOT
BRANCH   1  15
ATOM     12  C   UNL     1      -3.609   3.517 -23.244  0.00  0.00    +0.162 A 
ATOM     13  C   UNL     1      -2.981   3.248 -22.139  0.00  0.00    +0.050 A 
ATOM     14  C   UNL     1      -1.687   3.371 -22.079  0.00  0.00    +0.015 A 
ATOM     15  C   UNL     1      -1.023   3.762 -23.125  0.00  0.00    +0.021 A 
ATOM     16  C   UNL     1      -1.653   4.031 -24.231  0.00  0.00    +0.061 A 
ATOM     17  C   UNL     1      -2.945   3.908 -24.291  0.00  0.00    +0.162 A 
BRANCH  12  19
ATOM     18  C   UNL     1      -5.598   3.311 -22.207  0.00  0.00    +0.277 C 
ATOM     19  O   UNL     1      -4.902   3.394 -23.303  0.00  0.00    -0.491 OA
ENDBRANCH  12  19
BRANCH  17  20
ATOM     20  O   UNL     1      -3.574   4.177 -25.396  0.00  0.00    -0.491 OA
ATOM     21  C   UNL     1      -3.333   3.480 -26.467  0.00  0.00    +0.277 C 
ENDBRANCH  17  20
ENDBRANCH   1  15
BRANCH   8  22
ATOM     22  O   UNL     1       2.484   0.795 -22.201  0.00  0.00    -0.488 OA
ATOM     23  C   UNL     1       2.284  -0.037 -23.180  0.00  0.00    +0.277 C 
ENDBRANCH   8  22
BRANCH   7  24
ATOM     24  O   UNL     1       5.070   1.041 -22.084  0.00  0.00    -0.488 OA
ATOM     25  C   UNL     1       5.101   0.583 -20.867  0.00  0.00    +0.277 C 
ENDBRANCH   7  24
BRANCH   6  26
ATOM     26  O   UNL     1       6.179   3.347 -22.543  0.00  0.00    -0.488 OA
ATOM     27  C   UNL     1       6.741   3.788 -21.458  0.00  0.00    +0.277 C 
ENDBRANCH   6  26
BRANCH   5  28
ATOM     28  O   UNL     1       4.702   5.407 -23.120  0.00  0.00    -0.503 OA
ATOM     29  H   UNL     1       5.477   5.458 -23.645  0.00  0.00    +0.292 HD
ENDBRANCH   5  28
TORSDOF 7
ENDMDL
MODEL 3
REMARK VINA RESULT:    -8.653      1.671      7.888
REMARK INTER + INTRA:         -11.272
REMARK INTER:                 -11.453
REMARK INTRA:                   0.180
REMARK UNBOUND:                 0.669
REMARK  Name = ZINC000001614079
REMARK  12 active torsions:
REMARK  status: ('A' for Active; 'I' for Inactive)
REMARK    1  A    between atoms: C_1  and  O_2
REMARK    2  A    between atoms: O_2  and  C_3
REMARK    3  A    between atoms: C_6  and  C_7
REMARK    4  A    between atoms: C_12  and  O_13
REMARK    5  A    between atoms: C_14  and  O_15
REMARK    6  A    between atoms: O_15  and  C_16
REMARK    7  A    between atoms: C_17  and  O_18
REMARK    8  A    between atoms: O_18  and  C_19
REMARK    9  A    between atoms: C_20  and  O_21
REMARK   10  A    between atoms: O_21  and  C_22
REMARK   11  A    between atoms: C_26  and  O_27
REMARK   12  A    between atoms: O_27  and  C_28
REMARK                            x       y       z     vdW  Elec       q    Type
REMARK                         _______ _______ _______ _____ _____    ______ ____
ROOT
ATOM      1  C   UNL     1       0.297   2.751 -22.992  0.00  0.00    +0.140 A 
ATOM      2  C   UNL     1       0.225   3.024 -24.261  0.00  0.00    +0.098 A 
ATOM      3  C   UNL     1      -0.912   3.365 -24.789  0.00  0.00    +0.197 A 
ATOM      4  C   UNL     1      -1.978   3.434 -24.049  0.00  0.00    +0.113 A 
ATOM      5  C   UNL     1      -3.116   3.776 -24.577  0.00  0.00    +0.177 A 
ATOM      6  C   UNL     1      -4.182   3.844 -23.837  0.00  0.00    +0.208 A 
ATOM      7  C   UNL     1      -4.110   3.572 -22.568  0.00  0.00    +0.211 A 
ATOM      8  C   UNL     1      -2.973   3.230 -22.039  0.00  0.00    +0.209 A 
ATOM      9  C   UNL     1      -1.906   3.161 -22.780  0.00  0.00    +0.188 A 
ATOM     10  O   UNL     1      -0.983   3.638 -26.058  0.00  0.00    -0.287 OA
ATOM     11  O   UNL     1      -0.769   2.820 -22.251  0.00  0.00    -0.451 OA
ENDROOT
BRANCH   1  15
ATOM     12  C   UNL     1       3.710   1.727 -21.407  0.00  0.00    +0.162 A 
ATOM     13  C   UNL     1       2.599   1.280 -20.902  0.00  0.00    +0.050 A 
ATOM     14  C   UNL     1       1.460   1.622 -21.431  0.00  0.00    +0.015 A 
ATOM     15  C   UNL     1       1.434   2.410 -22.463  0.00  0.00    +0.021 A 
ATOM     16  C   UNL     1       2.546   2.857 -22.968  0.00  0.00    +0.061 A 
ATOM     17  C   UNL     1       3.684   2.516 -22.440  0.00  0.00    +0.162 A 
BRANCH  12  19
ATOM     18  C   UNL     1       5.071   0.144 -20.563  0.00  0.00    +0.277 C 
ATOM     19  O   UNL     1       4.847   1.386 -20.879  0.00  0.00    -0.491 OA
ENDBRANCH  12  19
BRANCH  17  20
ATOM     20  O   UNL     1       4.795   2.963 -22.945  0.00  0.00    -0.491 OA
ATOM     21  C   UNL     1       5.006   4.244 -23.020  0.00  0.00    +0.277 C 
ENDBRANCH  17  20
ENDBRANCH   1  15
BRANCH   8  22
ATOM     22  O   UNL     1      -2.902   2.957 -20.770  0.00  0.00    -0.488 OA
ATOM     23  C   UNL     1      -2.947   3.918 -19.895  0.00  0.00    +0.277 C 
ENDBRANCH   8  22
BRANCH   7  24
ATOM     24  O   UNL     1      -5.176   3.640 -21.827  0.00  0.00    -0.488 OA
ATOM     25  C   UNL     1      -5.952   2.603 -21.706  0.00  0.00    +0.277 C 
ENDBRANCH   7  24
BRANCH   6  26
ATOM     26  O   UNL     1      -5.319   4.186 -24.365  0.00  0.00    -0.488 OA
ATOM     27  C   UNL     1      -5.831   3.473 -25.325  0.00  0.00    +0.277 C 
ENDBRANCH   6  26
BRANCH   5  28
ATOM     28  O   UNL     1      -3.187   4.049 -25.846  0.00  0.00    -0.503 OA
ATOM     29  H   UNL     1      -2.403   4.163 -26.346  0.00  0.00    +0.292 HD
ENDBRANCH   5  28
TORSDOF 7
ENDMDL
MODEL 4
REMARK VINA RESULT:    -8.622      1.623      7.678
REMARK INTER + INTRA:         -11.230
REMARK INTER:                 -11.204
REMARK INTRA:                  -0.025
REMARK UNBOUND:                 0.669
REMARK  Name = ZINC000001614079
REMARK  12 active torsions:
REMARK  status: ('A' for Active; 'I' for Inactive)
REMARK    1  A    between atoms: C_1  and  O_2
REMARK    2  A    between atoms: O_2  and  C_3
REMARK    3  A    between atoms: C_6  and  C_7
REMARK    4  A    between atoms: C_12  and  O_13
REMARK    5  A    between atoms: C_14  and  O_15
REMARK    6  A    between atoms: O_15  and  C_16
REMARK    7  A    between atoms: C_17  and  O_18
REMARK    8  A    between atoms: O_18  and  C_19
REMARK    9  A    between atoms: C_20  and  O_21
REMARK   10  A    between atoms: O_21  and  C_22
REMARK   11  A    between atoms: C_26  and  O_27
REMARK   12  A    between atoms: O_27  and  C_28
REMARK                            x       y       z     vdW  Elec       q    Type
REMARK                         _______ _______ _______ _____ _____    ______ ____
ROOT
ATOM      1  C   UNL     1       2.119   3.442 -23.494  0.00  0.00    +0.140 A 
ATOM      2  C   UNL     1       1.954   3.759 -24.744  0.00  0.00    +0.098 A 
ATOM      3  C   UNL     1       0.763   3.752 -25.265  0.00  0.00    +0.197 A 
ATOM      4  C   UNL     1      -0.263   3.429 -24.535  0.00  0.00    +0.113 A 
ATOM      5  C   UNL     1      -1.455   3.422 -25.056  0.00  0.00    +0.177 A 
ATOM      6  C   UNL     1      -2.481   3.099 -24.326  0.00  0.00    +0.208 A 
ATOM      7  C   UNL     1      -2.316   2.782 -23.076  0.00  0.00    +0.211 A 
ATOM      8  C   UNL     1      -1.125   2.789 -22.556  0.00  0.00    +0.209 A 
ATOM      9  C   UNL     1      -0.098   3.112 -23.285  0.00  0.00    +0.188 A 
ATOM     10  O   UNL     1       0.598   4.069 -26.515  0.00  0.00    -0.287 OA
ATOM     11  O   UNL     1       1.093   3.119 -22.765  0.00  0.00    -0.451 OA
ENDROOT
BRANCH   1  15
ATOM     12  C   UNL     1       5.692   3.461 -21.932  0.00  0.00    +0.162 A 
ATOM     13  C   UNL     1       5.328   4.417 -22.733  0.00  0.00    +0.050 A 
ATOM     14  C   UNL     1       4.136   4.411 -23.254  0.00  0.00    +0.015 A 
ATOM     15  C   UNL     1       3.310   3.449 -22.974  0.00  0.00    +0.021 A 
ATOM     16  C   UNL     1       3.675   2.492 -22.172  0.00  0.00    +0.061 A 
ATOM     17  C   UNL     1       4.865   2.498 -21.651  0.00  0.00    +0.162 A 
BRANCH  12  19
ATOM     18  C   UNL     1       7.520   4.591 -21.259  0.00  0.00    +0.277 C 
ATOM     19  O   UNL     1       6.883   3.468 -21.412  0.00  0.00    -0.491 OA
ENDBRANCH  12  19
BRANCH  17  20
ATOM     20  O   UNL     1       5.229   1.542 -20.850  0.00  0.00    -0.491 OA
ATOM     21  C   UNL     1       4.631   0.388 -20.900  0.00  0.00    +0.277 C 
ENDBRANCH  17  20
ENDBRANCH   1  15
BRANCH   8  22
ATOM     22  O   UNL     1      -0.959   2.472 -21.306  0.00  0.00    -0.488 OA
ATOM     23  C   UNL     1      -0.393   1.346 -20.990  0.00  0.00    +0.277 C 
ENDBRANCH   8  22
BRANCH   7  24
ATOM     24  O   UNL     1      -3.341   2.459 -22.346  0.00  0.00    -0.488 OA
ATOM     25  C   UNL     1      -3.902   3.349 -21.582  0.00  0.00    +0.277 C 
ENDBRANCH   7  24
BRANCH   6  26
ATOM     26  O   UNL     1      -3.672   3.092 -24.846  0.00  0.00    -0.488 OA
ATOM     27  C   UNL     1      -4.305   4.212 -25.036  0.00  0.00    +0.277 C 
ENDBRANCH   6  26
BRANCH   5  28
ATOM     28  O   UNL     1      -1.620   3.739 -26.305  0.00  0.00    -0.503 OA
ATOM     29  H   UNL     1      -0.875   3.908 -26.848  0.00  0.00    +0.292 HD
ENDBRANCH   5  28
TORSDOF 7
ENDMDL
MODEL 5
REMARK VINA RESULT:    -8.409      1.691      2.841
REMARK INTER + INTRA:         -10.935
REMARK INTER:                 -11.072
REMARK INTRA:                   0.137
REMARK UNBOUND:                 0.669
REMARK  Name = ZINC000001614079
REMARK  12 active torsions:
REMARK  status: ('A' for Active; 'I' for Inactive)
REMARK    1  A    between atoms: C_1  and  O_2
REMARK    2  A    between atoms: O_2  and  C_3
REMARK    3  A    between atoms: C_6  and  C_7
REMARK    4  A    between atoms: C_12  and  O_13
REMARK    5  A    between atoms: C_14  and  O_15
REMARK    6  A    between atoms: O_15  and  C_16
REMARK    7  A    between atoms: C_17  and  O_18
REMARK    8  A    between atoms: O_18  and  C_19
REMARK    9  A    between atoms: C_20  and  O_21
REMARK   10  A    between atoms: O_21  and  C_22
REMARK   11  A    between atoms: C_26  and  O_27
REMARK   12  A    between atoms: O_27  and  C_28
REMARK                            x       y       z     vdW  Elec       q    Type
REMARK                         _______ _______ _______ _____ _____    ______ ____
ROOT
ATOM      1  C   UNL     1      -0.633   2.668 -22.605  0.00  0.00    +0.140 A 
ATOM      2  C   UNL     1      -0.569   2.125 -21.425  0.00  0.00    +0.098 A 
ATOM      3  C   UNL     1       0.581   1.772 -20.934  0.00  0.00    +0.197 A 
ATOM      4  C   UNL     1       1.667   1.962 -21.622  0.00  0.00    +0.113 A 
ATOM      5  C   UNL     1       2.819   1.609 -21.130  0.00  0.00    +0.177 A 
ATOM      6  C   UNL     1       3.905   1.799 -21.818  0.00  0.00    +0.208 A 
ATOM      7  C   UNL     1       3.841   2.341 -22.998  0.00  0.00    +0.211 A 
ATOM      8  C   UNL     1       2.690   2.694 -23.490  0.00  0.00    +0.209 A 
ATOM      9  C   UNL     1       1.603   2.504 -22.802  0.00  0.00    +0.188 A 
ATOM     10  O   UNL     1       0.645   1.230 -19.754  0.00  0.00    -0.287 OA
ATOM     11  O   UNL     1       0.453   2.857 -23.293  0.00  0.00    -0.451 OA
ENDROOT
BRANCH   1  15
ATOM     12  C   UNL     1      -4.085   3.727 -24.079  0.00  0.00    +0.162 A 
ATOM     13  C   UNL     1      -3.074   3.527 -24.870  0.00  0.00    +0.050 A 
ATOM     14  C   UNL     1      -1.923   3.174 -24.379  0.00  0.00    +0.015 A 
ATOM     15  C   UNL     1      -1.784   3.021 -23.097  0.00  0.00    +0.021 A 
ATOM     16  C   UNL     1      -2.796   3.220 -22.305  0.00  0.00    +0.061 A 
ATOM     17  C   UNL     1      -3.946   3.573 -22.795  0.00  0.00    +0.162 A 
BRANCH  12  19
ATOM     18  C   UNL     1      -5.721   3.454 -25.602  0.00  0.00    +0.277 C 
ATOM     19  O   UNL     1      -5.235   4.080 -24.570  0.00  0.00    -0.491 OA
ENDBRANCH  12  19
BRANCH  17  20
ATOM     20  O   UNL     1      -4.957   3.773 -22.003  0.00  0.00    -0.491 OA
ATOM     21  C   UNL     1      -5.716   2.776 -21.654  0.00  0.00    +0.277 C 
ENDBRANCH  17  20
ENDBRANCH   1  15
BRANCH   8  22
ATOM     22  O   UNL     1       2.626   3.237 -24.669  0.00  0.00    -0.488 OA
ATOM     23  C   UNL     1       1.972   2.643 -25.623  0.00  0.00    +0.277 C 
ENDBRANCH   8  22
BRANCH   7  24
ATOM     24  O   UNL     1       4.927   2.531 -23.686  0.00  0.00    -0.488 OA
ATOM     25  C   UNL     1       5.640   3.601 -23.494  0.00  0.00    +0.277 C 
ENDBRANCH   7  24
BRANCH   6  26
ATOM     26  O   UNL     1       5.055   1.446 -21.327  0.00  0.00    -0.488 OA
ATOM     27  C   UNL     1       5.447   0.209 -21.412  0.00  0.00    +0.277 C 
ENDBRANCH   6  26
BRANCH   5  28
ATOM     28  O   UNL     1       2.883   1.066 -19.951  0.00  0.00    -0.503 OA
ATOM     29  H   UNL     1       3.592   1.278 -19.375  0.00  0.00    +0.292 HD
ENDBRANCH   5  28
TORSDOF 7
ENDMDL
MODEL 6
REMARK VINA RESULT:    -7.862      1.750      7.374
REMARK INTER + INTRA:         -10.181
REMARK INTER:                 -10.064
REMARK INTRA:                  -0.117
REMARK UNBOUND:                 0.669
REMARK  Name = ZINC000001614079
REMARK  12 active torsions:
REMARK  status: ('A' for Active; 'I' for Inactive)
REMARK    1  A    between atoms: C_1  and  O_2
REMARK    2  A    between atoms: O_2  and  C_3
REMARK    3  A    between atoms: C_6  and  C_7
REMARK    4  A    between atoms: C_12  and  O_13
REMARK    5  A    between atoms: C_14  and  O_15
REMARK    6  A    between atoms: O_15  and  C_16
REMARK    7  A    between atoms: C_17  and  O_18
REMARK    8  A    between atoms: O_18  and  C_19
REMARK    9  A    between atoms: C_20  and  O_21
REMARK   10  A    between atoms: O_21  and  C_22
REMARK   11  A    between atoms: C_26  and  O_27
REMARK   12  A    between atoms: O_27  and  C_28
REMARK                            x       y       z     vdW  Elec       q    Type
REMARK                         _______ _______ _______ _____ _____    ______ ____
ROOT
ATOM      1  C   UNL     1       3.784   3.248 -22.689  0.00  0.00    +0.140 A 
ATOM      2  C   UNL     1       3.661   2.362 -21.746  0.00  0.00    +0.098 A 
ATOM      3  C   UNL     1       2.485   1.910 -21.427  0.00  0.00    +0.197 A 
ATOM      4  C   UNL     1       1.431   2.346 -22.050  0.00  0.00    +0.113 A 
ATOM      5  C   UNL     1       0.253   1.895 -21.731  0.00  0.00    +0.177 A 
ATOM      6  C   UNL     1      -0.800   2.330 -22.355  0.00  0.00    +0.208 A 
ATOM      7  C   UNL     1      -0.678   3.217 -23.298  0.00  0.00    +0.211 A 
ATOM      8  C   UNL     1       0.499   3.668 -23.617  0.00  0.00    +0.209 A 
ATOM      9  C   UNL     1       1.553   3.233 -22.993  0.00  0.00    +0.188 A 
ATOM     10  O   UNL     1       2.362   1.024 -20.484  0.00  0.00    -0.287 OA
ATOM     11  O   UNL     1       2.730   3.684 -23.312  0.00  0.00    -0.451 OA
ENDROOT
BRANCH   1  15
ATOM     12  C   UNL     1       7.313   4.603 -23.645  0.00  0.00    +0.162 A 
ATOM     13  C   UNL     1       6.932   3.432 -24.061  0.00  0.00    +0.050 A 
ATOM     14  C   UNL     1       5.755   2.980 -23.742  0.00  0.00    +0.015 A 
ATOM     15  C   UNL     1       4.960   3.700 -23.008  0.00  0.00    +0.021 A 
ATOM     16  C   UNL     1       5.342   4.871 -22.593  0.00  0.00    +0.061 A 
ATOM     17  C   UNL     1       6.518   5.323 -22.911  0.00  0.00    +0.162 A 
BRANCH  12  19
ATOM     18  C   UNL     1       8.805   5.222 -25.215  0.00  0.00    +0.277 C 
ATOM     19  O   UNL     1       8.490   5.054 -23.965  0.00  0.00    -0.491 OA
ENDBRANCH  12  19
BRANCH  17  20
ATOM     20  O   UNL     1       6.899   6.494 -22.496  0.00  0.00    -0.491 OA
ATOM     21  C   UNL     1       6.214   7.114 -21.581  0.00  0.00    +0.277 C 
ENDBRANCH  17  20
ENDBRANCH   1  15
BRANCH   8  22
ATOM     22  O   UNL     1       0.621   4.555 -24.559  0.00  0.00    -0.488 OA
ATOM     23  C   UNL     1       1.067   4.204 -25.729  0.00  0.00    +0.277 C 
ENDBRANCH   8  22
BRANCH   7  24
ATOM     24  O   UNL     1      -1.732   3.653 -23.921  0.00  0.00    -0.488 OA
ATOM     25  C   UNL     1      -2.243   2.960 -24.896  0.00  0.00    +0.277 C 
ENDBRANCH   7  24
BRANCH   6  26
ATOM     26  O   UNL     1      -1.977   1.879 -22.036  0.00  0.00    -0.488 OA
ATOM     27  C   UNL     1      -2.731   2.552 -21.218  0.00  0.00    +0.277 C 
ENDBRANCH   6  26
BRANCH   5  28
ATOM     28  O   UNL     1       0.131   1.008 -20.789  0.00  0.00    -0.503 OA
ATOM     29  H   UNL     1       0.077   1.280 -19.894  0.00  0.00    +0.292 HD
ENDBRANCH   5  28
TORSDOF 7
ENDMDL
MODEL 7
REMARK VINA RESULT:    -7.631      2.058      3.634
REMARK INTER + INTRA:          -9.862
REMARK INTER:                  -9.822
REMARK INTRA:                  -0.040
REMARK UNBOUND:                 0.669
REMARK  Name = ZINC000001614079
REMARK  12 active torsions:
REMARK  status: ('A' for Active; 'I' for Inactive)
REMARK    1  A    between atoms: C_1  and  O_2
REMARK    2  A    between atoms: O_2  and  C_3
REMARK    3  A    between atoms: C_6  and  C_7
REMARK    4  A    between atoms: C_12  and  O_13
REMARK    5  A    between atoms: C_14  and  O_15
REMARK    6  A    between atoms: O_15  and  C_16
REMARK    7  A    between atoms: C_17  and  O_18
REMARK    8  A    between atoms: O_18  and  C_19
REMARK    9  A    between atoms: C_20  and  O_21
REMARK   10  A    between atoms: O_21  and  C_22
REMARK   11  A    between atoms: C_26  and  O_27
REMARK   12  A    between atoms: O_27  and  C_28
REMARK                            x       y       z     vdW  Elec       q    Type
REMARK                         _______ _______ _______ _____ _____    ______ ____
ROOT
ATOM      1  C   UNL     1       3.340   4.159 -23.087  0.00  0.00    +0.140 A 
ATOM      2  C   UNL     1       4.222   3.206 -23.133  0.00  0.00    +0.098 A 
ATOM      3  C   UNL     1       5.464   3.454 -22.839  0.00  0.00    +0.197 A 
ATOM      4  C   UNL     1       5.823   4.655 -22.498  0.00  0.00    +0.113 A 
ATOM      5  C   UNL     1       7.065   4.904 -22.203  0.00  0.00    +0.177 A 
ATOM      6  C   UNL     1       7.424   6.105 -21.863  0.00  0.00    +0.208 A 
ATOM      7  C   UNL     1       6.542   7.059 -21.816  0.00  0.00    +0.211 A 
ATOM      8  C   UNL     1       5.300   6.811 -22.111  0.00  0.00    +0.209 A 
ATOM      9  C   UNL     1       4.941   5.609 -22.452  0.00  0.00    +0.188 A 
ATOM     10  O   UNL     1       6.346   2.500 -22.885  0.00  0.00    -0.287 OA
ATOM     11  O   UNL     1       3.699   5.361 -22.746  0.00  0.00    -0.451 OA
ENDROOT
BRANCH   1  15
ATOM     12  C   UNL     1      -0.385   3.414 -23.970  0.00  0.00    +0.162 A 
ATOM     13  C   UNL     1       0.171   4.517 -24.375  0.00  0.00    +0.050 A 
ATOM     14  C   UNL     1       1.413   4.765 -24.080  0.00  0.00    +0.015 A 
ATOM     15  C   UNL     1       2.098   3.911 -23.381  0.00  0.00    +0.021 A 
ATOM     16  C   UNL     1       1.542   2.808 -22.976  0.00  0.00    +0.061 A 
ATOM     17  C   UNL     1       0.301   2.559 -23.270  0.00  0.00    +0.162 A 
BRANCH  12  19
ATOM     18  C   UNL     1      -2.530   4.087 -24.101  0.00  0.00    +0.277 C 
ATOM     19  O   UNL     1      -1.626   3.166 -24.264  0.00  0.00    -0.491 OA
ENDBRANCH  12  19
BRANCH  17  20
ATOM     20  O   UNL     1      -0.255   1.456 -22.865  0.00  0.00    -0.491 OA
ATOM     21  C   UNL     1      -0.506   1.281 -21.601  0.00  0.00    +0.277 C 
ENDBRANCH  17  20
ENDBRANCH   1  15
BRANCH   8  22
ATOM     22  O   UNL     1       4.418   7.765 -22.064  0.00  0.00    -0.488 OA
ATOM     23  C   UNL     1       4.069   8.272 -20.920  0.00  0.00    +0.277 C 
ENDBRANCH   8  22
BRANCH   7  24
ATOM     24  O   UNL     1       6.901   8.261 -21.476  0.00  0.00    -0.488 OA
ATOM     25  C   UNL     1       7.384   9.073 -22.369  0.00  0.00    +0.277 C 
ENDBRANCH   7  24
BRANCH   6  26
ATOM     26  O   UNL     1       8.666   6.353 -21.568  0.00  0.00    -0.488 OA
ATOM     27  C   UNL     1       9.062   6.308 -20.331  0.00  0.00    +0.277 C 
ENDBRANCH   6  26
BRANCH   5  28
ATOM     28  O   UNL     1       7.947   3.950 -22.250  0.00  0.00    -0.503 OA
ATOM     29  H   UNL     1       8.073   3.466 -23.043  0.00  0.00    +0.292 HD
ENDBRANCH   5  28
TORSDOF 7
ENDMDL
MODEL 8
REMARK VINA RESULT:    -7.583      1.465      7.443
REMARK INTER + INTRA:          -9.796
REMARK INTER:                  -9.938
REMARK INTRA:                   0.142
REMARK UNBOUND:                 0.669
REMARK  Name = ZINC000001614079
REMARK  12 active torsions:
REMARK  status: ('A' for Active; 'I' for Inactive)
REMARK    1  A    between atoms: C_1  and  O_2
REMARK    2  A    between atoms: O_2  and  C_3
REMARK    3  A    between atoms: C_6  and  C_7
REMARK    4  A    between atoms: C_12  and  O_13
REMARK    5  A    between atoms: C_14  and  O_15
REMARK    6  A    between atoms: O_15  and  C_16
REMARK    7  A    between atoms: C_17  and  O_18
REMARK    8  A    between atoms: O_18  and  C_19
REMARK    9  A    between atoms: C_20  and  O_21
REMARK   10  A    between atoms: O_21  and  C_22
REMARK   11  A    between atoms: C_26  and  O_27
REMARK   12  A    between atoms: O_27  and  C_28
REMARK                            x       y       z     vdW  Elec       q    Type
REMARK                         _______ _______ _______ _____ _____    ______ ____
ROOT
ATOM      1  C   UNL     1       1.700   2.463 -22.496  0.00  0.00    +0.140 A 
ATOM      2  C   UNL     1       1.129   1.743 -21.576  0.00  0.00    +0.098 A 
ATOM      3  C   UNL     1      -0.167   1.691 -21.502  0.00  0.00    +0.197 A 
ATOM      4  C   UNL     1      -0.893   2.358 -22.348  0.00  0.00    +0.113 A 
ATOM      5  C   UNL     1      -2.191   2.307 -22.274  0.00  0.00    +0.177 A 
ATOM      6  C   UNL     1      -2.917   2.974 -23.121  0.00  0.00    +0.208 A 
ATOM      7  C   UNL     1      -2.347   3.693 -24.041  0.00  0.00    +0.211 A 
ATOM      8  C   UNL     1      -1.050   3.745 -24.115  0.00  0.00    +0.209 A 
ATOM      9  C   UNL     1      -0.323   3.078 -23.268  0.00  0.00    +0.188 A 
ATOM     10  O   UNL     1      -0.737   0.972 -20.581  0.00  0.00    -0.287 OA
ATOM     11  O   UNL     1       0.974   3.130 -23.343  0.00  0.00    -0.451 OA
ENDROOT
BRANCH   1  15
ATOM     12  C   UNL     1       5.590   2.618 -22.717  0.00  0.00    +0.162 A 
ATOM     13  C   UNL     1       4.866   3.432 -23.426  0.00  0.00    +0.050 A 
ATOM     14  C   UNL     1       3.568   3.380 -23.353  0.00  0.00    +0.015 A 
ATOM     15  C   UNL     1       2.996   2.515 -22.570  0.00  0.00    +0.021 A 
ATOM     16  C   UNL     1       3.722   1.701 -21.861  0.00  0.00    +0.061 A 
ATOM     17  C   UNL     1       5.018   1.753 -21.934  0.00  0.00    +0.162 A 
BRANCH  12  19
ATOM     18  C   UNL     1       7.493   3.821 -22.786  0.00  0.00    +0.277 C 
ATOM     19  O   UNL     1       6.887   2.670 -22.791  0.00  0.00    -0.491 OA
ENDBRANCH  12  19
BRANCH  17  20
ATOM     20  O   UNL     1       5.742   0.939 -21.225  0.00  0.00    -0.491 OA
ATOM     21  C   UNL     1       5.180  -0.046 -20.589  0.00  0.00    +0.277 C 
ENDBRANCH  17  20
ENDBRANCH   1  15
BRANCH   8  22
ATOM     22  O   UNL     1      -0.480   4.465 -25.036  0.00  0.00    -0.488 OA
ATOM     23  C   UNL     1       0.380   3.922 -25.845  0.00  0.00    +0.277 C 
ENDBRANCH   8  22
BRANCH   7  24
ATOM     24  O   UNL     1      -3.073   4.361 -24.888  0.00  0.00    -0.488 OA
ATOM     25  C   UNL     1      -3.499   3.786 -25.974  0.00  0.00    +0.277 C 
ENDBRANCH   7  24
BRANCH   6  26
ATOM     26  O   UNL     1      -4.214   2.922 -23.047  0.00  0.00    -0.488 OA
ATOM     27  C   UNL     1      -4.847   3.674 -22.197  0.00  0.00    +0.277 C 
ENDBRANCH   6  26
BRANCH   5  28
ATOM     28  O   UNL     1      -2.761   1.587 -21.354  0.00  0.00    -0.503 OA
ATOM     29  H   UNL     1      -2.355   0.796 -21.059  0.00  0.00    +0.292 HD
ENDBRANCH   5  28
TORSDOF 7
ENDMDL
MODEL 9
REMARK VINA RESULT:    -7.440      1.747      7.483
REMARK INTER + INTRA:          -9.598
REMARK INTER:                 -10.267
REMARK INTRA:                   0.669
REMARK UNBOUND:                 0.669
REMARK  Name = ZINC000001614079
REMARK  12 active torsions:
REMARK  status: ('A' for Active; 'I' for Inactive)
REMARK    1  A    between atoms: C_1  and  O_2
REMARK    2  A    between atoms: O_2  and  C_3
REMARK    3  A    between atoms: C_6  and  C_7
REMARK    4  A    between atoms: C_12  and  O_13
REMARK    5  A    between atoms: C_14  and  O_15
REMARK    6  A    between atoms: O_15  and  C_16
REMARK    7  A    between atoms: C_17  and  O_18
REMARK    8  A    between atoms: O_18  and  C_19
REMARK    9  A    between atoms: C_20  and  O_21
REMARK   10  A    between atoms: O_21  and  C_22
REMARK   11  A    between atoms: C_26  and  O_27
REMARK   12  A    between atoms: O_27  and  C_28
REMARK                            x       y       z     vdW  Elec       q    Type
REMARK                         _______ _______ _______ _____ _____    ______ ____
ROOT
ATOM      1  C   UNL     1      -0.033   2.386 -22.245  0.00  0.00    +0.140 A 
ATOM      2  C   UNL     1      -0.990   2.281 -21.371  0.00  0.00    +0.098 A 
ATOM      3  C   UNL     1      -2.208   2.591 -21.700  0.00  0.00    +0.197 A 
ATOM      4  C   UNL     1      -2.470   3.006 -22.903  0.00  0.00    +0.113 A 
ATOM      5  C   UNL     1      -3.690   3.316 -23.233  0.00  0.00    +0.177 A 
ATOM      6  C   UNL     1      -3.952   3.731 -24.437  0.00  0.00    +0.208 A 
ATOM      7  C   UNL     1      -2.995   3.836 -25.311  0.00  0.00    +0.211 A 
ATOM      8  C   UNL     1      -1.777   3.526 -24.982  0.00  0.00    +0.209 A 
ATOM      9  C   UNL     1      -1.514   3.111 -23.778  0.00  0.00    +0.188 A 
ATOM     10  O   UNL     1      -3.165   2.486 -20.826  0.00  0.00    -0.287 OA
ATOM     11  O   UNL     1      -0.295   2.801 -23.448  0.00  0.00    -0.451 OA
ENDROOT
BRANCH   1  15
ATOM     12  C   UNL     1       3.623   1.456 -21.259  0.00  0.00    +0.162 A 
ATOM     13  C   UNL     1       2.644   1.195 -20.445  0.00  0.00    +0.050 A 
ATOM     14  C   UNL     1       1.425   1.505 -20.774  0.00  0.00    +0.015 A 
ATOM     15  C   UNL     1       1.185   2.076 -21.916  0.00  0.00    +0.021 A 
ATOM     16  C   UNL     1       2.165   2.337 -22.730  0.00  0.00    +0.061 A 
ATOM     17  C   UNL     1       3.384   2.027 -22.402  0.00  0.00    +0.162 A 
BRANCH  12  19
ATOM     18  C   UNL     1       5.145  -0.086 -20.645  0.00  0.00    +0.277 C 
ATOM     19  O   UNL     1       4.842   1.146 -20.929  0.00  0.00    -0.491 OA
ENDBRANCH  12  19
BRANCH  17  20
ATOM     20  O   UNL     1       4.363   2.288 -23.216  0.00  0.00    -0.491 OA
ATOM     21  C   UNL     1       4.770   3.513 -23.371  0.00  0.00    +0.277 C 
ENDBRANCH  17  20
ENDBRANCH   1  15
BRANCH   8  22
ATOM     22  O   UNL     1      -0.820   3.631 -25.856  0.00  0.00    -0.488 OA
ATOM     23  C   UNL     1       0.328   4.130 -25.507  0.00  0.00    +0.277 C 
ENDBRANCH   8  22
BRANCH   7  24
ATOM     24  O   UNL     1      -3.258   4.251 -26.514  0.00  0.00    -0.488 OA
ATOM     25  C   UNL     1      -3.296   3.404 -27.501  0.00  0.00    +0.277 C 
ENDBRANCH   7  24
BRANCH   6  26
ATOM     26  O   UNL     1      -5.170   4.041 -24.766  0.00  0.00    -0.488 OA
ATOM     27  C   UNL     1      -5.913   3.180 -25.396  0.00  0.00    +0.277 C 
ENDBRANCH   6  26
BRANCH   5  28
ATOM     28  O   UNL     1      -4.646   3.211 -22.359  0.00  0.00    -0.503 OA
ATOM     29  H   UNL     1      -5.433   2.751 -22.578  0.00  0.00    +0.292 HD
ENDBRANCH   5  28
TORSDOF 7
ENDMDL
