MODEL 1
REMARK VINA RESULT:   -11.243      0.000      0.000
REMARK INTER + INTRA:         -12.014
REMARK INTER:                 -11.876
REMARK INTRA:                  -0.139
REMARK UNBOUND:                -0.114
REMARK  Name = ZINC000038258179
REMARK  3 active torsions:
REMARK  status: ('A' for Active; 'I' for Inactive)
REMARK    1  A    between atoms: C_1  and  O_2
REMARK    2  A    between atoms: O_2  and  C_3
REMARK    3  A    between atoms: N_17  and  C_18
REMARK                            x       y       z     vdW  Elec       q    Type
REMARK                         _______ _______ _______ _____ _____    ______ ____
ROOT
ATOM      1  C   UNL     1       0.498   2.610 -23.194  0.00  0.00    +0.162 A 
ATOM      2  C   UNL     1       0.429   2.057 -22.062  0.00  0.00    +0.050 A 
ATOM      3  C   UNL     1      -0.668   1.947 -21.478  0.00  0.00    +0.008 A 
ATOM      4  C   UNL     1      -1.704   2.388 -22.018  0.00  0.00    -0.034 A 
ATOM      5  C   UNL     1      -1.660   2.942 -23.144  0.00  0.00    +0.016 A 
ATOM      6  C   UNL     1      -2.696   3.379 -23.676  0.00  0.00    +0.071 C 
ATOM      7  C   UNL     1      -3.808   3.916 -24.383  0.00  0.00    +0.071 C 
ATOM      8  C   UNL     1      -5.060   3.807 -23.749  0.00  0.00    +0.133 C 
ATOM      9  N   UNL     1      -5.098   3.184 -22.488  0.00  0.00    +0.239 N 
ATOM     10  H   UNL     1      -5.979   3.079 -21.986  0.00  0.00    +0.204 HD
ATOM     11  C   UNL     1      -6.166   3.048 -21.860  0.00  0.00    +0.191 C 
ATOM     12  C   UNL     1      -3.863   2.718 -21.964  0.00  0.00    +0.096 C 
ATOM     13  C   UNL     1      -3.796   3.272 -23.096  0.00  0.00    -0.007 C 
ATOM     14  C   UNL     1      -4.845   3.715 -23.637  0.00  0.00    +0.006 C 
ATOM     15  C   UNL     1      -4.783   4.263 -24.756  0.00  0.00    -0.000 C 
ATOM     16  C   UNL     1      -3.679   4.378 -25.353  0.00  0.00    +0.018 C 
ATOM     17  C   UNL     1      -2.642   3.938 -24.813  0.00  0.00    +0.212 C 
ATOM     18  O   UNL     1      -1.152   3.745 -24.922  0.00  0.00    -0.480 OA
ATOM     19  C   UNL     1      -2.826   2.278 -21.426  0.00  0.00    +0.094 C 
ATOM     20  C   UNL     1      -0.554   3.054 -23.736  0.00  0.00    +0.167 A 
ENDROOT
BRANCH   1  22
ATOM     21  C   UNL     1       2.386   3.630 -23.456  0.00  0.00    +0.277 C 
ATOM     22  O   UNL     1       1.597   2.718 -23.775  0.00  0.00    -0.491 OA
ENDBRANCH   1  22
TORSDOF 1
ENDMDL
MODEL 2
REMARK VINA RESULT:   -10.725      2.117      5.347
REMARK INTER + INTRA:         -11.466
REMARK INTER:                 -11.362
REMARK INTRA:                  -0.104
REMARK UNBOUND:                -0.114
REMARK  Name = ZINC000038258179
REMARK  3 active torsions:
REMARK  status: ('A' for Active; 'I' for Inactive)
REMARK    1  A    between atoms: C_1  and  O_2
REMARK    2  A    between atoms: O_2  and  C_3
REMARK    3  A    between atoms: N_17  and  C_18
REMARK                            x       y       z     vdW  Elec       q    Type
REMARK                         _______ _______ _______ _____ _____    ______ ____
ROOT
ATOM      1  C   UNL     1      -4.788   3.598 -22.864  0.00  0.00    +0.162 A 
ATOM      2  C   UNL     1      -4.879   4.029 -24.047  0.00  0.00    +0.050 A 
ATOM      3  C   UNL     1      -3.886   4.017 -24.802  0.00  0.00    +0.008 A 
ATOM      4  C   UNL     1      -2.795   3.576 -24.384  0.00  0.00    -0.034 A 
ATOM      5  C   UNL     1      -2.681   3.142 -23.211  0.00  0.00    +0.016 A 
ATOM      6  C   UNL     1      -1.590   2.704 -22.801  0.00  0.00    +0.071 C 
ATOM      7  C   UNL     1      -0.401   2.181 -22.220  0.00  0.00    +0.071 C 
ATOM      8  C   UNL     1       0.736   2.155 -23.048  0.00  0.00    +0.133 C 
ATOM      9  N   UNL     1       0.597   2.644 -24.360  0.00  0.00    +0.239 N 
ATOM     10  H   UNL     1       1.390   2.648 -25.001  0.00  0.00    +0.204 HD
ATOM     11  C   UNL     1       1.556   2.656 -25.157  0.00  0.00    +0.191 C 
ATOM     12  C   UNL     1      -0.687   3.122 -24.735  0.00  0.00    +0.096 C 
ATOM     13  C   UNL     1      -0.594   2.691 -23.553  0.00  0.00    -0.007 C 
ATOM     14  C   UNL     1       0.510   2.247 -23.135  0.00  0.00    +0.006 C 
ATOM     15  C   UNL     1       0.606   1.820 -21.967  0.00  0.00    -0.000 C 
ATOM     16  C   UNL     1      -0.392   1.827 -21.198  0.00  0.00    +0.018 C 
ATOM     17  C   UNL     1      -1.484   2.268 -21.615  0.00  0.00    +0.212 C 
ATOM     18  O   UNL     1      -2.930   2.554 -21.299  0.00  0.00    -0.480 OA
ATOM     19  C   UNL     1      -1.778   3.562 -25.150  0.00  0.00    +0.094 C 
ATOM     20  C   UNL     1      -3.681   3.153 -22.447  0.00  0.00    +0.167 A 
ENDROOT
BRANCH   1  22
ATOM     21  C   UNL     1      -6.300   2.538 -21.741  0.00  0.00    +0.277 C 
ATOM     22  O   UNL     1      -5.783   3.611 -22.113  0.00  0.00    -0.491 OA
ENDBRANCH   1  22
TORSDOF 1
ENDMDL
MODEL 3
REMARK VINA RESULT:   -10.667      1.388      2.704
REMARK INTER + INTRA:         -11.405
REMARK INTER:                 -11.282
REMARK INTRA:                  -0.123
REMARK UNBOUND:                -0.114
REMARK  Name = ZINC000038258179
REMARK  3 active torsions:
REMARK  status: ('A' for Active; 'I' for Inactive)
REMARK    1  A    between atoms: C_1  and  O_2
REMARK    2  A    between atoms: O_2  and  C_3
REMARK    3  A    between atoms: N_17  and  C_18
REMARK                            x       y       z     vdW  Elec       q    Type
REMARK                         _______ _______ _______ _____ _____    ______ ____
ROOT
ATOM      1  C   UNL     1       0.962   2.271 -22.586  0.00  0.00    +0.162 A 
ATOM      2  C   UNL     1       1.241   2.618 -23.767  0.00  0.00    +0.050 A 
ATOM      3  C   UNL     1       0.351   3.053 -24.524  0.00  0.00    +0.008 A 
ATOM      4  C   UNL     1      -0.823   3.145 -24.111  0.00  0.00    -0.034 A 
ATOM      5  C   UNL     1      -1.125   2.807 -22.940  0.00  0.00    +0.016 A 
ATOM      6  C   UNL     1      -2.297   2.902 -22.534  0.00  0.00    +0.071 C 
ATOM      7  C   UNL     1      -3.597   2.964 -21.958  0.00  0.00    +0.071 C 
ATOM      8  C   UNL     1      -4.622   3.451 -22.790  0.00  0.00    +0.133 C 
ATOM      9  N   UNL     1      -4.275   3.828 -24.100  0.00  0.00    +0.239 N 
ATOM     10  H   UNL     1      -4.980   4.187 -24.743  0.00  0.00    +0.204 HD
ATOM     11  C   UNL     1      -5.123   4.269 -24.900  0.00  0.00    +0.191 C 
ATOM     12  C   UNL     1      -2.910   3.682 -24.469  0.00  0.00    +0.096 C 
ATOM     13  C   UNL     1      -3.191   3.336 -23.289  0.00  0.00    -0.007 C 
ATOM     14  C   UNL     1      -4.379   3.432 -22.876  0.00  0.00    +0.006 C 
ATOM     15  C   UNL     1      -4.661   3.091 -21.710  0.00  0.00    -0.000 C 
ATOM     16  C   UNL     1      -3.768   2.650 -20.938  0.00  0.00    +0.018 C 
ATOM     17  C   UNL     1      -2.592   2.557 -21.350  0.00  0.00    +0.212 C 
ATOM     18  O   UNL     1      -1.173   2.166 -21.029  0.00  0.00    -0.480 OA
ATOM     19  C   UNL     1      -1.736   3.589 -24.880  0.00  0.00    +0.094 C 
ATOM     20  C   UNL     1      -0.228   2.367 -22.173  0.00  0.00    +0.167 A 
ENDROOT
BRANCH   1  22
ATOM     21  C   UNL     1       2.517   0.831 -22.160  0.00  0.00    +0.277 C 
ATOM     22  O   UNL     1       1.856   1.836 -21.832  0.00  0.00    -0.491 OA
ENDBRANCH   1  22
TORSDOF 1
ENDMDL
MODEL 4
REMARK VINA RESULT:    -9.955      2.123      5.204
REMARK INTER + INTRA:         -10.651
REMARK INTER:                 -10.546
REMARK INTRA:                  -0.105
REMARK UNBOUND:                -0.114
REMARK  Name = ZINC000038258179
REMARK  3 active torsions:
REMARK  status: ('A' for Active; 'I' for Inactive)
REMARK    1  A    between atoms: C_1  and  O_2
REMARK    2  A    between atoms: O_2  and  C_3
REMARK    3  A    between atoms: N_17  and  C_18
REMARK                            x       y       z     vdW  Elec       q    Type
REMARK                         _______ _______ _______ _____ _____    ______ ____
ROOT
ATOM      1  C   UNL     1      -3.120   3.240 -23.137  0.00  0.00    +0.162 A 
ATOM      2  C   UNL     1      -3.319   2.718 -22.006  0.00  0.00    +0.050 A 
ATOM      3  C   UNL     1      -2.386   2.158 -21.395  0.00  0.00    +0.008 A 
ATOM      4  C   UNL     1      -1.248   2.115 -21.908  0.00  0.00    -0.034 A 
ATOM      5  C   UNL     1      -1.027   2.628 -23.033  0.00  0.00    +0.016 A 
ATOM      6  C   UNL     1       0.109   2.581 -23.538  0.00  0.00    +0.071 C 
ATOM      7  C   UNL     1       1.361   2.591 -24.216  0.00  0.00    +0.071 C 
ATOM      8  C   UNL     1       2.432   1.967 -23.551  0.00  0.00    +0.133 C 
ATOM      9  N   UNL     1       2.174   1.396 -22.292  0.00  0.00    +0.239 N 
ATOM     10  H   UNL     1       2.916   0.932 -21.768  0.00  0.00    +0.204 HD
ATOM     11  C   UNL     1       3.069   0.825 -21.638  0.00  0.00    +0.191 C 
ATOM     12  C   UNL     1       0.845   1.501 -21.799  0.00  0.00    +0.096 C 
ATOM     13  C   UNL     1       1.046   2.022 -22.931  0.00  0.00    -0.007 C 
ATOM     14  C   UNL     1       2.197   1.976 -23.445  0.00  0.00    +0.006 C 
ATOM     15  C   UNL     1       2.399   2.490 -24.563  0.00  0.00    -0.000 C 
ATOM     16  C   UNL     1       1.462   3.057 -25.186  0.00  0.00    +0.018 C 
ATOM     17  C   UNL     1       0.324   3.101 -24.674  0.00  0.00    +0.212 C 
ATOM     18  O   UNL     1      -1.105   3.557 -24.820  0.00  0.00    -0.480 OA
ATOM     19  C   UNL     1      -0.293   1.545 -21.289  0.00  0.00    +0.094 C 
ATOM     20  C   UNL     1      -1.967   3.193 -23.651  0.00  0.00    +0.167 A 
ENDROOT
BRANCH   1  22
ATOM     21  C   UNL     1      -5.218   3.737 -23.294  0.00  0.00    +0.277 C 
ATOM     22  O   UNL     1      -4.056   3.798 -23.744  0.00  0.00    -0.491 OA
ENDBRANCH   1  22
TORSDOF 1
ENDMDL
MODEL 5
REMARK VINA RESULT:    -9.885      1.416      2.263
REMARK INTER + INTRA:         -10.577
REMARK INTER:                 -10.440
REMARK INTRA:                  -0.137
REMARK UNBOUND:                -0.114
REMARK  Name = ZINC000038258179
REMARK  3 active torsions:
REMARK  status: ('A' for Active; 'I' for Inactive)
REMARK    1  A    between atoms: C_1  and  O_2
REMARK    2  A    between atoms: O_2  and  C_3
REMARK    3  A    between atoms: N_17  and  C_18
REMARK                            x       y       z     vdW  Elec       q    Type
REMARK                         _______ _______ _______ _____ _____    ______ ____
ROOT
ATOM      1  C   UNL     1       2.604   1.858 -23.330  0.00  0.00    +0.162 A 
ATOM      2  C   UNL     1       2.655   1.341 -22.180  0.00  0.00    +0.050 A 
ATOM      3  C   UNL     1       1.633   1.282 -21.468  0.00  0.00    +0.008 A 
ATOM      4  C   UNL     1       0.552   1.738 -21.896  0.00  0.00    -0.034 A 
ATOM      5  C   UNL     1       0.478   2.257 -23.038  0.00  0.00    +0.016 A 
ATOM      6  C   UNL     1      -0.602   2.710 -23.459  0.00  0.00    +0.071 C 
ATOM      7  C   UNL     1      -1.776   3.260 -24.048  0.00  0.00    +0.071 C 
ATOM      8  C   UNL     1      -2.945   3.208 -23.267  0.00  0.00    +0.133 C 
ATOM      9  N   UNL     1      -2.851   2.625 -21.991  0.00  0.00    +0.239 N 
ATOM     10  H   UNL     1      -3.669   2.562 -21.385  0.00  0.00    +0.204 HD
ATOM     11  C   UNL     1      -3.841   2.540 -21.237  0.00  0.00    +0.191 C 
ATOM     12  C   UNL     1      -1.575   2.137 -21.600  0.00  0.00    +0.096 C 
ATOM     13  C   UNL     1      -1.628   2.654 -22.750  0.00  0.00    -0.007 C 
ATOM     14  C   UNL     1      -2.722   3.113 -23.178  0.00  0.00    +0.006 C 
ATOM     15  C   UNL     1      -2.778   3.625 -24.314  0.00  0.00    -0.000 C 
ATOM     16  C   UNL     1      -1.750   3.688 -25.040  0.00  0.00    +0.018 C 
ATOM     17  C   UNL     1      -0.669   3.232 -24.612  0.00  0.00    +0.212 C 
ATOM     18  O   UNL     1       0.793   2.991 -24.889  0.00  0.00    -0.480 OA
ATOM     19  C   UNL     1      -0.494   1.681 -21.174  0.00  0.00    +0.094 C 
ATOM     20  C   UNL     1       1.508   2.318 -23.759  0.00  0.00    +0.167 A 
ENDROOT
BRANCH   1  22
ATOM     21  C   UNL     1       4.489   2.792 -23.826  0.00  0.00    +0.277 C 
ATOM     22  O   UNL     1       3.629   1.914 -24.039  0.00  0.00    -0.491 OA
ENDBRANCH   1  22
TORSDOF 1
ENDMDL
MODEL 6
REMARK VINA RESULT:    -9.723      2.730      6.373
REMARK INTER + INTRA:         -10.406
REMARK INTER:                 -10.262
REMARK INTRA:                  -0.144
REMARK UNBOUND:                -0.114
REMARK  Name = ZINC000038258179
REMARK  3 active torsions:
REMARK  status: ('A' for Active; 'I' for Inactive)
REMARK    1  A    between atoms: C_1  and  O_2
REMARK    2  A    between atoms: O_2  and  C_3
REMARK    3  A    between atoms: N_17  and  C_18
REMARK                            x       y       z     vdW  Elec       q    Type
REMARK                         _______ _______ _______ _____ _____    ______ ____
ROOT
ATOM      1  C   UNL     1      -1.722   3.201 -23.106  0.00  0.00    +0.162 A 
ATOM      2  C   UNL     1      -1.688   4.408 -23.474  0.00  0.00    +0.050 A 
ATOM      3  C   UNL     1      -0.600   5.007 -23.577  0.00  0.00    +0.008 A 
ATOM      4  C   UNL     1       0.464   4.409 -23.312  0.00  0.00    -0.034 A 
ATOM      5  C   UNL     1       0.455   3.208 -22.944  0.00  0.00    +0.016 A 
ATOM      6  C   UNL     1       1.519   2.618 -22.682  0.00  0.00    +0.071 C 
ATOM      7  C   UNL     1       2.665   1.839 -22.355  0.00  0.00    +0.071 C 
ATOM      8  C   UNL     1       3.908   2.489 -22.462  0.00  0.00    +0.133 C 
ATOM      9  N   UNL     1       3.907   3.833 -22.875  0.00  0.00    +0.239 N 
ATOM     10  H   UNL     1       4.781   4.350 -22.968  0.00  0.00    +0.204 HD
ATOM     11  C   UNL     1       4.966   4.480 -22.995  0.00  0.00    +0.191 C 
ATOM     12  C   UNL     1       2.643   4.420 -23.151  0.00  0.00    +0.096 C 
ATOM     13  C   UNL     1       2.611   3.213 -22.782  0.00  0.00    -0.007 C 
ATOM     14  C   UNL     1       3.688   2.613 -22.516  0.00  0.00    +0.006 C 
ATOM     15  C   UNL     1       3.661   1.421 -22.152  0.00  0.00    -0.000 C 
ATOM     16  C   UNL     1       2.565   0.808 -22.046  0.00  0.00    +0.018 C 
ATOM     17  C   UNL     1       1.500   1.406 -22.310  0.00  0.00    +0.212 C 
ATOM     18  O   UNL     1      -0.002   1.322 -22.398  0.00  0.00    -0.480 OA
ATOM     19  C   UNL     1       1.578   5.015 -23.415  0.00  0.00    +0.094 C 
ATOM     20  C   UNL     1      -0.643   2.601 -22.839  0.00  0.00    +0.167 A 
ENDROOT
BRANCH   1  22
ATOM     21  C   UNL     1      -3.428   2.606 -21.919  0.00  0.00    +0.277 C 
ATOM     22  O   UNL     1      -2.814   2.606 -23.005  0.00  0.00    -0.491 OA
ENDBRANCH   1  22
TORSDOF 1
ENDMDL
MODEL 7
REMARK VINA RESULT:    -9.594      2.710      4.634
REMARK INTER + INTRA:         -10.268
REMARK INTER:                 -10.176
REMARK INTRA:                  -0.092
REMARK UNBOUND:                -0.114
REMARK  Name = ZINC000038258179
REMARK  3 active torsions:
REMARK  status: ('A' for Active; 'I' for Inactive)
REMARK    1  A    between atoms: C_1  and  O_2
REMARK    2  A    between atoms: O_2  and  C_3
REMARK    3  A    between atoms: N_17  and  C_18
REMARK                            x       y       z     vdW  Elec       q    Type
REMARK                         _______ _______ _______ _____ _____    ______ ____
ROOT
ATOM      1  C   UNL     1       4.023   1.903 -21.919  0.00  0.00    +0.162 A 
ATOM      2  C   UNL     1       4.520   2.384 -22.975  0.00  0.00    +0.050 A 
ATOM      3  C   UNL     1       3.780   2.787 -23.895  0.00  0.00    +0.008 A 
ATOM      4  C   UNL     1       2.540   2.712 -23.770  0.00  0.00    -0.034 A 
ATOM      5  C   UNL     1       2.023   2.237 -22.729  0.00  0.00    +0.016 A 
ATOM      6  C   UNL     1       0.786   2.166 -22.610  0.00  0.00    +0.071 C 
ATOM      7  C   UNL     1      -0.608   2.033 -22.359  0.00  0.00    +0.071 C 
ATOM      8  C   UNL     1      -1.468   2.480 -23.380  0.00  0.00    +0.133 C 
ATOM      9  N   UNL     1      -0.880   3.010 -24.542  0.00  0.00    +0.239 N 
ATOM     10  H   UNL     1      -1.458   3.347 -25.311  0.00  0.00    +0.204 HD
ATOM     11  C   UNL     1      -1.571   3.427 -25.492  0.00  0.00    +0.191 C 
ATOM     12  C   UNL     1       0.540   3.049 -24.583  0.00  0.00    +0.096 C 
ATOM     13  C   UNL     1       0.042   2.568 -23.528  0.00  0.00    -0.007 C 
ATOM     14  C   UNL     1      -1.212   2.495 -23.406  0.00  0.00    +0.006 C 
ATOM     15  C   UNL     1      -1.708   2.020 -22.365  0.00  0.00    -0.000 C 
ATOM     16  C   UNL     1      -0.967   1.611 -21.431  0.00  0.00    +0.018 C 
ATOM     17  C   UNL     1       0.273   1.685 -21.555  0.00  0.00    +0.212 C 
ATOM     18  O   UNL     1       1.619   1.423 -20.929  0.00  0.00    -0.480 OA
ATOM     19  C   UNL     1       1.780   3.122 -24.705  0.00  0.00    +0.094 C 
ATOM     20  C   UNL     1       2.768   1.830 -21.798  0.00  0.00    +0.167 A 
ENDROOT
BRANCH   1  22
ATOM     21  C   UNL     1       4.788   0.292 -20.697  0.00  0.00    +0.277 C 
ATOM     22  O   UNL     1       4.767   1.502 -21.002  0.00  0.00    -0.491 OA
ENDBRANCH   1  22
TORSDOF 1
ENDMDL
MODEL 8
REMARK VINA RESULT:    -9.302      2.385      3.482
REMARK INTER + INTRA:          -9.960
REMARK INTER:                  -9.832
REMARK INTRA:                  -0.128
REMARK UNBOUND:                -0.114
REMARK  Name = ZINC000038258179
REMARK  3 active torsions:
REMARK  status: ('A' for Active; 'I' for Inactive)
REMARK    1  A    between atoms: C_1  and  O_2
REMARK    2  A    between atoms: O_2  and  C_3
REMARK    3  A    between atoms: N_17  and  C_18
REMARK                            x       y       z     vdW  Elec       q    Type
REMARK                         _______ _______ _______ _____ _____    ______ ____
ROOT
ATOM      1  C   UNL     1       3.726   2.356 -23.269  0.00  0.00    +0.162 A 
ATOM      2  C   UNL     1       3.655   1.247 -22.671  0.00  0.00    +0.050 A 
ATOM      3  C   UNL     1       2.582   0.875 -22.155  0.00  0.00    +0.008 A 
ATOM      4  C   UNL     1       1.572   1.605 -22.232  0.00  0.00    -0.034 A 
ATOM      5  C   UNL     1       1.619   2.713 -22.822  0.00  0.00    +0.016 A 
ATOM      6  C   UNL     1       0.609   3.436 -22.894  0.00  0.00    +0.071 C 
ATOM      7  C   UNL     1      -0.475   4.347 -23.043  0.00  0.00    +0.071 C 
ATOM      8  C   UNL     1      -1.699   3.954 -22.471  0.00  0.00    +0.133 C 
ATOM      9  N   UNL     1      -1.741   2.712 -21.812  0.00  0.00    +0.239 N 
ATOM     10  H   UNL     1      -2.604   2.380 -21.381  0.00  0.00    +0.204 HD
ATOM     11  C   UNL     1      -2.787   2.290 -21.279  0.00  0.00    +0.191 C 
ATOM     12  C   UNL     1      -0.536   1.959 -21.782  0.00  0.00    +0.096 C 
ATOM     13  C   UNL     1      -0.467   3.068 -22.380  0.00  0.00    -0.007 C 
ATOM     14  C   UNL     1      -1.490   3.803 -22.455  0.00  0.00    +0.006 C 
ATOM     15  C   UNL     1      -1.425   4.899 -23.045  0.00  0.00    -0.000 C 
ATOM     16  C   UNL     1      -0.345   5.283 -23.568  0.00  0.00    +0.018 C 
ATOM     17  C   UNL     1       0.666   4.553 -23.492  0.00  0.00    +0.212 C 
ATOM     18  O   UNL     1       2.122   4.379 -23.839  0.00  0.00    -0.480 OA
ATOM     19  C   UNL     1       0.474   1.231 -21.707  0.00  0.00    +0.094 C 
ATOM     20  C   UNL     1       2.701   3.090 -23.343  0.00  0.00    +0.167 A 
ENDROOT
BRANCH   1  22
ATOM     21  C   UNL     1       5.786   2.978 -23.060  0.00  0.00    +0.277 C 
ATOM     22  O   UNL     1       4.801   2.723 -23.783  0.00  0.00    -0.491 OA
ENDBRANCH   1  22
TORSDOF 1
ENDMDL
