MODEL 1
REMARK VINA RESULT:    -8.248      0.000      0.000
REMARK INTER + INTRA:          -8.676
REMARK INTER:                  -8.713
REMARK INTRA:                   0.037
REMARK UNBOUND:                 0.054
REMARK  Name = ZINC000002548959
REMARK  2 active torsions:
REMARK  status: ('A' for Active; 'I' for Inactive)
REMARK    1  A    between atoms: C_1  and  O_2
REMARK    2  A    between atoms: O_2  and  C_3
REMARK                            x       y       z     vdW  Elec       q    Type
REMARK                         _______ _______ _______ _____ _____    ______ ____
ROOT
ATOM      1  C   UNL     1      -2.448   3.372 -23.644  0.00  0.00    +0.206 A 
ATOM      2  C   UNL     1      -3.612   3.330 -23.066  0.00  0.00    +0.180 A 
ATOM      3  O   UNL     1      -4.775   3.791 -23.418  0.00  0.00    -0.459 OA
ATOM      4  C   UNL     1      -5.626   3.485 -22.485  0.00  0.00    +0.196 A 
ATOM      5  C   UNL     1      -4.990   2.836 -21.557  0.00  0.00    +0.050 A 
ATOM      6  C   UNL     1      -3.744   2.740 -21.915  0.00  0.00    +0.025 A 
ATOM      7  C   UNL     1      -2.714   2.191 -21.343  0.00  0.00    +0.023 A 
ATOM      8  C   UNL     1      -1.550   2.233 -21.921  0.00  0.00    +0.022 A 
ATOM      9  C   UNL     1      -0.520   1.685 -21.349  0.00  0.00    +0.019 A 
ATOM     10  C   UNL     1       0.644   1.726 -21.928  0.00  0.00    +0.092 A 
ATOM     11  C   UNL     1       0.777   2.317 -23.078  0.00  0.00    +0.337 A 
ATOM     12  O   UNL     1      -0.253   2.865 -23.650  0.00  0.00    -0.418 OA
ATOM     13  O   UNL     1       1.940   2.359 -23.656  0.00  0.00    -0.245 OA
ATOM     14  C   UNL     1      -1.417   2.824 -23.072  0.00  0.00    +0.184 A 
ENDROOT
BRANCH   1  16
ATOM     15  C   UNL     1      -2.616   3.329 -25.889  0.00  0.00    +0.277 C 
ATOM     16  O   UNL     1      -2.315   3.963 -24.795  0.00  0.00    -0.488 OA
ENDBRANCH   1  16
TORSDOF 1
ENDMDL
MODEL 2
REMARK VINA RESULT:    -8.242      1.067      4.377
REMARK INTER + INTRA:          -8.670
REMARK INTER:                  -8.710
REMARK INTRA:                   0.040
REMARK UNBOUND:                 0.054
REMARK  Name = ZINC000002548959
REMARK  2 active torsions:
REMARK  status: ('A' for Active; 'I' for Inactive)
REMARK    1  A    between atoms: C_1  and  O_2
REMARK    2  A    between atoms: O_2  and  C_3
REMARK                            x       y       z     vdW  Elec       q    Type
REMARK                         _______ _______ _______ _____ _____    ______ ____
ROOT
ATOM      1  C   UNL     1      -1.559   2.532 -23.624  0.00  0.00    +0.206 A 
ATOM      2  C   UNL     1      -0.485   2.135 -23.007  0.00  0.00    +0.180 A 
ATOM      3  O   UNL     1       0.697   1.809 -23.440  0.00  0.00    -0.459 OA
ATOM      4  C   UNL     1       1.423   1.481 -22.414  0.00  0.00    +0.196 A 
ATOM      5  C   UNL     1       0.691   1.603 -21.347  0.00  0.00    +0.050 A 
ATOM      6  C   UNL     1      -0.489   2.008 -21.714  0.00  0.00    +0.025 A 
ATOM      7  C   UNL     1      -1.565   2.277 -21.037  0.00  0.00    +0.023 A 
ATOM      8  C   UNL     1      -2.639   2.673 -21.654  0.00  0.00    +0.022 A 
ATOM      9  C   UNL     1      -3.716   2.942 -20.977  0.00  0.00    +0.019 A 
ATOM     10  C   UNL     1      -4.790   3.339 -21.594  0.00  0.00    +0.092 A 
ATOM     11  C   UNL     1      -4.786   3.466 -22.887  0.00  0.00    +0.337 A 
ATOM     12  O   UNL     1      -3.709   3.197 -23.564  0.00  0.00    -0.418 OA
ATOM     13  O   UNL     1      -5.859   3.863 -23.504  0.00  0.00    -0.245 OA
ATOM     14  C   UNL     1      -2.636   2.801 -22.947  0.00  0.00    +0.184 A 
ENDROOT
BRANCH   1  16
ATOM     15  C   UNL     1      -1.002   3.700 -25.467  0.00  0.00    +0.277 C 
ATOM     16  O   UNL     1      -1.555   2.660 -24.918  0.00  0.00    -0.488 OA
ENDBRANCH   1  16
TORSDOF 1
ENDMDL
MODEL 3
REMARK VINA RESULT:    -8.155      1.860      4.396
REMARK INTER + INTRA:          -8.578
REMARK INTER:                  -8.615
REMARK INTRA:                   0.037
REMARK UNBOUND:                 0.054
REMARK  Name = ZINC000002548959
REMARK  2 active torsions:
REMARK  status: ('A' for Active; 'I' for Inactive)
REMARK    1  A    between atoms: C_1  and  O_2
REMARK    2  A    between atoms: O_2  and  C_3
REMARK                            x       y       z     vdW  Elec       q    Type
REMARK                         _______ _______ _______ _____ _____    ______ ____
ROOT
ATOM      1  C   UNL     1      -2.283   3.229 -24.380  0.00  0.00    +0.206 A 
ATOM      2  C   UNL     1      -1.057   3.617 -24.573  0.00  0.00    +0.180 A 
ATOM      3  O   UNL     1      -0.284   3.574 -25.618  0.00  0.00    -0.459 OA
ATOM      4  C   UNL     1       0.860   4.095 -25.292  0.00  0.00    +0.196 A 
ATOM      5  C   UNL     1       0.797   4.461 -24.047  0.00  0.00    +0.050 A 
ATOM      6  C   UNL     1      -0.389   4.166 -23.602  0.00  0.00    +0.025 A 
ATOM      7  C   UNL     1      -0.945   4.325 -22.438  0.00  0.00    +0.023 A 
ATOM      8  C   UNL     1      -2.171   3.937 -22.245  0.00  0.00    +0.022 A 
ATOM      9  C   UNL     1      -2.728   4.096 -21.081  0.00  0.00    +0.019 A 
ATOM     10  C   UNL     1      -3.954   3.708 -20.888  0.00  0.00    +0.092 A 
ATOM     11  C   UNL     1      -4.622   3.160 -21.859  0.00  0.00    +0.337 A 
ATOM     12  O   UNL     1      -4.065   3.000 -23.023  0.00  0.00    -0.418 OA
ATOM     13  O   UNL     1      -5.847   2.771 -21.667  0.00  0.00    -0.245 OA
ATOM     14  C   UNL     1      -2.840   3.388 -23.216  0.00  0.00    +0.184 A 
ENDROOT
BRANCH   1  16
ATOM     15  C   UNL     1      -3.515   3.426 -26.254  0.00  0.00    +0.277 C 
ATOM     16  O   UNL     1      -2.951   2.681 -25.351  0.00  0.00    -0.488 OA
ENDBRANCH   1  16
TORSDOF 1
ENDMDL
MODEL 4
REMARK VINA RESULT:    -7.931      1.560      5.100
REMARK INTER + INTRA:          -8.340
REMARK INTER:                  -8.452
REMARK INTRA:                   0.112
REMARK UNBOUND:                 0.054
REMARK  Name = ZINC000002548959
REMARK  2 active torsions:
REMARK  status: ('A' for Active; 'I' for Inactive)
REMARK    1  A    between atoms: C_1  and  O_2
REMARK    2  A    between atoms: O_2  and  C_3
REMARK                            x       y       z     vdW  Elec       q    Type
REMARK                         _______ _______ _______ _____ _____    ______ ____
ROOT
ATOM      1  C   UNL     1      -1.459   3.009 -22.812  0.00  0.00    +0.206 A 
ATOM      2  C   UNL     1      -0.467   3.128 -23.643  0.00  0.00    +0.180 A 
ATOM      3  O   UNL     1       0.808   2.906 -23.515  0.00  0.00    -0.459 OA
ATOM      4  C   UNL     1       1.379   3.180 -24.648  0.00  0.00    +0.196 A 
ATOM      5  C   UNL     1       0.459   3.572 -25.478  0.00  0.00    +0.050 A 
ATOM      6  C   UNL     1      -0.682   3.540 -24.857  0.00  0.00    +0.025 A 
ATOM      7  C   UNL     1      -1.889   3.833 -25.240  0.00  0.00    +0.023 A 
ATOM      8  C   UNL     1      -2.882   3.714 -24.408  0.00  0.00    +0.022 A 
ATOM      9  C   UNL     1      -4.089   4.007 -24.791  0.00  0.00    +0.019 A 
ATOM     10  C   UNL     1      -5.082   3.888 -23.959  0.00  0.00    +0.092 A 
ATOM     11  C   UNL     1      -4.867   3.476 -22.745  0.00  0.00    +0.337 A 
ATOM     12  O   UNL     1      -3.659   3.183 -22.363  0.00  0.00    -0.418 OA
ATOM     13  O   UNL     1      -5.858   3.356 -21.914  0.00  0.00    -0.245 OA
ATOM     14  C   UNL     1      -2.667   3.302 -23.194  0.00  0.00    +0.184 A 
ENDROOT
BRANCH   1  16
ATOM     15  C   UNL     1      -0.836   1.380 -21.387  0.00  0.00    +0.277 C 
ATOM     16  O   UNL     1      -1.244   2.597 -21.598  0.00  0.00    -0.488 OA
ENDBRANCH   1  16
TORSDOF 1
ENDMDL
MODEL 5
REMARK VINA RESULT:    -7.834      1.614      2.785
REMARK INTER + INTRA:          -8.238
REMARK INTER:                  -8.311
REMARK INTRA:                   0.073
REMARK UNBOUND:                 0.054
REMARK  Name = ZINC000002548959
REMARK  2 active torsions:
REMARK  status: ('A' for Active; 'I' for Inactive)
REMARK    1  A    between atoms: C_1  and  O_2
REMARK    2  A    between atoms: O_2  and  C_3
REMARK                            x       y       z     vdW  Elec       q    Type
REMARK                         _______ _______ _______ _____ _____    ______ ____
ROOT
ATOM      1  C   UNL     1      -2.790   2.892 -22.338  0.00  0.00    +0.206 A 
ATOM      2  C   UNL     1      -3.492   3.397 -23.310  0.00  0.00    +0.180 A 
ATOM      3  O   UNL     1      -4.742   3.746 -23.391  0.00  0.00    -0.459 OA
ATOM      4  C   UNL     1      -4.954   4.201 -24.589  0.00  0.00    +0.196 A 
ATOM      5  C   UNL     1      -3.836   4.134 -25.249  0.00  0.00    +0.050 A 
ATOM      6  C   UNL     1      -2.932   3.637 -24.458  0.00  0.00    +0.025 A 
ATOM      7  C   UNL     1      -1.672   3.372 -24.636  0.00  0.00    +0.023 A 
ATOM      8  C   UNL     1      -0.971   2.867 -23.664  0.00  0.00    +0.022 A 
ATOM      9  C   UNL     1       0.290   2.602 -23.842  0.00  0.00    +0.019 A 
ATOM     10  C   UNL     1       0.991   2.096 -22.870  0.00  0.00    +0.092 A 
ATOM     11  C   UNL     1       0.431   1.857 -21.721  0.00  0.00    +0.337 A 
ATOM     12  O   UNL     1      -0.829   2.122 -21.544  0.00  0.00    -0.418 OA
ATOM     13  O   UNL     1       1.132   1.352 -20.750  0.00  0.00    -0.245 OA
ATOM     14  C   UNL     1      -1.530   2.627 -22.516  0.00  0.00    +0.184 A 
ENDROOT
BRANCH   1  16
ATOM     15  C   UNL     1      -3.321   3.552 -20.251  0.00  0.00    +0.277 C 
ATOM     16  O   UNL     1      -3.350   2.653 -21.189  0.00  0.00    -0.488 OA
ENDBRANCH   1  16
TORSDOF 1
ENDMDL
MODEL 6
REMARK VINA RESULT:    -7.711      1.564      2.746
REMARK INTER + INTRA:          -8.108
REMARK INTER:                  -8.234
REMARK INTRA:                   0.126
REMARK UNBOUND:                 0.054
REMARK  Name = ZINC000002548959
REMARK  2 active torsions:
REMARK  status: ('A' for Active; 'I' for Inactive)
REMARK    1  A    between atoms: C_1  and  O_2
REMARK    2  A    between atoms: O_2  and  C_3
REMARK                            x       y       z     vdW  Elec       q    Type
REMARK                         _______ _______ _______ _____ _____    ______ ____
ROOT
ATOM      1  C   UNL     1      -2.470   3.137 -22.486  0.00  0.00    +0.206 A 
ATOM      2  C   UNL     1      -3.566   3.447 -23.114  0.00  0.00    +0.180 A 
ATOM      3  O   UNL     1      -4.809   3.473 -22.734  0.00  0.00    -0.459 OA
ATOM      4  C   UNL     1      -5.530   3.856 -23.744  0.00  0.00    +0.196 A 
ATOM      5  C   UNL     1      -4.734   4.067 -24.749  0.00  0.00    +0.050 A 
ATOM      6  C   UNL     1      -3.520   3.815 -24.360  0.00  0.00    +0.025 A 
ATOM      7  C   UNL     1      -2.378   3.872 -24.978  0.00  0.00    +0.023 A 
ATOM      8  C   UNL     1      -1.282   3.562 -24.351  0.00  0.00    +0.022 A 
ATOM      9  C   UNL     1      -0.140   3.619 -24.970  0.00  0.00    +0.019 A 
ATOM     10  C   UNL     1       0.956   3.309 -24.342  0.00  0.00    +0.092 A 
ATOM     11  C   UNL     1       0.909   2.941 -23.096  0.00  0.00    +0.337 A 
ATOM     12  O   UNL     1      -0.233   2.884 -22.477  0.00  0.00    -0.418 OA
ATOM     13  O   UNL     1       2.004   2.631 -22.469  0.00  0.00    -0.245 OA
ATOM     14  C   UNL     1      -1.329   3.194 -23.105  0.00  0.00    +0.184 A 
ENDROOT
BRANCH   1  16
ATOM     15  C   UNL     1      -2.904   3.611 -20.328  0.00  0.00    +0.277 C 
ATOM     16  O   UNL     1      -2.517   2.770 -21.240  0.00  0.00    -0.488 OA
ENDBRANCH   1  16
TORSDOF 1
ENDMDL
MODEL 7
REMARK VINA RESULT:    -7.434      1.959      3.488
REMARK INTER + INTRA:          -7.814
REMARK INTER:                  -7.849
REMARK INTRA:                   0.035
REMARK UNBOUND:                 0.054
REMARK  Name = ZINC000002548959
REMARK  2 active torsions:
REMARK  status: ('A' for Active; 'I' for Inactive)
REMARK    1  A    between atoms: C_1  and  O_2
REMARK    2  A    between atoms: O_2  and  C_3
REMARK                            x       y       z     vdW  Elec       q    Type
REMARK                         _______ _______ _______ _____ _____    ______ ____
ROOT
ATOM      1  C   UNL     1      -0.265   2.544 -23.050  0.00  0.00    +0.206 A 
ATOM      2  C   UNL     1      -1.400   3.019 -23.471  0.00  0.00    +0.180 A 
ATOM      3  O   UNL     1      -2.589   2.499 -23.541  0.00  0.00    -0.459 OA
ATOM      4  C   UNL     1      -3.389   3.391 -24.041  0.00  0.00    +0.196 A 
ATOM      5  C   UNL     1      -2.696   4.464 -24.282  0.00  0.00    +0.050 A 
ATOM      6  C   UNL     1      -1.466   4.234 -23.929  0.00  0.00    +0.025 A 
ATOM      7  C   UNL     1      -0.397   4.974 -23.967  0.00  0.00    +0.023 A 
ATOM      8  C   UNL     1       0.737   4.499 -23.545  0.00  0.00    +0.022 A 
ATOM      9  C   UNL     1       1.806   5.238 -23.583  0.00  0.00    +0.019 A 
ATOM     10  C   UNL     1       2.941   4.763 -23.161  0.00  0.00    +0.092 A 
ATOM     11  C   UNL     1       3.006   3.548 -22.703  0.00  0.00    +0.337 A 
ATOM     12  O   UNL     1       1.938   2.809 -22.666  0.00  0.00    -0.418 OA
ATOM     13  O   UNL     1       4.140   3.073 -22.282  0.00  0.00    -0.245 OA
ATOM     14  C   UNL     1       0.803   3.284 -23.087  0.00  0.00    +0.184 A 
ENDROOT
BRANCH   1  16
ATOM     15  C   UNL     1      -0.538   1.079 -21.362  0.00  0.00    +0.277 C 
ATOM     16  O   UNL     1      -0.200   1.329 -22.592  0.00  0.00    -0.488 OA
ENDBRANCH   1  16
TORSDOF 1
ENDMDL
MODEL 8
REMARK VINA RESULT:    -7.429      1.459      2.102
REMARK INTER + INTRA:          -7.809
REMARK INTER:                  -7.945
REMARK INTRA:                   0.136
REMARK UNBOUND:                 0.054
REMARK  Name = ZINC000002548959
REMARK  2 active torsions:
REMARK  status: ('A' for Active; 'I' for Inactive)
REMARK    1  A    between atoms: C_1  and  O_2
REMARK    2  A    between atoms: O_2  and  C_3
REMARK                            x       y       z     vdW  Elec       q    Type
REMARK                         _______ _______ _______ _____ _____    ______ ____
ROOT
ATOM      1  C   UNL     1      -1.002   3.023 -24.486  0.00  0.00    +0.206 A 
ATOM      2  C   UNL     1      -2.215   3.460 -24.662  0.00  0.00    +0.180 A 
ATOM      3  O   UNL     1      -2.800   4.018 -25.680  0.00  0.00    -0.459 OA
ATOM      4  C   UNL     1      -4.029   4.271 -25.346  0.00  0.00    +0.196 A 
ATOM      5  C   UNL     1      -4.206   3.870 -24.123  0.00  0.00    +0.050 A 
ATOM      6  C   UNL     1      -3.083   3.368 -23.699  0.00  0.00    +0.025 A 
ATOM      7  C   UNL     1      -2.741   2.840 -22.562  0.00  0.00    +0.023 A 
ATOM      8  C   UNL     1      -1.529   2.403 -22.387  0.00  0.00    +0.022 A 
ATOM      9  C   UNL     1      -1.186   1.875 -21.249  0.00  0.00    +0.019 A 
ATOM     10  C   UNL     1       0.026   1.438 -21.074  0.00  0.00    +0.092 A 
ATOM     11  C   UNL     1       0.895   1.530 -22.037  0.00  0.00    +0.337 A 
ATOM     12  O   UNL     1       0.553   2.058 -23.174  0.00  0.00    -0.418 OA
ATOM     13  O   UNL     1       2.107   1.093 -21.862  0.00  0.00    -0.245 OA
ATOM     14  C   UNL     1      -0.660   2.495 -23.349  0.00  0.00    +0.184 A 
ENDROOT
BRANCH   1  16
ATOM     15  C   UNL     1       0.734   4.083 -25.452  0.00  0.00    +0.277 C 
ATOM     16  O   UNL     1      -0.133   3.115 -25.449  0.00  0.00    -0.488 OA
ENDBRANCH   1  16
TORSDOF 1
ENDMDL
MODEL 9
REMARK VINA RESULT:    -7.326      2.678      6.265
REMARK INTER + INTRA:          -7.700
REMARK INTER:                  -7.754
REMARK INTRA:                   0.054
REMARK UNBOUND:                 0.054
REMARK  Name = ZINC000002548959
REMARK  2 active torsions:
REMARK  status: ('A' for Active; 'I' for Inactive)
REMARK    1  A    between atoms: C_1  and  O_2
REMARK    2  A    between atoms: O_2  and  C_3
REMARK                            x       y       z     vdW  Elec       q    Type
REMARK                         _______ _______ _______ _____ _____    ______ ____
ROOT
ATOM      1  C   UNL     1       2.376   2.422 -23.575  0.00  0.00    +0.206 A 
ATOM      2  C   UNL     1       3.469   3.106 -23.403  0.00  0.00    +0.180 A 
ATOM      3  O   UNL     1       4.718   2.751 -23.344  0.00  0.00    -0.459 OA
ATOM      4  C   UNL     1       5.430   3.821 -23.157  0.00  0.00    +0.196 A 
ATOM      5  C   UNL     1       4.624   4.838 -23.100  0.00  0.00    +0.050 A 
ATOM      6  C   UNL     1       3.410   4.396 -23.252  0.00  0.00    +0.025 A 
ATOM      7  C   UNL     1       2.260   5.002 -23.273  0.00  0.00    +0.023 A 
ATOM      8  C   UNL     1       1.168   4.318 -23.445  0.00  0.00    +0.022 A 
ATOM      9  C   UNL     1       0.018   4.924 -23.466  0.00  0.00    +0.019 A 
ATOM     10  C   UNL     1      -1.074   4.240 -23.638  0.00  0.00    +0.092 A 
ATOM     11  C   UNL     1      -1.016   2.950 -23.789  0.00  0.00    +0.337 A 
ATOM     12  O   UNL     1       0.134   2.344 -23.768  0.00  0.00    -0.418 OA
ATOM     13  O   UNL     1      -2.108   2.266 -23.961  0.00  0.00    -0.245 OA
ATOM     14  C   UNL     1       1.226   3.028 -23.596  0.00  0.00    +0.184 A 
ENDROOT
BRANCH   1  16
ATOM     15  C   UNL     1       2.684   0.369 -22.704  0.00  0.00    +0.277 C 
ATOM     16  O   UNL     1       2.434   1.132 -23.726  0.00  0.00    -0.488 OA
ENDBRANCH   1  16
TORSDOF 1
ENDMDL
