MODEL 1
REMARK VINA RESULT:   -10.644      0.000      0.000
REMARK INTER + INTRA:         -14.659
REMARK INTER:                 -13.986
REMARK INTRA:                  -0.672
REMARK UNBOUND:                -1.526
REMARK  Name = COc1ccc2c(c1Oc1nnnn1-c1ccccc1)[C@@]13C=CC=C[C@@H]1[C@@H](C2)N(C)CC3  ZINC000253504729
REMARK  6 active torsions:
REMARK  status: ('A' for Active; 'I' for Inactive)
REMARK    1  A    between atoms: C_1  and  O_2
REMARK    2  A    between atoms: O_2  and  C_3
REMARK    3  A    between atoms: C_8  and  O_9
REMARK    4  A    between atoms: O_9  and  C_10
REMARK    5  A    between atoms: N_14  and  C_15
REMARK    6  A    between atoms: N_29  and  C_30
REMARK                            x       y       z     vdW  Elec       q    Type
REMARK                         _______ _______ _______ _____ _____    ______ ____
ROOT
ATOM      1  C   UNL     1      -1.512   3.342 -25.405  0.00  0.00    +0.163 A 
ATOM      2  C   UNL     1      -2.498   3.483 -26.181  0.00  0.00    +0.050 A 
ATOM      3  C   UNL     1      -3.653   3.600 -25.683  0.00  0.00    +0.008 A 
ATOM      4  C   UNL     1      -3.808   3.568 -24.229  0.00  0.00    -0.034 A 
ATOM      5  C   UNL     1      -2.932   3.446 -23.642  0.00  0.00    +0.013 A 
ATOM      6  C   UNL     1      -2.805   3.399 -22.706  0.00  0.00    +0.034 C 
ATOM      7  C   UNL     1      -1.766   3.254 -22.007  0.00  0.00    -0.014 C 
ATOM      8  C   UNL     1      -1.856   3.220 -20.715  0.00  0.00    -0.004 C 
ATOM      9  C   UNL     1      -3.021   3.335 -20.118  0.00  0.00    -0.004 C 
ATOM     10  C   UNL     1      -4.115   3.486 -20.799  0.00  0.00    -0.017 C 
ATOM     11  C   UNL     1      -2.824   3.459 -24.381  0.00  0.00    +0.067 C 
ATOM     12  C   UNL     1      -4.105   3.632 -25.081  0.00  0.00    +0.132 C 
ATOM     13  N   UNL     1      -5.091   3.725 -24.459  0.00  0.00    +0.236 N 
ATOM     14  H   UNL     1      -5.732   3.773 -23.666  0.00  0.00    +0.203 HD
ATOM     15  C   UNL     1      -5.803   3.846 -25.561  0.00  0.00    +0.190 C 
ATOM     16  C   UNL     1      -5.100   3.672 -22.875  0.00  0.00    +0.076 C 
ATOM     17  C   UNL     1      -4.067   3.523 -22.056  0.00  0.00    +0.075 C 
ATOM     18  C   UNL     1      -4.964   3.685 -23.729  0.00  0.00    +0.090 C 
ATOM     19  C   UNL     1      -1.716   3.321 -24.134  0.00  0.00    +0.178 A 
ENDROOT
BRANCH   1  21
ATOM     20  C   UNL     1       0.638   4.125 -25.902  0.00  0.00    +0.277 C 
ATOM     21  O   UNL     1      -0.202   3.200 -25.732  0.00  0.00    -0.491 OA
ENDBRANCH   1  21
BRANCH  19  22
ATOM     22  O   UNL     1      -0.713   3.163 -22.939  0.00  0.00    -0.418 OA
BRANCH  22  23
ATOM     23  C   UNL     1       0.254   2.217 -22.600  0.00  0.00    +0.347 A 
ATOM     24  N   UNL     1      -0.038   1.002 -22.311  0.00  0.00    -0.070 NA
ATOM     25  N   UNL     1       1.047   0.384 -22.047  0.00  0.00    -0.019 NA
ATOM     26  N   UNL     1       2.019   1.211 -22.171  0.00  0.00    -0.036 NA
ATOM     27  N   UNL     1       1.528   2.345 -22.513  0.00  0.00    -0.162 N 
BRANCH  27  28
ATOM     28  C   UNL     1       2.238   3.403 -22.721  0.00  0.00    +0.072 A 
ATOM     29  C   UNL     1       1.690   4.562 -22.792  0.00  0.00    +0.028 A 
ATOM     30  C   UNL     1       2.412   5.600 -22.999  0.00  0.00    +0.002 A 
ATOM     31  C   UNL     1       3.682   5.482 -23.136  0.00  0.00    +0.000 A 
ATOM     32  C   UNL     1       4.229   4.325 -23.065  0.00  0.00    +0.002 A 
ATOM     33  C   UNL     1       3.507   3.287 -22.858  0.00  0.00    +0.028 A 
ENDBRANCH  27  28
ENDBRANCH  22  23
ENDBRANCH  19  22
TORSDOF 4
ENDMDL
MODEL 2
REMARK VINA RESULT:   -10.420      1.662      3.684
REMARK INTER + INTRA:         -14.382
REMARK INTER:                 -13.657
REMARK INTRA:                  -0.726
REMARK UNBOUND:                -1.526
REMARK  Name = COc1ccc2c(c1Oc1nnnn1-c1ccccc1)[C@@]13C=CC=C[C@@H]1[C@@H](C2)N(C)CC3  ZINC000253504729
REMARK  6 active torsions:
REMARK  status: ('A' for Active; 'I' for Inactive)
REMARK    1  A    between atoms: C_1  and  O_2
REMARK    2  A    between atoms: O_2  and  C_3
REMARK    3  A    between atoms: C_8  and  O_9
REMARK    4  A    between atoms: O_9  and  C_10
REMARK    5  A    between atoms: N_14  and  C_15
REMARK    6  A    between atoms: N_29  and  C_30
REMARK                            x       y       z     vdW  Elec       q    Type
REMARK                         _______ _______ _______ _____ _____    ______ ____
ROOT
ATOM      1  C   UNL     1      -1.963   2.781 -21.275  0.00  0.00    +0.163 A 
ATOM      2  C   UNL     1      -3.100   2.787 -20.726  0.00  0.00    +0.050 A 
ATOM      3  C   UNL     1      -4.119   3.009 -21.440  0.00  0.00    +0.008 A 
ATOM      4  C   UNL     1      -3.946   3.251 -22.872  0.00  0.00    -0.034 A 
ATOM      5  C   UNL     1      -2.959   3.229 -23.261  0.00  0.00    +0.013 A 
ATOM      6  C   UNL     1      -2.626   3.356 -24.137  0.00  0.00    +0.034 C 
ATOM      7  C   UNL     1      -1.454   3.331 -24.600  0.00  0.00    -0.014 C 
ATOM      8  C   UNL     1      -1.254   3.540 -25.863  0.00  0.00    -0.004 C 
ATOM      9  C   UNL     1      -2.261   3.778 -26.673  0.00  0.00    -0.004 C 
ATOM     10  C   UNL     1      -3.483   3.813 -26.239  0.00  0.00    -0.017 C 
ATOM     11  C   UNL     1      -3.018   3.103 -22.526  0.00  0.00    +0.067 C 
ATOM     12  C   UNL     1      -4.427   3.158 -22.111  0.00  0.00    +0.132 C 
ATOM     13  N   UNL     1      -5.253   3.378 -22.910  0.00  0.00    +0.236 N 
ATOM     14  H   UNL     1      -5.703   3.580 -23.803  0.00  0.00    +0.203 HD
ATOM     15  C   UNL     1      -6.195   3.300 -21.992  0.00  0.00    +0.190 C 
ATOM     16  C   UNL     1      -4.908   3.621 -24.438  0.00  0.00    +0.076 C 
ATOM     17  C   UNL     1      -3.715   3.615 -25.018  0.00  0.00    +0.075 C 
ATOM     18  C   UNL     1      -4.966   3.473 -23.588  0.00  0.00    +0.090 C 
ATOM     19  C   UNL     1      -1.879   3.001 -22.541  0.00  0.00    +0.178 A 
ENDROOT
BRANCH   1  21
ATOM     20  C   UNL     1      -0.115   1.479 -20.663  0.00  0.00    +0.277 C 
ATOM     21  O   UNL     1      -0.754   2.565 -20.695  0.00  0.00    -0.491 OA
ENDBRANCH   1  21
BRANCH  19  22
ATOM     22  O   UNL     1      -0.632   3.056 -23.489  0.00  0.00    -0.418 OA
BRANCH  22  23
ATOM     23  C   UNL     1       0.474   3.899 -23.592  0.00  0.00    +0.347 A 
ATOM     24  N   UNL     1       0.378   5.126 -23.952  0.00  0.00    -0.070 NA
ATOM     25  N   UNL     1       1.550   5.634 -23.951  0.00  0.00    -0.019 NA
ATOM     26  N   UNL     1       2.379   4.726 -23.591  0.00  0.00    -0.036 NA
ATOM     27  N   UNL     1       1.714   3.653 -23.368  0.00  0.00    -0.162 N 
BRANCH  27  28
ATOM     28  C   UNL     1       2.249   2.541 -22.986  0.00  0.00    +0.072 A 
ATOM     29  C   UNL     1       2.122   1.474 -23.688  0.00  0.00    +0.028 A 
ATOM     30  C   UNL     1       2.660   0.380 -23.292  0.00  0.00    +0.002 A 
ATOM     31  C   UNL     1       3.324   0.351 -22.195  0.00  0.00    +0.000 A 
ATOM     32  C   UNL     1       3.450   1.418 -21.494  0.00  0.00    +0.002 A 
ATOM     33  C   UNL     1       2.912   2.511 -21.890  0.00  0.00    +0.028 A 
ENDBRANCH  27  28
ENDBRANCH  22  23
ENDBRANCH  19  22
TORSDOF 4
ENDMDL
MODEL 3
REMARK VINA RESULT:    -9.274      2.117      6.846
REMARK INTER + INTRA:         -12.968
REMARK INTER:                 -12.045
REMARK INTRA:                  -0.924
REMARK UNBOUND:                -1.526
REMARK  Name = COc1ccc2c(c1Oc1nnnn1-c1ccccc1)[C@@]13C=CC=C[C@@H]1[C@@H](C2)N(C)CC3  ZINC000253504729
REMARK  6 active torsions:
REMARK  status: ('A' for Active; 'I' for Inactive)
REMARK    1  A    between atoms: C_1  and  O_2
REMARK    2  A    between atoms: O_2  and  C_3
REMARK    3  A    between atoms: C_8  and  O_9
REMARK    4  A    between atoms: O_9  and  C_10
REMARK    5  A    between atoms: N_14  and  C_15
REMARK    6  A    between atoms: N_29  and  C_30
REMARK                            x       y       z     vdW  Elec       q    Type
REMARK                         _______ _______ _______ _____ _____    ______ ____
ROOT
ATOM      1  C   UNL     1       1.306   0.958 -22.350  0.00  0.00    +0.163 A 
ATOM      2  C   UNL     1       2.280   0.196 -22.092  0.00  0.00    +0.050 A 
ATOM      3  C   UNL     1       3.446   0.682 -22.079  0.00  0.00    +0.008 A 
ATOM      4  C   UNL     1       3.626   2.106 -22.361  0.00  0.00    -0.034 A 
ATOM      5  C   UNL     1       2.760   2.682 -22.569  0.00  0.00    +0.013 A 
ATOM      6  C   UNL     1       2.649   3.599 -22.774  0.00  0.00    +0.034 C 
ATOM      7  C   UNL     1       1.621   4.285 -23.021  0.00  0.00    -0.014 C 
ATOM      8  C   UNL     1       1.734   5.550 -23.277  0.00  0.00    -0.004 C 
ATOM      9  C   UNL     1       2.912   6.132 -23.283  0.00  0.00    -0.004 C 
ATOM     10  C   UNL     1       3.996   5.464 -23.034  0.00  0.00    -0.017 C 
ATOM     11  C   UNL     1       2.638   1.958 -22.429  0.00  0.00    +0.067 C 
ATOM     12  C   UNL     1       3.909   1.271 -22.157  0.00  0.00    +0.132 C 
ATOM     13  N   UNL     1       4.908   1.879 -22.186  0.00  0.00    +0.236 N 
ATOM     14  H   UNL     1       5.564   2.654 -22.284  0.00  0.00    +0.203 HD
ATOM     15  C   UNL     1       5.601   0.798 -21.888  0.00  0.00    +0.190 C 
ATOM     16  C   UNL     1       4.945   3.430 -22.509  0.00  0.00    +0.076 C 
ATOM     17  C   UNL     1       3.925   4.234 -22.781  0.00  0.00    +0.075 C 
ATOM     18  C   UNL     1       4.794   2.594 -22.348  0.00  0.00    +0.090 C 
ATOM     19  C   UNL     1       1.533   2.202 -22.590  0.00  0.00    +0.178 A 
ENDROOT
BRANCH   1  21
ATOM     20  C   UNL     1      -0.870   0.787 -21.502  0.00  0.00    +0.277 C 
ATOM     21  O   UNL     1      -0.013   0.639 -22.414  0.00  0.00    -0.491 OA
ENDBRANCH   1  21
BRANCH  19  22
ATOM     22  O   UNL     1       0.550   3.373 -22.936  0.00  0.00    -0.418 OA
BRANCH  22  23
ATOM     23  C   UNL     1      -0.442   3.558 -23.899  0.00  0.00    +0.347 A 
ATOM     24  N   UNL     1      -0.182   3.652 -25.151  0.00  0.00    -0.070 NA
ATOM     25  N   UNL     1      -1.284   3.815 -25.775  0.00  0.00    -0.019 NA
ATOM     26  N   UNL     1      -2.234   3.822 -24.914  0.00  0.00    -0.036 NA
ATOM     27  N   UNL     1      -1.713   3.663 -23.754  0.00  0.00    -0.162 N 
BRANCH  27  28
ATOM     28  C   UNL     1      -2.396   3.623 -22.658  0.00  0.00    +0.072 A 
ATOM     29  C   UNL     1      -2.021   4.284 -21.624  0.00  0.00    +0.028 A 
ATOM     30  C   UNL     1      -2.712   4.232 -20.546  0.00  0.00    +0.002 A 
ATOM     31  C   UNL     1      -3.778   3.520 -20.500  0.00  0.00    +0.000 A 
ATOM     32  C   UNL     1      -4.152   2.859 -21.534  0.00  0.00    +0.002 A 
ATOM     33  C   UNL     1      -3.461   2.912 -22.612  0.00  0.00    +0.028 A 
ENDBRANCH  27  28
ENDBRANCH  22  23
ENDBRANCH  19  22
TORSDOF 4
ENDMDL
MODEL 4
REMARK VINA RESULT:    -9.054      1.542      2.274
REMARK INTER + INTRA:         -12.697
REMARK INTER:                 -11.723
REMARK INTRA:                  -0.973
REMARK UNBOUND:                -1.526
REMARK  Name = COc1ccc2c(c1Oc1nnnn1-c1ccccc1)[C@@]13C=CC=C[C@@H]1[C@@H](C2)N(C)CC3  ZINC000253504729
REMARK  6 active torsions:
REMARK  status: ('A' for Active; 'I' for Inactive)
REMARK    1  A    between atoms: C_1  and  O_2
REMARK    2  A    between atoms: O_2  and  C_3
REMARK    3  A    between atoms: C_8  and  O_9
REMARK    4  A    between atoms: O_9  and  C_10
REMARK    5  A    between atoms: N_14  and  C_15
REMARK    6  A    between atoms: N_29  and  C_30
REMARK                            x       y       z     vdW  Elec       q    Type
REMARK                         _______ _______ _______ _____ _____    ______ ____
ROOT
ATOM      1  C   UNL     1      -1.280   3.648 -25.742  0.00  0.00    +0.163 A 
ATOM      2  C   UNL     1      -2.321   3.604 -26.455  0.00  0.00    +0.050 A 
ATOM      3  C   UNL     1      -3.448   3.558 -25.885  0.00  0.00    +0.008 A 
ATOM      4  C   UNL     1      -3.506   3.559 -24.423  0.00  0.00    -0.034 A 
ATOM      5  C   UNL     1      -2.589   3.598 -23.893  0.00  0.00    +0.013 A 
ATOM      6  C   UNL     1      -2.399   3.608 -22.966  0.00  0.00    +0.034 C 
ATOM      7  C   UNL     1      -1.310   3.655 -22.333  0.00  0.00    -0.014 C 
ATOM      8  C   UNL     1      -1.315   3.657 -21.038  0.00  0.00    -0.004 C 
ATOM      9  C   UNL     1      -2.445   3.612 -20.369  0.00  0.00    -0.004 C 
ATOM     10  C   UNL     1      -3.589   3.564 -20.980  0.00  0.00    -0.017 C 
ATOM     11  C   UNL     1      -2.529   3.599 -24.638  0.00  0.00    +0.067 C 
ATOM     12  C   UNL     1      -3.861   3.543 -25.255  0.00  0.00    +0.132 C 
ATOM     13  N   UNL     1      -4.810   3.505 -24.573  0.00  0.00    +0.236 N 
ATOM     14  H   UNL     1      -5.401   3.483 -23.741  0.00  0.00    +0.203 HD
ATOM     15  C   UNL     1      -5.598   3.470 -25.629  0.00  0.00    +0.190 C 
ATOM     16  C   UNL     1      -4.714   3.513 -22.991  0.00  0.00    +0.076 C 
ATOM     17  C   UNL     1      -3.623   3.559 -22.238  0.00  0.00    +0.075 C 
ATOM     18  C   UNL     1      -4.634   3.514 -23.852  0.00  0.00    +0.090 C 
ATOM     19  C   UNL     1      -1.400   3.646 -24.460  0.00  0.00    +0.178 A 
ENDROOT
BRANCH   1  21
ATOM     20  C   UNL     1       0.865   2.773 -26.085  0.00  0.00    +0.277 C 
ATOM     21  O   UNL     1       0.014   3.700 -26.151  0.00  0.00    -0.491 OA
ENDBRANCH   1  21
BRANCH  19  22
ATOM     22  O   UNL     1      -0.315   3.693 -23.330  0.00  0.00    -0.418 OA
BRANCH  22  23
ATOM     23  C   UNL     1       0.898   4.364 -23.175  0.00  0.00    +0.347 A 
ATOM     24  N   UNL     1       1.011   5.633 -23.325  0.00  0.00    -0.070 NA
ATOM     25  N   UNL     1       2.231   5.951 -23.121  0.00  0.00    -0.019 NA
ATOM     26  N   UNL     1       2.882   4.881 -22.844  0.00  0.00    -0.036 NA
ATOM     27  N   UNL     1       2.058   3.900 -22.877  0.00  0.00    -0.162 N 
BRANCH  27  28
ATOM     28  C   UNL     1       2.388   2.674 -22.644  0.00  0.00    +0.072 A 
ATOM     29  C   UNL     1       2.183   2.144 -21.493  0.00  0.00    +0.028 A 
ATOM     30  C   UNL     1       2.519   0.926 -21.281  0.00  0.00    +0.002 A 
ATOM     31  C   UNL     1       3.059   0.235 -22.217  0.00  0.00    +0.000 A 
ATOM     32  C   UNL     1       3.263   0.765 -23.367  0.00  0.00    +0.002 A 
ATOM     33  C   UNL     1       2.928   1.984 -23.579  0.00  0.00    +0.028 A 
ENDBRANCH  27  28
ENDBRANCH  22  23
ENDBRANCH  19  22
TORSDOF 4
ENDMDL
MODEL 5
REMARK VINA RESULT:    -9.031      1.640      3.524
REMARK INTER + INTRA:         -12.669
REMARK INTER:                 -11.812
REMARK INTRA:                  -0.857
REMARK UNBOUND:                -1.526
REMARK  Name = COc1ccc2c(c1Oc1nnnn1-c1ccccc1)[C@@]13C=CC=C[C@@H]1[C@@H](C2)N(C)CC3  ZINC000253504729
REMARK  6 active torsions:
REMARK  status: ('A' for Active; 'I' for Inactive)
REMARK    1  A    between atoms: C_1  and  O_2
REMARK    2  A    between atoms: O_2  and  C_3
REMARK    3  A    between atoms: C_8  and  O_9
REMARK    4  A    between atoms: O_9  and  C_10
REMARK    5  A    between atoms: N_14  and  C_15
REMARK    6  A    between atoms: N_29  and  C_30
REMARK                            x       y       z     vdW  Elec       q    Type
REMARK                         _______ _______ _______ _____ _____    ______ ____
ROOT
ATOM      1  C   UNL     1      -0.056   1.836 -21.464  0.00  0.00    +0.163 A 
ATOM      2  C   UNL     1      -1.002   1.774 -20.630  0.00  0.00    +0.050 A 
ATOM      3  C   UNL     1      -2.155   2.145 -20.990  0.00  0.00    +0.008 A 
ATOM      4  C   UNL     1      -2.353   2.631 -22.355  0.00  0.00    -0.034 A 
ATOM      5  C   UNL     1      -1.510   2.653 -22.998  0.00  0.00    +0.013 A 
ATOM      6  C   UNL     1      -1.414   2.924 -23.899  0.00  0.00    +0.034 C 
ATOM      7  C   UNL     1      -0.412   2.952 -24.665  0.00  0.00    -0.014 C 
ATOM      8  C   UNL     1      -0.542   3.374 -25.883  0.00  0.00    -0.004 C 
ATOM      9  C   UNL     1      -1.708   3.778 -26.335  0.00  0.00    -0.004 C 
ATOM     10  C   UNL     1      -2.764   3.766 -25.581  0.00  0.00    -0.017 C 
ATOM     11  C   UNL     1      -1.380   2.401 -22.307  0.00  0.00    +0.067 C 
ATOM     12  C   UNL     1      -2.619   2.418 -21.517  0.00  0.00    +0.132 C 
ATOM     13  N   UNL     1      -3.610   2.796 -22.011  0.00  0.00    +0.236 N 
ATOM     14  H   UNL     1      -4.266   3.164 -22.701  0.00  0.00    +0.203 HD
ATOM     15  C   UNL     1      -4.276   2.581 -20.894  0.00  0.00    +0.190 C 
ATOM     16  C   UNL     1      -3.668   3.296 -23.514  0.00  0.00    +0.076 C 
ATOM     17  C   UNL     1      -2.677   3.362 -24.393  0.00  0.00    +0.075 C 
ATOM     18  C   UNL     1      -3.507   3.002 -22.716  0.00  0.00    +0.090 C 
ATOM     19  C   UNL     1      -0.296   2.273 -22.651  0.00  0.00    +0.178 A 
ENDROOT
BRANCH   1  21
ATOM     20  C   UNL     1       1.883   1.497 -20.194  0.00  0.00    +0.277 C 
ATOM     21  O   UNL     1       1.245   1.490 -21.282  0.00  0.00    -0.491 OA
ENDBRANCH   1  21
BRANCH  19  22
ATOM     22  O   UNL     1       0.653   2.464 -23.883  0.00  0.00    -0.418 OA
BRANCH  22  23
ATOM     23  C   UNL     1       1.978   2.120 -24.151  0.00  0.00    +0.347 A 
ATOM     24  N   UNL     1       2.312   0.988 -24.654  0.00  0.00    -0.070 NA
ATOM     25  N   UNL     1       3.582   0.968 -24.782  0.00  0.00    -0.019 NA
ATOM     26  N   UNL     1       4.044   2.088 -24.360  0.00  0.00    -0.036 NA
ATOM     27  N   UNL     1       3.052   2.800 -23.970  0.00  0.00    -0.162 N 
BRANCH  27  28
ATOM     28  C   UNL     1       3.168   3.991 -23.486  0.00  0.00    +0.072 A 
ATOM     29  C   UNL     1       2.177   4.806 -23.497  0.00  0.00    +0.028 A 
ATOM     30  C   UNL     1       2.312   5.984 -23.011  0.00  0.00    +0.002 A 
ATOM     31  C   UNL     1       3.437   6.350 -22.514  0.00  0.00    +0.000 A 
ATOM     32  C   UNL     1       4.427   5.535 -22.503  0.00  0.00    +0.002 A 
ATOM     33  C   UNL     1       4.292   4.357 -22.989  0.00  0.00    +0.028 A 
ENDBRANCH  27  28
ENDBRANCH  22  23
ENDBRANCH  19  22
TORSDOF 4
ENDMDL
MODEL 6
REMARK VINA RESULT:    -8.826      3.697      6.529
REMARK INTER + INTRA:         -12.416
REMARK INTER:                 -11.025
REMARK INTRA:                  -1.391
REMARK UNBOUND:                -1.526
REMARK  Name = COc1ccc2c(c1Oc1nnnn1-c1ccccc1)[C@@]13C=CC=C[C@@H]1[C@@H](C2)N(C)CC3  ZINC000253504729
REMARK  6 active torsions:
REMARK  status: ('A' for Active; 'I' for Inactive)
REMARK    1  A    between atoms: C_1  and  O_2
REMARK    2  A    between atoms: O_2  and  C_3
REMARK    3  A    between atoms: C_8  and  O_9
REMARK    4  A    between atoms: O_9  and  C_10
REMARK    5  A    between atoms: N_14  and  C_15
REMARK    6  A    between atoms: N_29  and  C_30
REMARK                            x       y       z     vdW  Elec       q    Type
REMARK                         _______ _______ _______ _____ _____    ______ ____
ROOT
ATOM      1  C   UNL     1       3.698   5.694 -22.792  0.00  0.00    +0.163 A 
ATOM      2  C   UNL     1       2.554   6.014 -23.221  0.00  0.00    +0.050 A 
ATOM      3  C   UNL     1       1.708   5.101 -23.437  0.00  0.00    +0.008 A 
ATOM      4  C   UNL     1       2.082   3.710 -23.184  0.00  0.00    -0.034 A 
ATOM      5  C   UNL     1       3.062   3.519 -22.824  0.00  0.00    +0.013 A 
ATOM      6  C   UNL     1       3.503   2.714 -22.599  0.00  0.00    +0.034 C 
ATOM      7  C   UNL     1       4.667   2.485 -22.171  0.00  0.00    -0.014 C 
ATOM      8  C   UNL     1       5.040   1.268 -21.933  0.00  0.00    -0.004 C 
ATOM      9  C   UNL     1       4.220   0.261 -22.132  0.00  0.00    -0.004 C 
ATOM     10  C   UNL     1       3.014   0.451 -22.571  0.00  0.00    -0.017 C 
ATOM     11  C   UNL     1       2.898   4.239 -22.945  0.00  0.00    +0.067 C 
ATOM     12  C   UNL     1       1.520   4.371 -23.439  0.00  0.00    +0.132 C 
ATOM     13  N   UNL     1       0.866   3.412 -23.583  0.00  0.00    +0.236 N 
ATOM     14  H   UNL     1       0.578   2.433 -23.598  0.00  0.00    +0.203 HD
ATOM     15  C   UNL     1      -0.150   4.139 -24.003  0.00  0.00    +0.190 C 
ATOM     16  C   UNL     1       1.415   1.960 -23.264  0.00  0.00    +0.076 C 
ATOM     17  C   UNL     1       2.616   1.619 -22.813  0.00  0.00    +0.075 C 
ATOM     18  C   UNL     1       1.235   2.795 -23.400  0.00  0.00    +0.090 C 
ATOM     19  C   UNL     1       3.964   4.451 -22.590  0.00  0.00    +0.178 A 
ENDROOT
BRANCH   1  21
ATOM     20  C   UNL     1       4.718   7.527 -21.752  0.00  0.00    +0.277 C 
ATOM     21  O   UNL     1       4.742   6.512 -22.499  0.00  0.00    -0.491 OA
ENDBRANCH   1  21
BRANCH  19  22
ATOM     22  O   UNL     1       5.270   3.755 -22.072  0.00  0.00    -0.418 OA
BRANCH  22  23
ATOM     23  C   UNL     1       6.445   4.214 -21.477  0.00  0.00    +0.347 A 
ATOM     24  N   UNL     1       6.551   4.409 -20.214  0.00  0.00    -0.070 NA
ATOM     25  N   UNL     1       7.734   4.825 -19.973  0.00  0.00    -0.019 NA
ATOM     26  N   UNL     1       8.368   4.890 -21.085  0.00  0.00    -0.036 NA
ATOM     27  N   UNL     1       7.572   4.512 -22.015  0.00  0.00    -0.162 N 
BRANCH  27  28
ATOM     28  C   UNL     1       7.896   4.460 -23.263  0.00  0.00    +0.072 A 
ATOM     29  C   UNL     1       8.119   3.334 -23.839  0.00  0.00    +0.028 A 
ATOM     30  C   UNL     1       8.440   3.302 -25.079  0.00  0.00    +0.002 A 
ATOM     31  C   UNL     1       8.540   4.394 -25.745  0.00  0.00    +0.000 A 
ATOM     32  C   UNL     1       8.317   5.518 -25.170  0.00  0.00    +0.002 A 
ATOM     33  C   UNL     1       7.996   5.550 -23.930  0.00  0.00    +0.028 A 
ENDBRANCH  27  28
ENDBRANCH  22  23
ENDBRANCH  19  22
TORSDOF 4
ENDMDL
MODEL 7
REMARK VINA RESULT:    -8.618      3.442      6.068
REMARK INTER + INTRA:         -12.159
REMARK INTER:                 -11.063
REMARK INTRA:                  -1.097
REMARK UNBOUND:                -1.526
REMARK  Name = COc1ccc2c(c1Oc1nnnn1-c1ccccc1)[C@@]13C=CC=C[C@@H]1[C@@H](C2)N(C)CC3  ZINC000253504729
REMARK  6 active torsions:
REMARK  status: ('A' for Active; 'I' for Inactive)
REMARK    1  A    between atoms: C_1  and  O_2
REMARK    2  A    between atoms: O_2  and  C_3
REMARK    3  A    between atoms: C_8  and  O_9
REMARK    4  A    between atoms: O_9  and  C_10
REMARK    5  A    between atoms: N_14  and  C_15
REMARK    6  A    between atoms: N_29  and  C_30
REMARK                            x       y       z     vdW  Elec       q    Type
REMARK                         _______ _______ _______ _____ _____    ______ ____
ROOT
ATOM      1  C   UNL     1       2.456   5.163 -23.188  0.00  0.00    +0.163 A 
ATOM      2  C   UNL     1       1.235   5.002 -23.465  0.00  0.00    +0.050 A 
ATOM      3  C   UNL     1       0.711   3.869 -23.269  0.00  0.00    +0.008 A 
ATOM      4  C   UNL     1       1.535   2.787 -22.730  0.00  0.00    -0.034 A 
ATOM      5  C   UNL     1       2.554   2.999 -22.522  0.00  0.00    +0.013 A 
ATOM      6  C   UNL     1       3.250   2.460 -22.177  0.00  0.00    +0.034 C 
ATOM      7  C   UNL     1       4.460   2.711 -21.929  0.00  0.00    -0.014 C 
ATOM      8  C   UNL     1       5.227   1.783 -21.450  0.00  0.00    -0.004 C 
ATOM      9  C   UNL     1       4.760   0.577 -21.218  0.00  0.00    -0.004 C 
ATOM     10  C   UNL     1       3.521   0.276 -21.458  0.00  0.00    -0.017 C 
ATOM     11  C   UNL     1       2.156   3.570 -22.796  0.00  0.00    +0.067 C 
ATOM     12  C   UNL     1       0.769   3.153 -23.042  0.00  0.00    +0.132 C 
ATOM     13  N   UNL     1       0.448   2.053 -22.802  0.00  0.00    +0.236 N 
ATOM     14  H   UNL     1       0.491   1.079 -22.502  0.00  0.00    +0.203 HD
ATOM     15  C   UNL     1      -0.783   2.300 -23.203  0.00  0.00    +0.190 C 
ATOM     16  C   UNL     1       1.463   0.986 -22.216  0.00  0.00    +0.076 C 
ATOM     17  C   UNL     1       2.746   1.152 -21.924  0.00  0.00    +0.075 C 
ATOM     18  C   UNL     1       1.012   1.652 -22.533  0.00  0.00    +0.090 C 
ATOM     19  C   UNL     1       3.126   4.171 -22.716  0.00  0.00    +0.178 A 
ENDROOT
BRANCH   1  21
ATOM     20  C   UNL     1       3.559   7.074 -22.402  0.00  0.00    +0.277 C 
ATOM     21  O   UNL     1       3.203   6.289 -23.322  0.00  0.00    -0.491 OA
ENDBRANCH   1  21
BRANCH  19  22
ATOM     22  O   UNL     1       4.629   4.064 -22.284  0.00  0.00    -0.418 OA
BRANCH  22  23
ATOM     23  C   UNL     1       5.840   4.041 -22.976  0.00  0.00    +0.347 A 
ATOM     24  N   UNL     1       5.995   3.402 -24.078  0.00  0.00    -0.070 NA
ATOM     25  N   UNL     1       7.201   3.568 -24.467  0.00  0.00    -0.019 NA
ATOM     26  N   UNL     1       7.799   4.310 -23.610  0.00  0.00    -0.036 NA
ATOM     27  N   UNL     1       6.958   4.602 -22.688  0.00  0.00    -0.162 N 
BRANCH  27  28
ATOM     28  C   UNL     1       7.238   5.340 -21.666  0.00  0.00    +0.072 A 
ATOM     29  C   UNL     1       6.954   6.592 -21.659  0.00  0.00    +0.028 A 
ATOM     30  C   UNL     1       7.240   7.307 -20.635  0.00  0.00    +0.002 A 
ATOM     31  C   UNL     1       7.810   6.773 -19.617  0.00  0.00    +0.000 A 
ATOM     32  C   UNL     1       8.093   5.522 -19.624  0.00  0.00    +0.002 A 
ATOM     33  C   UNL     1       7.807   4.807 -20.648  0.00  0.00    +0.028 A 
ENDBRANCH  27  28
ENDBRANCH  22  23
ENDBRANCH  19  22
TORSDOF 4
ENDMDL
MODEL 8
REMARK VINA RESULT:    -8.184      1.772      6.579
REMARK INTER + INTRA:         -11.623
REMARK INTER:                 -11.318
REMARK INTRA:                  -0.306
REMARK UNBOUND:                -1.526
REMARK  Name = COc1ccc2c(c1Oc1nnnn1-c1ccccc1)[C@@]13C=CC=C[C@@H]1[C@@H](C2)N(C)CC3  ZINC000253504729
REMARK  6 active torsions:
REMARK  status: ('A' for Active; 'I' for Inactive)
REMARK    1  A    between atoms: C_1  and  O_2
REMARK    2  A    between atoms: O_2  and  C_3
REMARK    3  A    between atoms: C_8  and  O_9
REMARK    4  A    between atoms: O_9  and  C_10
REMARK    5  A    between atoms: N_14  and  C_15
REMARK    6  A    between atoms: N_29  and  C_30
REMARK                            x       y       z     vdW  Elec       q    Type
REMARK                         _______ _______ _______ _____ _____    ______ ____
ROOT
ATOM      1  C   UNL     1       1.498   5.215 -23.371  0.00  0.00    +0.163 A 
ATOM      2  C   UNL     1       2.462   6.024 -23.270  0.00  0.00    +0.050 A 
ATOM      3  C   UNL     1       3.616   5.568 -23.034  0.00  0.00    +0.008 A 
ATOM      4  C   UNL     1       3.795   4.124 -22.886  0.00  0.00    -0.034 A 
ATOM      5  C   UNL     1       2.937   3.508 -22.984  0.00  0.00    +0.013 A 
ATOM      6  C   UNL     1       2.827   2.570 -22.927  0.00  0.00    +0.034 C 
ATOM      7  C   UNL     1       1.809   1.836 -23.043  0.00  0.00    -0.014 C 
ATOM      8  C   UNL     1       1.921   0.551 -22.919  0.00  0.00    -0.004 C 
ATOM      9  C   UNL     1       3.087  -0.002 -22.673  0.00  0.00    -0.004 C 
ATOM     10  C   UNL     1       4.161   0.716 -22.546  0.00  0.00    -0.017 C 
ATOM     11  C   UNL     1       2.817   4.241 -23.064  0.00  0.00    +0.067 C 
ATOM     12  C   UNL     1       4.075   4.984 -22.908  0.00  0.00    +0.132 C 
ATOM     13  N   UNL     1       5.064   4.399 -22.690  0.00  0.00    +0.236 N 
ATOM     14  H   UNL     1       5.714   3.631 -22.515  0.00  0.00    +0.203 HD
ATOM     15  C   UNL     1       5.751   5.523 -22.663  0.00  0.00    +0.190 C 
ATOM     16  C   UNL     1       5.101   2.820 -22.555  0.00  0.00    +0.076 C 
ATOM     17  C   UNL     1       4.090   1.967 -22.660  0.00  0.00    +0.075 C 
ATOM     18  C   UNL     1       4.951   3.667 -22.650  0.00  0.00    +0.090 C 
ATOM     19  C   UNL     1       1.722   3.955 -23.230  0.00  0.00    +0.178 A 
ENDROOT
BRANCH   1  21
ATOM     20  C   UNL     1      -0.698   5.760 -22.767  0.00  0.00    +0.277 C 
ATOM     21  O   UNL     1       0.192   5.494 -23.619  0.00  0.00    -0.491 OA
ENDBRANCH   1  21
BRANCH  19  22
ATOM     22  O   UNL     1       0.748   2.728 -23.298  0.00  0.00    -0.418 OA
BRANCH  22  23
ATOM     23  C   UNL     1      -0.332   2.300 -22.526  0.00  0.00    +0.347 A 
ATOM     24  N   UNL     1      -0.184   1.734 -21.385  0.00  0.00    -0.070 NA
ATOM     25  N   UNL     1      -1.344   1.459 -20.924  0.00  0.00    -0.019 NA
ATOM     26  N   UNL     1      -2.216   1.853 -21.777  0.00  0.00    -0.036 NA
ATOM     27  N   UNL     1      -1.590   2.373 -22.767  0.00  0.00    -0.162 N 
BRANCH  27  28
ATOM     28  C   UNL     1      -2.174   2.871 -23.806  0.00  0.00    +0.072 A 
ATOM     29  C   UNL     1      -1.584   2.892 -24.946  0.00  0.00    +0.028 A 
ATOM     30  C   UNL     1      -2.180   3.391 -25.965  0.00  0.00    +0.002 A 
ATOM     31  C   UNL     1      -3.365   3.869 -25.847  0.00  0.00    +0.000 A 
ATOM     32  C   UNL     1      -3.953   3.848 -24.707  0.00  0.00    +0.002 A 
ATOM     33  C   UNL     1      -3.357   3.349 -23.688  0.00  0.00    +0.028 A 
ENDBRANCH  27  28
ENDBRANCH  22  23
ENDBRANCH  19  22
TORSDOF 4
ENDMDL
MODEL 9
REMARK VINA RESULT:    -7.861      3.866      6.460
REMARK INTER + INTRA:         -11.225
REMARK INTER:                  -9.699
REMARK INTRA:                  -1.526
REMARK UNBOUND:                -1.526
REMARK  Name = COc1ccc2c(c1Oc1nnnn1-c1ccccc1)[C@@]13C=CC=C[C@@H]1[C@@H](C2)N(C)CC3  ZINC000253504729
REMARK  6 active torsions:
REMARK  status: ('A' for Active; 'I' for Inactive)
REMARK    1  A    between atoms: C_1  and  O_2
REMARK    2  A    between atoms: O_2  and  C_3
REMARK    3  A    between atoms: C_8  and  O_9
REMARK    4  A    between atoms: O_9  and  C_10
REMARK    5  A    between atoms: N_14  and  C_15
REMARK    6  A    between atoms: N_29  and  C_30
REMARK                            x       y       z     vdW  Elec       q    Type
REMARK                         _______ _______ _______ _____ _____    ______ ____
ROOT
ATOM      1  C   UNL     1       4.043   0.859 -22.244  0.00  0.00    +0.163 A 
ATOM      2  C   UNL     1       2.977   0.193 -22.123  0.00  0.00    +0.050 A 
ATOM      3  C   UNL     1       1.870   0.792 -22.232  0.00  0.00    +0.008 A 
ATOM      4  C   UNL     1       1.862   2.231 -22.494  0.00  0.00    -0.034 A 
ATOM      5  C   UNL     1       2.798   2.722 -22.583  0.00  0.00    +0.013 A 
ATOM      6  C   UNL     1       3.020   3.626 -22.748  0.00  0.00    +0.034 C 
ATOM      7  C   UNL     1       4.132   4.211 -22.855  0.00  0.00    -0.014 C 
ATOM      8  C   UNL     1       4.173   5.485 -23.087  0.00  0.00    -0.004 C 
ATOM      9  C   UNL     1       3.065   6.181 -23.213  0.00  0.00    -0.004 C 
ATOM     10  C   UNL     1       1.900   5.620 -23.111  0.00  0.00    -0.017 C 
ATOM     11  C   UNL     1       2.832   1.987 -22.450  0.00  0.00    +0.067 C 
ATOM     12  C   UNL     1       1.478   1.425 -22.347  0.00  0.00    +0.132 C 
ATOM     13  N   UNL     1       0.552   2.129 -22.475  0.00  0.00    +0.236 N 
ATOM     14  H   UNL     1      -0.009   2.968 -22.628  0.00  0.00    +0.203 HD
ATOM     15  C   UNL     1      -0.272   1.118 -22.291  0.00  0.00    +0.190 C 
ATOM     16  C   UNL     1       0.704   3.682 -22.758  0.00  0.00    +0.076 C 
ATOM     17  C   UNL     1       1.822   4.384 -22.886  0.00  0.00    +0.075 C 
ATOM     18  C   UNL     1       0.754   2.832 -22.603  0.00  0.00    +0.090 C 
ATOM     19  C   UNL     1       3.967   2.123 -22.475  0.00  0.00    +0.178 A 
ENDROOT
BRANCH   1  21
ATOM     20  C   UNL     1       5.910  -0.015 -21.133  0.00  0.00    +0.277 C 
ATOM     21  O   UNL     1       5.323   0.412 -22.163  0.00  0.00    -0.491 OA
ENDBRANCH   1  21
BRANCH  19  22
ATOM     22  O   UNL     1       5.093   3.197 -22.670  0.00  0.00    -0.418 OA
BRANCH  22  23
ATOM     23  C   UNL     1       6.138   3.665 -21.875  0.00  0.00    +0.347 A 
ATOM     24  N   UNL     1       6.068   3.707 -20.595  0.00  0.00    -0.070 NA
ATOM     25  N   UNL     1       7.169   4.178 -20.151  0.00  0.00    -0.019 NA
ATOM     26  N   UNL     1       7.928   4.431 -21.153  0.00  0.00    -0.036 NA
ATOM     27  N   UNL     1       7.290   4.114 -22.218  0.00  0.00    -0.162 N 
BRANCH  27  28
ATOM     28  C   UNL     1       7.771   4.244 -23.410  0.00  0.00    +0.072 A 
ATOM     29  C   UNL     1       8.170   3.220 -24.075  0.00  0.00    +0.028 A 
ATOM     30  C   UNL     1       8.644   3.370 -25.256  0.00  0.00    +0.002 A 
ATOM     31  C   UNL     1       8.719   4.541 -25.775  0.00  0.00    +0.000 A 
ATOM     32  C   UNL     1       8.320   5.562 -25.110  0.00  0.00    +0.002 A 
ATOM     33  C   UNL     1       7.847   5.413 -23.929  0.00  0.00    +0.028 A 
ENDBRANCH  27  28
ENDBRANCH  22  23
ENDBRANCH  19  22
TORSDOF 4
ENDMDL
