MODEL 1
REMARK VINA RESULT:   -11.199      0.000      0.000
REMARK INTER + INTRA:         -11.997
REMARK INTER:                 -11.889
REMARK INTRA:                  -0.108
REMARK UNBOUND:                -0.144
REMARK  Name = COc1ccc2c3c1OC1=C[C@H](C)C=C4[C@H](C2)N(C)CC[C@]143                  ZINC000100393879
REMARK  4 active torsions:
REMARK  status: ('A' for Active; 'I' for Inactive)
REMARK    1  A    between atoms: C_1  and  O_2
REMARK    2  A    between atoms: O_2  and  C_3
REMARK    3  A    between atoms: C_12  and  C_13
REMARK    4  A    between atoms: N_18  and  C_19
REMARK                            x       y       z     vdW  Elec       q    Type
REMARK                         _______ _______ _______ _____ _____    ______ ____
ROOT
ATOM      1  C   UNL     1      -4.781   3.656 -22.918  0.00  0.00    +0.162 A 
ATOM      2  C   UNL     1      -4.913   4.091 -24.097  0.00  0.00    +0.050 A 
ATOM      3  C   UNL     1      -3.942   4.098 -24.883  0.00  0.00    +0.008 A 
ATOM      4  C   UNL     1      -2.830   3.671 -24.500  0.00  0.00    -0.034 A 
ATOM      5  C   UNL     1      -2.675   3.234 -23.331  0.00  0.00    +0.020 A 
ATOM      6  C   UNL     1      -1.563   2.810 -22.954  0.00  0.00    +0.088 C 
ATOM      7  C   UNL     1      -0.348   2.302 -22.411  0.00  0.00    +0.075 C 
ATOM      8  C   UNL     1       0.766   2.297 -23.274  0.00  0.00    +0.133 C 
ATOM      9  N   UNL     1       0.580   2.790 -24.582  0.00  0.00    +0.239 N 
ATOM     10  H   UNL     1       1.354   2.808 -25.245  0.00  0.00    +0.204 HD
ATOM     11  C   UNL     1       1.516   2.820 -25.409  0.00  0.00    +0.191 C 
ATOM     12  C   UNL     1      -0.725   3.251 -24.916  0.00  0.00    +0.096 C 
ATOM     13  C   UNL     1      -0.589   2.816 -23.738  0.00  0.00    -0.007 C 
ATOM     14  C   UNL     1       0.534   2.386 -23.353  0.00  0.00    -0.014 C 
ATOM     15  C   UNL     1       0.674   1.954 -22.187  0.00  0.00    +0.035 C 
ATOM     16  C   UNL     1       1.787   1.530 -21.811  0.00  0.00    +0.016 C 
ATOM     17  C   UNL     1      -0.305   1.945 -21.390  0.00  0.00    +0.023 C 
ATOM     18  C   UNL     1      -1.417   2.370 -21.768  0.00  0.00    +0.117 C 
ATOM     19  O   UNL     1      -2.857   2.634 -21.413  0.00  0.00    -0.455 OA
ATOM     20  C   UNL     1      -1.836   3.676 -25.298  0.00  0.00    +0.094 C 
ATOM     21  C   UNL     1      -3.654   3.226 -22.535  0.00  0.00    +0.174 A 
ENDROOT
BRANCH   1  23
ATOM     22  C   UNL     1      -6.252   2.567 -21.762  0.00  0.00    +0.277 C 
ATOM     23  O   UNL     1      -5.754   3.651 -22.136  0.00  0.00    -0.491 OA
ENDBRANCH   1  23
TORSDOF 1
ENDMDL
MODEL 2
REMARK VINA RESULT:   -11.165      1.715      4.813
REMARK INTER + INTRA:         -11.962
REMARK INTER:                 -11.831
REMARK INTRA:                  -0.131
REMARK UNBOUND:                -0.144
REMARK  Name = COc1ccc2c3c1OC1=C[C@H](C)C=C4[C@H](C2)N(C)CC[C@]143                  ZINC000100393879
REMARK  4 active torsions:
REMARK  status: ('A' for Active; 'I' for Inactive)
REMARK    1  A    between atoms: C_1  and  O_2
REMARK    2  A    between atoms: O_2  and  C_3
REMARK    3  A    between atoms: C_12  and  C_13
REMARK    4  A    between atoms: N_18  and  C_19
REMARK                            x       y       z     vdW  Elec       q    Type
REMARK                         _______ _______ _______ _____ _____    ______ ____
ROOT
ATOM      1  C   UNL     1       1.265   2.215 -22.748  0.00  0.00    +0.162 A 
ATOM      2  C   UNL     1       1.574   2.592 -23.913  0.00  0.00    +0.050 A 
ATOM      3  C   UNL     1       0.701   3.041 -24.686  0.00  0.00    +0.008 A 
ATOM      4  C   UNL     1      -0.488   3.118 -24.304  0.00  0.00    -0.034 A 
ATOM      5  C   UNL     1      -0.818   2.749 -23.148  0.00  0.00    +0.020 A 
ATOM      6  C   UNL     1      -2.006   2.829 -22.772  0.00  0.00    +0.088 C 
ATOM      7  C   UNL     1      -3.322   2.870 -22.230  0.00  0.00    +0.075 C 
ATOM      8  C   UNL     1      -4.329   3.372 -23.079  0.00  0.00    +0.133 C 
ATOM      9  N   UNL     1      -3.947   3.783 -24.372  0.00  0.00    +0.239 N 
ATOM     10  H   UNL     1      -4.637   4.154 -25.025  0.00  0.00    +0.204 HD
ATOM     11  C   UNL     1      -4.777   4.240 -25.186  0.00  0.00    +0.191 C 
ATOM     12  C   UNL     1      -2.569   3.654 -24.707  0.00  0.00    +0.096 C 
ATOM     13  C   UNL     1      -2.882   3.277 -23.542  0.00  0.00    -0.007 C 
ATOM     14  C   UNL     1      -4.082   3.356 -23.157  0.00  0.00    -0.014 C 
ATOM     15  C   UNL     1      -4.396   2.985 -22.005  0.00  0.00    +0.035 C 
ATOM     16  C   UNL     1      -5.584   3.065 -21.629  0.00  0.00    +0.016 C 
ATOM     17  C   UNL     1      -3.517   2.530 -21.220  0.00  0.00    +0.023 C 
ATOM     18  C   UNL     1      -2.329   2.451 -21.598  0.00  0.00    +0.117 C 
ATOM     19  O   UNL     1      -0.916   2.062 -21.254  0.00  0.00    -0.455 OA
ATOM     20  C   UNL     1      -1.382   3.576 -25.089  0.00  0.00    +0.094 C 
ATOM     21  C   UNL     1       0.061   2.295 -22.365  0.00  0.00    +0.174 A 
ENDROOT
BRANCH   1  23
ATOM     22  C   UNL     1       2.645   0.643 -22.190  0.00  0.00    +0.277 C 
ATOM     23  O   UNL     1       2.140   1.767 -21.979  0.00  0.00    -0.491 OA
ENDBRANCH   1  23
TORSDOF 1
ENDMDL
MODEL 3
REMARK VINA RESULT:   -11.145      2.151      5.528
REMARK INTER + INTRA:         -11.940
REMARK INTER:                 -11.828
REMARK INTRA:                  -0.112
REMARK UNBOUND:                -0.144
REMARK  Name = COc1ccc2c3c1OC1=C[C@H](C)C=C4[C@H](C2)N(C)CC[C@]143                  ZINC000100393879
REMARK  4 active torsions:
REMARK  status: ('A' for Active; 'I' for Inactive)
REMARK    1  A    between atoms: C_1  and  O_2
REMARK    2  A    between atoms: O_2  and  C_3
REMARK    3  A    between atoms: C_12  and  C_13
REMARK    4  A    between atoms: N_18  and  C_19
REMARK                            x       y       z     vdW  Elec       q    Type
REMARK                         _______ _______ _______ _____ _____    ______ ____
ROOT
ATOM      1  C   UNL     1       1.600   2.239 -23.566  0.00  0.00    +0.162 A 
ATOM      2  C   UNL     1       1.683   1.667 -22.443  0.00  0.00    +0.050 A 
ATOM      3  C   UNL     1       0.675   1.555 -21.714  0.00  0.00    +0.008 A 
ATOM      4  C   UNL     1      -0.424   2.013 -22.098  0.00  0.00    -0.034 A 
ATOM      5  C   UNL     1      -0.530   2.587 -23.212  0.00  0.00    +0.020 A 
ATOM      6  C   UNL     1      -1.629   3.041 -23.590  0.00  0.00    +0.088 C 
ATOM      7  C   UNL     1      -2.824   3.599 -24.128  0.00  0.00    +0.075 C 
ATOM      8  C   UNL     1      -3.978   3.488 -23.328  0.00  0.00    +0.133 C 
ATOM      9  N   UNL     1      -3.848   2.843 -22.081  0.00  0.00    +0.239 N 
ATOM     10  H   UNL     1      -4.653   2.736 -21.464  0.00  0.00    +0.204 HD
ATOM     11  C   UNL     1      -4.822   2.703 -21.311  0.00  0.00    +0.191 C 
ATOM     12  C   UNL     1      -2.554   2.358 -21.740  0.00  0.00    +0.096 C 
ATOM     13  C   UNL     1      -2.640   2.931 -22.862  0.00  0.00    -0.007 C 
ATOM     14  C   UNL     1      -3.749   3.393 -23.249  0.00  0.00    -0.014 C 
ATOM     15  C   UNL     1      -3.840   3.961 -24.360  0.00  0.00    +0.035 C 
ATOM     16  C   UNL     1      -4.940   4.416 -24.737  0.00  0.00    +0.016 C 
ATOM     17  C   UNL     1      -2.823   4.077 -25.100  0.00  0.00    +0.023 C 
ATOM     18  C   UNL     1      -1.724   3.621 -24.720  0.00  0.00    +0.117 C 
ATOM     19  O   UNL     1      -0.265   3.417 -25.032  0.00  0.00    -0.455 OA
ATOM     20  C   UNL     1      -1.455   1.901 -21.357  0.00  0.00    +0.094 C 
ATOM     21  C   UNL     1       0.487   2.701 -23.951  0.00  0.00    +0.174 A 
ENDROOT
BRANCH   1  23
ATOM     22  C   UNL     1       3.428   1.407 -24.376  0.00  0.00    +0.277 C 
ATOM     23  O   UNL     1       2.611   2.349 -24.293  0.00  0.00    -0.491 OA
ENDBRANCH   1  23
TORSDOF 1
ENDMDL
MODEL 4
REMARK VINA RESULT:   -10.341      1.938      5.069
REMARK INTER + INTRA:         -11.089
REMARK INTER:                 -10.976
REMARK INTRA:                  -0.113
REMARK UNBOUND:                -0.144
REMARK  Name = COc1ccc2c3c1OC1=C[C@H](C)C=C4[C@H](C2)N(C)CC[C@]143                  ZINC000100393879
REMARK  4 active torsions:
REMARK  status: ('A' for Active; 'I' for Inactive)
REMARK    1  A    between atoms: C_1  and  O_2
REMARK    2  A    between atoms: O_2  and  C_3
REMARK    3  A    between atoms: C_12  and  C_13
REMARK    4  A    between atoms: N_18  and  C_19
REMARK                            x       y       z     vdW  Elec       q    Type
REMARK                         _______ _______ _______ _____ _____    ______ ____
ROOT
ATOM      1  C   UNL     1       2.363   1.014 -22.160  0.00  0.00    +0.162 A 
ATOM      2  C   UNL     1       2.873   1.414 -23.245  0.00  0.00    +0.050 A 
ATOM      3  C   UNL     1       2.193   2.076 -24.058  0.00  0.00    +0.008 A 
ATOM      4  C   UNL     1       1.000   2.345 -23.796  0.00  0.00    -0.034 A 
ATOM      5  C   UNL     1       0.472   1.958 -22.722  0.00  0.00    +0.020 A 
ATOM      6  C   UNL     1      -0.719   2.230 -22.466  0.00  0.00    +0.088 C 
ATOM      7  C   UNL     1      -2.062   2.477 -22.064  0.00  0.00    +0.075 C 
ATOM      8  C   UNL     1      -2.854   3.221 -22.961  0.00  0.00    +0.133 C 
ATOM      9  N   UNL     1      -2.252   3.650 -24.161  0.00  0.00    +0.239 N 
ATOM     10  H   UNL     1      -2.782   4.192 -24.844  0.00  0.00    +0.204 HD
ATOM     11  C   UNL     1      -2.884   4.315 -25.009  0.00  0.00    +0.191 C 
ATOM     12  C   UNL     1      -0.889   3.290 -24.362  0.00  0.00    +0.096 C 
ATOM     13  C   UNL     1      -1.402   2.892 -23.277  0.00  0.00    -0.007 C 
ATOM     14  C   UNL     1      -2.606   3.165 -23.014  0.00  0.00    -0.014 C 
ATOM     15  C   UNL     1      -3.118   2.773 -21.942  0.00  0.00    +0.035 C 
ATOM     16  C   UNL     1      -4.310   3.046 -21.687  0.00  0.00    +0.016 C 
ATOM     17  C   UNL     1      -2.434   2.104 -21.118  0.00  0.00    +0.023 C 
ATOM     18  C   UNL     1      -1.243   1.832 -21.375  0.00  0.00    +0.117 C 
ATOM     19  O   UNL     1       0.027   1.159 -20.924  0.00  0.00    -0.455 OA
ATOM     20  C   UNL     1       0.303   3.020 -24.622  0.00  0.00    +0.094 C 
ATOM     21  C   UNL     1       1.156   1.289 -21.899  0.00  0.00    +0.174 A 
ENDROOT
BRANCH   1  23
ATOM     22  C   UNL     1       4.229   0.681 -21.114  0.00  0.00    +0.277 C 
ATOM     23  O   UNL     1       3.047   0.352 -21.351  0.00  0.00    -0.491 OA
ENDBRANCH   1  23
TORSDOF 1
ENDMDL
MODEL 5
REMARK VINA RESULT:   -10.340      2.329      5.717
REMARK INTER + INTRA:         -11.088
REMARK INTER:                 -10.954
REMARK INTRA:                  -0.133
REMARK UNBOUND:                -0.144
REMARK  Name = COc1ccc2c3c1OC1=C[C@H](C)C=C4[C@H](C2)N(C)CC[C@]143                  ZINC000100393879
REMARK  4 active torsions:
REMARK  status: ('A' for Active; 'I' for Inactive)
REMARK    1  A    between atoms: C_1  and  O_2
REMARK    2  A    between atoms: O_2  and  C_3
REMARK    3  A    between atoms: C_12  and  C_13
REMARK    4  A    between atoms: N_18  and  C_19
REMARK                            x       y       z     vdW  Elec       q    Type
REMARK                         _______ _______ _______ _____ _____    ______ ____
ROOT
ATOM      1  C   UNL     1       2.817   2.039 -23.294  0.00  0.00    +0.162 A 
ATOM      2  C   UNL     1       2.834   1.539 -22.133  0.00  0.00    +0.050 A 
ATOM      3  C   UNL     1       1.784   1.461 -21.462  0.00  0.00    +0.008 A 
ATOM      4  C   UNL     1       0.708   1.881 -21.941  0.00  0.00    -0.034 A 
ATOM      5  C   UNL     1       0.666   2.382 -23.093  0.00  0.00    +0.020 A 
ATOM      6  C   UNL     1      -0.411   2.799 -23.566  0.00  0.00    +0.088 C 
ATOM      7  C   UNL     1      -1.575   3.307 -24.211  0.00  0.00    +0.075 C 
ATOM      8  C   UNL     1      -2.776   3.232 -23.477  0.00  0.00    +0.133 C 
ATOM      9  N   UNL     1      -2.718   2.668 -22.187  0.00  0.00    +0.239 N 
ATOM     10  H   UNL     1      -3.559   2.591 -21.615  0.00  0.00    +0.204 HD
ATOM     11  C   UNL     1      -3.736   2.565 -21.471  0.00  0.00    +0.191 C 
ATOM     12  C   UNL     1      -1.443   2.222 -21.737  0.00  0.00    +0.096 C 
ATOM     13  C   UNL     1      -1.464   2.722 -22.897  0.00  0.00    -0.007 C 
ATOM     14  C   UNL     1      -2.551   3.146 -23.379  0.00  0.00    -0.014 C 
ATOM     15  C   UNL     1      -2.577   3.642 -24.527  0.00  0.00    +0.035 C 
ATOM     16  C   UNL     1      -3.655   4.059 -24.999  0.00  0.00    +0.016 C 
ATOM     17  C   UNL     1      -1.517   3.723 -25.209  0.00  0.00    +0.023 C 
ATOM     18  C   UNL     1      -0.440   3.305 -24.735  0.00  0.00    +0.117 C 
ATOM     19  O   UNL     1       1.037   3.100 -24.942  0.00  0.00    -0.455 OA
ATOM     20  C   UNL     1      -0.367   1.803 -21.259  0.00  0.00    +0.094 C 
ATOM     21  C   UNL     1       1.726   2.463 -23.774  0.00  0.00    +0.174 A 
ENDROOT
BRANCH   1  23
ATOM     22  C   UNL     1       4.731   2.976 -23.678  0.00  0.00    +0.277 C 
ATOM     23  O   UNL     1       3.870   2.116 -23.962  0.00  0.00    -0.491 OA
ENDBRANCH   1  23
TORSDOF 1
ENDMDL
MODEL 6
REMARK VINA RESULT:   -10.072      1.323      2.745
REMARK INTER + INTRA:         -10.804
REMARK INTER:                 -10.818
REMARK INTRA:                   0.014
REMARK UNBOUND:                -0.144
REMARK  Name = COc1ccc2c3c1OC1=C[C@H](C)C=C4[C@H](C2)N(C)CC[C@]143                  ZINC000100393879
REMARK  4 active torsions:
REMARK  status: ('A' for Active; 'I' for Inactive)
REMARK    1  A    between atoms: C_1  and  O_2
REMARK    2  A    between atoms: O_2  and  C_3
REMARK    3  A    between atoms: C_12  and  C_13
REMARK    4  A    between atoms: N_18  and  C_19
REMARK                            x       y       z     vdW  Elec       q    Type
REMARK                         _______ _______ _______ _____ _____    ______ ____
ROOT
ATOM      1  C   UNL     1      -4.431   3.616 -23.262  0.00  0.00    +0.162 A 
ATOM      2  C   UNL     1      -4.648   3.149 -22.109  0.00  0.00    +0.050 A 
ATOM      3  C   UNL     1      -3.720   2.642 -21.445  0.00  0.00    +0.008 A 
ATOM      4  C   UNL     1      -2.566   2.595 -21.927  0.00  0.00    -0.034 A 
ATOM      5  C   UNL     1      -2.326   3.053 -23.073  0.00  0.00    +0.020 A 
ATOM      6  C   UNL     1      -1.173   3.004 -23.548  0.00  0.00    +0.088 C 
ATOM      7  C   UNL     1       0.096   3.005 -24.194  0.00  0.00    +0.075 C 
ATOM      8  C   UNL     1       1.164   2.438 -23.470  0.00  0.00    +0.133 C 
ATOM      9  N   UNL     1       0.884   1.928 -22.186  0.00  0.00    +0.239 N 
ATOM     10  H   UNL     1       1.622   1.507 -21.622  0.00  0.00    +0.204 HD
ATOM     11  C   UNL     1       1.774   1.409 -21.480  0.00  0.00    +0.191 C 
ATOM     12  C   UNL     1      -0.462   2.031 -21.733  0.00  0.00    +0.096 C 
ATOM     13  C   UNL     1      -0.241   2.496 -22.887  0.00  0.00    -0.007 C 
ATOM     14  C   UNL     1       0.924   2.449 -23.371  0.00  0.00    -0.014 C 
ATOM     15  C   UNL     1       1.148   2.909 -24.513  0.00  0.00    +0.035 C 
ATOM     16  C   UNL     1       2.302   2.859 -24.987  0.00  0.00    +0.016 C 
ATOM     17  C   UNL     1       0.212   3.423 -25.187  0.00  0.00    +0.023 C 
ATOM     18  C   UNL     1      -0.942   3.471 -24.710  0.00  0.00    +0.117 C 
ATOM     19  O   UNL     1      -2.376   3.886 -24.910  0.00  0.00    -0.455 OA
ATOM     20  C   UNL     1      -1.615   2.078 -21.253  0.00  0.00    +0.094 C 
ATOM     21  C   UNL     1      -3.262   3.567 -23.745  0.00  0.00    +0.174 A 
ENDROOT
BRANCH   1  23
ATOM     22  C   UNL     1      -5.556   3.771 -25.106  0.00  0.00    +0.277 C 
ATOM     23  O   UNL     1      -5.363   4.123 -23.922  0.00  0.00    -0.491 OA
ENDBRANCH   1  23
TORSDOF 1
ENDMDL
MODEL 7
REMARK VINA RESULT:    -9.835      2.078      3.631
REMARK INTER + INTRA:         -10.554
REMARK INTER:                 -10.412
REMARK INTRA:                  -0.142
REMARK UNBOUND:                -0.144
REMARK  Name = COc1ccc2c3c1OC1=C[C@H](C)C=C4[C@H](C2)N(C)CC[C@]143                  ZINC000100393879
REMARK  4 active torsions:
REMARK  status: ('A' for Active; 'I' for Inactive)
REMARK    1  A    between atoms: C_1  and  O_2
REMARK    2  A    between atoms: O_2  and  C_3
REMARK    3  A    between atoms: C_12  and  C_13
REMARK    4  A    between atoms: N_18  and  C_19
REMARK                            x       y       z     vdW  Elec       q    Type
REMARK                         _______ _______ _______ _____ _____    ______ ____
ROOT
ATOM      1  C   UNL     1      -2.291   3.756 -23.359  0.00  0.00    +0.162 A 
ATOM      2  C   UNL     1      -2.795   2.914 -22.565  0.00  0.00    +0.050 A 
ATOM      3  C   UNL     1      -2.062   2.149 -21.903  0.00  0.00    +0.008 A 
ATOM      4  C   UNL     1      -0.819   2.218 -22.028  0.00  0.00    -0.034 A 
ATOM      5  C   UNL     1      -0.295   3.048 -22.813  0.00  0.00    +0.020 A 
ATOM      6  C   UNL     1       0.946   3.112 -22.933  0.00  0.00    +0.088 C 
ATOM      7  C   UNL     1       2.343   3.279 -23.156  0.00  0.00    +0.075 C 
ATOM      8  C   UNL     1       3.196   2.430 -22.423  0.00  0.00    +0.133 C 
ATOM      9  N   UNL     1       2.597   1.503 -21.546  0.00  0.00    +0.239 N 
ATOM     10  H   UNL     1       3.170   0.866 -20.993  0.00  0.00    +0.204 HD
ATOM     11  C   UNL     1       3.281   0.715 -20.860  0.00  0.00    +0.191 C 
ATOM     12  C   UNL     1       1.175   1.507 -21.479  0.00  0.00    +0.096 C 
ATOM     13  C   UNL     1       1.683   2.349 -22.273  0.00  0.00    -0.007 C 
ATOM     14  C   UNL     1       2.937   2.417 -22.398  0.00  0.00    -0.014 C 
ATOM     15  C   UNL     1       3.445   3.248 -23.183  0.00  0.00    +0.035 C 
ATOM     16  C   UNL     1       4.687   3.312 -23.303  0.00  0.00    +0.016 C 
ATOM     17  C   UNL     1       2.707   4.023 -23.854  0.00  0.00    +0.023 C 
ATOM     18  C   UNL     1       1.466   3.958 -23.732  0.00  0.00    +0.117 C 
ATOM     19  O   UNL     1       0.124   4.495 -24.155  0.00  0.00    -0.455 OA
ATOM     20  C   UNL     1      -0.067   1.439 -21.354  0.00  0.00    +0.094 C 
ATOM     21  C   UNL     1      -1.033   3.822 -23.483  0.00  0.00    +0.174 A 
ENDROOT
BRANCH   1  23
ATOM     22  C   UNL     1      -3.470   4.156 -25.131  0.00  0.00    +0.277 C 
ATOM     23  O   UNL     1      -3.028   4.519 -24.019  0.00  0.00    -0.491 OA
ENDBRANCH   1  23
TORSDOF 1
ENDMDL
MODEL 8
REMARK VINA RESULT:    -9.211      2.359      4.668
REMARK INTER + INTRA:          -9.893
REMARK INTER:                  -9.749
REMARK INTRA:                  -0.144
REMARK UNBOUND:                -0.144
REMARK  Name = COc1ccc2c3c1OC1=C[C@H](C)C=C4[C@H](C2)N(C)CC[C@]143                  ZINC000100393879
REMARK  4 active torsions:
REMARK  status: ('A' for Active; 'I' for Inactive)
REMARK    1  A    between atoms: C_1  and  O_2
REMARK    2  A    between atoms: O_2  and  C_3
REMARK    3  A    between atoms: C_12  and  C_13
REMARK    4  A    between atoms: N_18  and  C_19
REMARK                            x       y       z     vdW  Elec       q    Type
REMARK                         _______ _______ _______ _____ _____    ______ ____
ROOT
ATOM      1  C   UNL     1      -0.191   3.662 -25.304  0.00  0.00    +0.162 A 
ATOM      2  C   UNL     1      -0.993   3.597 -26.279  0.00  0.00    +0.050 A 
ATOM      3  C   UNL     1      -2.223   3.505 -26.082  0.00  0.00    +0.008 A 
ATOM      4  C   UNL     1      -2.664   3.477 -24.911  0.00  0.00    -0.034 A 
ATOM      5  C   UNL     1      -1.885   3.540 -23.926  0.00  0.00    +0.020 A 
ATOM      6  C   UNL     1      -2.331   3.512 -22.761  0.00  0.00    +0.088 C 
ATOM      7  C   UNL     1      -2.719   3.489 -21.391  0.00  0.00    +0.075 C 
ATOM      8  C   UNL     1      -4.101   3.386 -21.137  0.00  0.00    +0.133 C 
ATOM      9  N   UNL     1      -4.966   3.316 -22.249  0.00  0.00    +0.239 N 
ATOM     10  H   UNL     1      -5.974   3.241 -22.118  0.00  0.00    +0.204 HD
ATOM     11  C   UNL     1      -6.204   3.223 -22.110  0.00  0.00    +0.191 C 
ATOM     12  C   UNL     1      -4.361   3.356 -23.537  0.00  0.00    +0.096 C 
ATOM     13  C   UNL     1      -3.562   3.420 -22.560  0.00  0.00    -0.007 C 
ATOM     14  C   UNL     1      -4.009   3.392 -21.380  0.00  0.00    -0.014 C 
ATOM     15  C   UNL     1      -3.222   3.456 -20.409  0.00  0.00    +0.035 C 
ATOM     16  C   UNL     1      -3.669   3.427 -19.244  0.00  0.00    +0.016 C 
ATOM     17  C   UNL     1      -1.977   3.548 -20.604  0.00  0.00    +0.023 C 
ATOM     18  C   UNL     1      -1.532   3.577 -21.771  0.00  0.00    +0.117 C 
ATOM     19  O   UNL     1      -0.320   3.664 -22.660  0.00  0.00    -0.455 OA
ATOM     20  C   UNL     1      -3.919   3.384 -24.705  0.00  0.00    +0.094 C 
ATOM     21  C   UNL     1      -0.642   3.633 -24.122  0.00  0.00    +0.174 A 
ENDROOT
BRANCH   1  23
ATOM     22  C   UNL     1       1.753   2.728 -25.497  0.00  0.00    +0.277 C 
ATOM     23  O   UNL     1       1.038   3.753 -25.506  0.00  0.00    -0.491 OA
ENDBRANCH   1  23
TORSDOF 1
ENDMDL
MODEL 9
REMARK VINA RESULT:    -8.947      3.471      6.712
REMARK INTER + INTRA:          -9.614
REMARK INTER:                  -9.509
REMARK INTRA:                  -0.104
REMARK UNBOUND:                -0.144
REMARK  Name = COc1ccc2c3c1OC1=C[C@H](C)C=C4[C@H](C2)N(C)CC[C@]143                  ZINC000100393879
REMARK  4 active torsions:
REMARK  status: ('A' for Active; 'I' for Inactive)
REMARK    1  A    between atoms: C_1  and  O_2
REMARK    2  A    between atoms: O_2  and  C_3
REMARK    3  A    between atoms: C_12  and  C_13
REMARK    4  A    between atoms: N_18  and  C_19
REMARK                            x       y       z     vdW  Elec       q    Type
REMARK                         _______ _______ _______ _____ _____    ______ ____
ROOT
ATOM      1  C   UNL     1       5.248   3.389 -22.880  0.00  0.00    +0.162 A 
ATOM      2  C   UNL     1       5.437   2.282 -22.302  0.00  0.00    +0.050 A 
ATOM      3  C   UNL     1       4.468   1.588 -21.930  0.00  0.00    +0.008 A 
ATOM      4  C   UNL     1       3.301   1.992 -22.131  0.00  0.00    -0.034 A 
ATOM      5  C   UNL     1       3.089   3.091 -22.704  0.00  0.00    +0.020 A 
ATOM      6  C   UNL     1       1.923   3.489 -22.902  0.00  0.00    +0.088 C 
ATOM      7  C   UNL     1       0.643   4.048 -23.182  0.00  0.00    +0.075 C 
ATOM      8  C   UNL     1      -0.471   3.287 -22.774  0.00  0.00    +0.133 C 
ATOM      9  N   UNL     1      -0.222   2.057 -22.132  0.00  0.00    +0.239 N 
ATOM     10  H   UNL     1      -0.993   1.469 -21.818  0.00  0.00    +0.204 HD
ATOM     11  C   UNL     1      -1.153   1.323 -21.740  0.00  0.00    +0.191 C 
ATOM     12  C   UNL     1       1.142   1.690 -21.953  0.00  0.00    +0.096 C 
ATOM     13  C   UNL     1       0.950   2.798 -22.531  0.00  0.00    -0.007 C 
ATOM     14  C   UNL     1      -0.228   3.204 -22.733  0.00  0.00    -0.014 C 
ATOM     15  C   UNL     1      -0.424   4.300 -23.304  0.00  0.00    +0.035 C 
ATOM     16  C   UNL     1      -1.591   4.698 -23.501  0.00  0.00    +0.016 C 
ATOM     17  C   UNL     1       0.554   5.005 -23.682  0.00  0.00    +0.023 C 
ATOM     18  C   UNL     1       1.720   4.605 -23.483  0.00  0.00    +0.117 C 
ATOM     19  O   UNL     1       3.193   4.876 -23.639  0.00  0.00    -0.455 OA
ATOM     20  C   UNL     1       2.308   1.287 -21.753  0.00  0.00    +0.094 C 
ATOM     21  C   UNL     1       4.067   3.795 -23.081  0.00  0.00    +0.174 A 
ENDROOT
BRANCH   1  23
ATOM     22  C   UNL     1       7.385   3.734 -22.952  0.00  0.00    +0.277 C 
ATOM     23  O   UNL     1       6.221   4.080 -23.250  0.00  0.00    -0.491 OA
ENDBRANCH   1  23
TORSDOF 1
ENDMDL
