MODEL 1
REMARK VINA RESULT:    -5.975      0.000      0.000
REMARK INTER + INTRA:          -7.146
REMARK INTER:                  -6.828
REMARK INTRA:                  -0.318
REMARK UNBOUND:                -0.297
REMARK  Name = ZINC000000001906
REMARK  5 active torsions:
REMARK  status: ('A' for Active; 'I' for Inactive)
REMARK    1  A    between atoms: C_1  and  O_2
REMARK    2  A    between atoms: O_2  and  C_3
REMARK    3  A    between atoms: C_6  and  C_7
REMARK    4  A    between atoms: C_7  and  C_8
REMARK    5  A    between atoms: C_10  and  O_11
REMARK                            x       y       z     vdW  Elec       q    Type
REMARK                         _______ _______ _______ _____ _____    ______ ____
ROOT
ATOM      1  C   UNL     1      -3.092   3.639 -22.999  0.00  0.00    +0.124 A 
ATOM      2  C   UNL     1      -2.032   4.066 -22.168  0.00  0.00    +0.046 A 
ATOM      3  C   UNL     1      -0.744   4.265 -22.698  0.00  0.00    +0.018 A 
ATOM      4  C   UNL     1      -0.481   4.068 -24.077  0.00  0.00    +0.059 A 
ATOM      5  C   UNL     1      -1.545   3.621 -24.909  0.00  0.00    +0.131 A 
ATOM      6  C   UNL     1      -2.825   3.404 -24.362  0.00  0.00    +0.091 A 
ENDROOT
BRANCH   4   7
ATOM      7  C   UNL     1       0.889   4.331 -24.626  0.00  0.00    +0.164 C 
ATOM      8  O   UNL     1       1.191   4.156 -25.810  0.00  0.00    -0.292 OA
ATOM      9  C   UNL     1       1.948   4.891 -23.679  0.00  0.00    +0.092 C 
ENDBRANCH   4   7
BRANCH   1  11
ATOM     10  C   UNL     1      -5.448   3.755 -23.447  0.00  0.00    +0.277 C 
ATOM     11  O   UNL     1      -4.383   3.432 -22.566  0.00  0.00    -0.495 OA
ENDBRANCH   1  11
BRANCH   5  12
ATOM     12  O   UNL     1      -1.384   3.393 -26.251  0.00  0.00    -0.506 OA
ATOM     13  H   UNL     1      -0.600   2.990 -26.567  0.00  0.00    +0.292 HD
ENDBRANCH   5  12
TORSDOF 3
ENDMDL
MODEL 2
REMARK VINA RESULT:    -5.953      1.991      2.164
REMARK INTER + INTRA:          -7.120
REMARK INTER:                  -6.798
REMARK INTRA:                  -0.322
REMARK UNBOUND:                -0.297
REMARK  Name = ZINC000000001906
REMARK  5 active torsions:
REMARK  status: ('A' for Active; 'I' for Inactive)
REMARK    1  A    between atoms: C_1  and  O_2
REMARK    2  A    between atoms: O_2  and  C_3
REMARK    3  A    between atoms: C_6  and  C_7
REMARK    4  A    between atoms: C_7  and  C_8
REMARK    5  A    between atoms: C_10  and  O_11
REMARK                            x       y       z     vdW  Elec       q    Type
REMARK                         _______ _______ _______ _____ _____    ______ ____
ROOT
ATOM      1  C   UNL     1      -3.555   3.060 -22.465  0.00  0.00    +0.124 A 
ATOM      2  C   UNL     1      -2.845   2.616 -21.326  0.00  0.00    +0.046 A 
ATOM      3  C   UNL     1      -1.500   2.216 -21.434  0.00  0.00    +0.018 A 
ATOM      4  C   UNL     1      -0.817   2.269 -22.674  0.00  0.00    +0.059 A 
ATOM      5  C   UNL     1      -1.538   2.699 -23.823  0.00  0.00    +0.131 A 
ATOM      6  C   UNL     1      -2.890   3.077 -23.706  0.00  0.00    +0.091 A 
ENDROOT
BRANCH   4   7
ATOM      7  C   UNL     1       0.629   1.881 -22.754  0.00  0.00    +0.164 C 
ATOM      8  O   UNL     1       1.269   1.858 -23.808  0.00  0.00    -0.292 OA
ATOM      9  C   UNL     1       1.356   1.545 -21.453  0.00  0.00    +0.092 C 
ENDBRANCH   4   7
BRANCH   1  11
ATOM     10  C   UNL     1      -5.489   3.793 -23.684  0.00  0.00    +0.277 C 
ATOM     11  O   UNL     1      -4.865   3.480 -22.447  0.00  0.00    -0.495 OA
ENDBRANCH   1  11
BRANCH   5  12
ATOM     12  O   UNL     1      -0.965   2.774 -25.066  0.00  0.00    -0.506 OA
ATOM     13  H   UNL     1      -0.215   2.250 -25.268  0.00  0.00    +0.292 HD
ENDBRANCH   5  12
TORSDOF 3
ENDMDL
MODEL 3
REMARK VINA RESULT:    -5.940      2.155      4.733
REMARK INTER + INTRA:          -7.106
REMARK INTER:                  -6.770
REMARK INTRA:                  -0.336
REMARK UNBOUND:                -0.297
REMARK  Name = ZINC000000001906
REMARK  5 active torsions:
REMARK  status: ('A' for Active; 'I' for Inactive)
REMARK    1  A    between atoms: C_1  and  O_2
REMARK    2  A    between atoms: O_2  and  C_3
REMARK    3  A    between atoms: C_6  and  C_7
REMARK    4  A    between atoms: C_7  and  C_8
REMARK    5  A    between atoms: C_10  and  O_11
REMARK                            x       y       z     vdW  Elec       q    Type
REMARK                         _______ _______ _______ _____ _____    ______ ____
ROOT
ATOM      1  C   UNL     1      -0.642   1.993 -22.551  0.00  0.00    +0.124 A 
ATOM      2  C   UNL     1      -1.433   2.253 -21.408  0.00  0.00    +0.046 A 
ATOM      3  C   UNL     1      -2.742   2.750 -21.544  0.00  0.00    +0.018 A 
ATOM      4  C   UNL     1      -3.311   2.979 -22.822  0.00  0.00    +0.059 A 
ATOM      5  C   UNL     1      -2.507   2.733 -23.970  0.00  0.00    +0.131 A 
ATOM      6  C   UNL     1      -1.190   2.256 -23.821  0.00  0.00    +0.091 A 
ENDROOT
BRANCH   4   7
ATOM      7  C   UNL     1      -4.723   3.465 -22.940  0.00  0.00    +0.164 C 
ATOM      8  O   UNL     1      -5.126   4.161 -23.876  0.00  0.00    -0.292 OA
ATOM      9  C   UNL     1      -5.725   3.031 -21.872  0.00  0.00    +0.092 C 
ENDBRANCH   4   7
BRANCH   1  11
ATOM     10  C   UNL     1       1.696   2.314 -22.992  0.00  0.00    +0.277 C 
ATOM     11  O   UNL     1       0.641   1.496 -22.509  0.00  0.00    -0.495 OA
ENDBRANCH   1  11
BRANCH   5  12
ATOM     12  O   UNL     1      -2.966   2.934 -25.246  0.00  0.00    -0.506 OA
ATOM     13  H   UNL     1      -2.583   2.465 -25.960  0.00  0.00    +0.292 HD
ENDBRANCH   5  12
TORSDOF 3
ENDMDL
MODEL 4
REMARK VINA RESULT:    -5.903      1.791      2.351
REMARK INTER + INTRA:          -7.063
REMARK INTER:                  -6.712
REMARK INTRA:                  -0.351
REMARK UNBOUND:                -0.297
REMARK  Name = ZINC000000001906
REMARK  5 active torsions:
REMARK  status: ('A' for Active; 'I' for Inactive)
REMARK    1  A    between atoms: C_1  and  O_2
REMARK    2  A    between atoms: O_2  and  C_3
REMARK    3  A    between atoms: C_6  and  C_7
REMARK    4  A    between atoms: C_7  and  C_8
REMARK    5  A    between atoms: C_10  and  O_11
REMARK                            x       y       z     vdW  Elec       q    Type
REMARK                         _______ _______ _______ _____ _____    ______ ____
ROOT
ATOM      1  C   UNL     1      -3.784   3.559 -23.692  0.00  0.00    +0.124 A 
ATOM      2  C   UNL     1      -3.204   3.875 -24.942  0.00  0.00    +0.046 A 
ATOM      3  C   UNL     1      -1.831   3.665 -25.165  0.00  0.00    +0.018 A 
ATOM      4  C   UNL     1      -1.001   3.111 -24.158  0.00  0.00    +0.059 A 
ATOM      5  C   UNL     1      -1.583   2.811 -22.895  0.00  0.00    +0.131 A 
ATOM      6  C   UNL     1      -2.955   3.046 -22.676  0.00  0.00    +0.091 A 
ENDROOT
BRANCH   4   7
ATOM      7  C   UNL     1       0.449   2.855 -24.436  0.00  0.00    +0.164 C 
ATOM      8  O   UNL     1       1.072   1.900 -23.965  0.00  0.00    -0.292 OA
ATOM      9  C   UNL     1       1.176   3.798 -25.393  0.00  0.00    +0.092 C 
ENDBRANCH   4   7
BRANCH   1  11
ATOM     10  C   UNL     1      -5.586   3.263 -22.133  0.00  0.00    +0.277 C 
ATOM     11  O   UNL     1      -5.118   3.721 -23.393  0.00  0.00    -0.495 OA
ENDBRANCH   1  11
BRANCH   5  12
ATOM     12  O   UNL     1      -0.859   2.284 -21.858  0.00  0.00    -0.506 OA
ATOM     13  H   UNL     1       0.057   2.115 -21.965  0.00  0.00    +0.292 HD
ENDBRANCH   5  12
TORSDOF 3
ENDMDL
MODEL 5
REMARK VINA RESULT:    -5.892      2.328      4.272
REMARK INTER + INTRA:          -7.050
REMARK INTER:                  -6.701
REMARK INTRA:                  -0.350
REMARK UNBOUND:                -0.297
REMARK  Name = ZINC000000001906
REMARK  5 active torsions:
REMARK  status: ('A' for Active; 'I' for Inactive)
REMARK    1  A    between atoms: C_1  and  O_2
REMARK    2  A    between atoms: O_2  and  C_3
REMARK    3  A    between atoms: C_6  and  C_7
REMARK    4  A    between atoms: C_7  and  C_8
REMARK    5  A    between atoms: C_10  and  O_11
REMARK                            x       y       z     vdW  Elec       q    Type
REMARK                         _______ _______ _______ _____ _____    ______ ____
ROOT
ATOM      1  C   UNL     1      -0.925   2.075 -21.957  0.00  0.00    +0.124 A 
ATOM      2  C   UNL     1      -2.059   2.627 -21.317  0.00  0.00    +0.046 A 
ATOM      3  C   UNL     1      -3.037   3.309 -22.063  0.00  0.00    +0.018 A 
ATOM      4  C   UNL     1      -2.928   3.440 -23.470  0.00  0.00    +0.059 A 
ATOM      5  C   UNL     1      -1.779   2.900 -24.109  0.00  0.00    +0.131 A 
ATOM      6  C   UNL     1      -0.794   2.237 -23.349  0.00  0.00    +0.091 A 
ENDROOT
BRANCH   4   7
ATOM      7  C   UNL     1      -4.008   4.132 -24.246  0.00  0.00    +0.164 C 
ATOM      8  O   UNL     1      -3.785   4.863 -25.215  0.00  0.00    -0.292 OA
ATOM      9  C   UNL     1      -5.459   3.875 -23.846  0.00  0.00    +0.092 C 
ENDBRANCH   4   7
BRANCH   1  11
ATOM     10  C   UNL     1       1.404   1.520 -21.779  0.00  0.00    +0.277 C 
ATOM     11  O   UNL     1       0.072   1.383 -21.307  0.00  0.00    -0.495 OA
ENDBRANCH   1  11
BRANCH   5  12
ATOM     12  O   UNL     1      -1.580   2.986 -25.463  0.00  0.00    -0.506 OA
ATOM     13  H   UNL     1      -2.081   2.448 -26.044  0.00  0.00    +0.292 HD
ENDBRANCH   5  12
TORSDOF 3
ENDMDL
MODEL 6
REMARK VINA RESULT:    -5.859      2.170      4.581
REMARK INTER + INTRA:          -7.012
REMARK INTER:                  -6.708
REMARK INTRA:                  -0.304
REMARK UNBOUND:                -0.297
REMARK  Name = ZINC000000001906
REMARK  5 active torsions:
REMARK  status: ('A' for Active; 'I' for Inactive)
REMARK    1  A    between atoms: C_1  and  O_2
REMARK    2  A    between atoms: O_2  and  C_3
REMARK    3  A    between atoms: C_6  and  C_7
REMARK    4  A    between atoms: C_7  and  C_8
REMARK    5  A    between atoms: C_10  and  O_11
REMARK                            x       y       z     vdW  Elec       q    Type
REMARK                         _______ _______ _______ _____ _____    ______ ____
ROOT
ATOM      1  C   UNL     1      -2.585   3.270 -25.141  0.00  0.00    +0.124 A 
ATOM      2  C   UNL     1      -1.689   2.811 -24.147  0.00  0.00    +0.046 A 
ATOM      3  C   UNL     1      -2.103   2.706 -22.807  0.00  0.00    +0.018 A 
ATOM      4  C   UNL     1      -3.427   3.032 -22.420  0.00  0.00    +0.059 A 
ATOM      5  C   UNL     1      -4.321   3.510 -23.417  0.00  0.00    +0.131 A 
ATOM      6  C   UNL     1      -3.890   3.631 -24.754  0.00  0.00    +0.091 A 
ENDROOT
BRANCH   4   7
ATOM      7  C   UNL     1      -3.855   2.868 -20.993  0.00  0.00    +0.164 C 
ATOM      8  O   UNL     1      -4.747   2.094 -20.637  0.00  0.00    -0.292 OA
ATOM      9  C   UNL     1      -3.112   3.665 -19.923  0.00  0.00    +0.092 C 
ENDBRANCH   4   7
BRANCH   1  11
ATOM     10  C   UNL     1      -3.329   3.524 -27.409  0.00  0.00    +0.277 C 
ATOM     11  O   UNL     1      -2.269   3.390 -26.475  0.00  0.00    -0.495 OA
ENDBRANCH   1  11
BRANCH   5  12
ATOM     12  O   UNL     1      -5.617   3.859 -23.138  0.00  0.00    -0.506 OA
ATOM     13  H   UNL     1      -6.095   3.394 -22.480  0.00  0.00    +0.292 HD
ENDBRANCH   5  12
TORSDOF 3
ENDMDL
MODEL 7
REMARK VINA RESULT:    -5.771      2.096      4.750
REMARK INTER + INTRA:          -6.912
REMARK INTER:                  -6.560
REMARK INTRA:                  -0.352
REMARK UNBOUND:                -0.297
REMARK  Name = ZINC000000001906
REMARK  5 active torsions:
REMARK  status: ('A' for Active; 'I' for Inactive)
REMARK    1  A    between atoms: C_1  and  O_2
REMARK    2  A    between atoms: O_2  and  C_3
REMARK    3  A    between atoms: C_6  and  C_7
REMARK    4  A    between atoms: C_7  and  C_8
REMARK    5  A    between atoms: C_10  and  O_11
REMARK                            x       y       z     vdW  Elec       q    Type
REMARK                         _______ _______ _______ _____ _____    ______ ____
ROOT
ATOM      1  C   UNL     1       0.500   2.197 -23.278  0.00  0.00    +0.124 A 
ATOM      2  C   UNL     1       0.128   1.682 -22.014  0.00  0.00    +0.046 A 
ATOM      3  C   UNL     1      -1.055   2.113 -21.388  0.00  0.00    +0.018 A 
ATOM      4  C   UNL     1      -1.916   3.051 -22.013  0.00  0.00    +0.059 A 
ATOM      5  C   UNL     1      -1.531   3.581 -23.275  0.00  0.00    +0.131 A 
ATOM      6  C   UNL     1      -0.332   3.157 -23.883  0.00  0.00    +0.091 A 
ENDROOT
BRANCH   4   7
ATOM      7  C   UNL     1      -3.194   3.460 -21.345  0.00  0.00    +0.164 C 
ATOM      8  O   UNL     1      -4.271   3.554 -21.940  0.00  0.00    -0.292 OA
ATOM      9  C   UNL     1      -3.167   3.724 -19.841  0.00  0.00    +0.092 C 
ENDBRANCH   4   7
BRANCH   1  11
ATOM     10  C   UNL     1       1.887   2.429 -25.224  0.00  0.00    +0.277 C 
ATOM     11  O   UNL     1       1.632   1.821 -23.966  0.00  0.00    -0.495 OA
ENDBRANCH   1  11
BRANCH   5  12
ATOM     12  O   UNL     1      -2.292   4.499 -23.951  0.00  0.00    -0.506 OA
ATOM     13  H   UNL     1      -3.152   4.711 -23.644  0.00  0.00    +0.292 HD
ENDBRANCH   5  12
TORSDOF 3
ENDMDL
MODEL 8
REMARK VINA RESULT:    -5.638      2.263      5.102
REMARK INTER + INTRA:          -6.760
REMARK INTER:                  -6.451
REMARK INTRA:                  -0.308
REMARK UNBOUND:                -0.297
REMARK  Name = ZINC000000001906
REMARK  5 active torsions:
REMARK  status: ('A' for Active; 'I' for Inactive)
REMARK    1  A    between atoms: C_1  and  O_2
REMARK    2  A    between atoms: O_2  and  C_3
REMARK    3  A    between atoms: C_6  and  C_7
REMARK    4  A    between atoms: C_7  and  C_8
REMARK    5  A    between atoms: C_10  and  O_11
REMARK                            x       y       z     vdW  Elec       q    Type
REMARK                         _______ _______ _______ _____ _____    ______ ____
ROOT
ATOM      1  C   UNL     1       1.144   3.850 -23.356  0.00  0.00    +0.124 A 
ATOM      2  C   UNL     1       0.181   4.884 -23.289  0.00  0.00    +0.046 A 
ATOM      3  C   UNL     1      -1.078   4.650 -22.707  0.00  0.00    +0.018 A 
ATOM      4  C   UNL     1      -1.407   3.387 -22.153  0.00  0.00    +0.059 A 
ATOM      5  C   UNL     1      -0.444   2.344 -22.237  0.00  0.00    +0.131 A 
ATOM      6  C   UNL     1       0.806   2.584 -22.842  0.00  0.00    +0.091 A 
ENDROOT
BRANCH   4   7
ATOM      7  C   UNL     1      -2.738   3.177 -21.498  0.00  0.00    +0.164 C 
ATOM      8  O   UNL     1      -3.556   2.335 -21.877  0.00  0.00    -0.292 OA
ATOM      9  C   UNL     1      -3.075   4.017 -20.268  0.00  0.00    +0.092 C 
ENDBRANCH   4   7
BRANCH   1  11
ATOM     10  C   UNL     1       3.343   4.802 -23.202  0.00  0.00    +0.277 C 
ATOM     11  O   UNL     1       2.402   3.996 -23.895  0.00  0.00    -0.495 OA
ENDBRANCH   1  11
BRANCH   5  12
ATOM     12  O   UNL     1      -0.675   1.088 -21.740  0.00  0.00    -0.506 OA
ATOM     13  H   UNL     1      -1.290   0.966 -21.043  0.00  0.00    +0.292 HD
ENDBRANCH   5  12
TORSDOF 3
ENDMDL
MODEL 9
REMARK VINA RESULT:    -5.249      2.673      3.382
REMARK INTER + INTRA:          -6.314
REMARK INTER:                  -6.016
REMARK INTRA:                  -0.297
REMARK UNBOUND:                -0.297
REMARK  Name = ZINC000000001906
REMARK  5 active torsions:
REMARK  status: ('A' for Active; 'I' for Inactive)
REMARK    1  A    between atoms: C_1  and  O_2
REMARK    2  A    between atoms: O_2  and  C_3
REMARK    3  A    between atoms: C_6  and  C_7
REMARK    4  A    between atoms: C_7  and  C_8
REMARK    5  A    between atoms: C_10  and  O_11
REMARK                            x       y       z     vdW  Elec       q    Type
REMARK                         _______ _______ _______ _____ _____    ______ ____
ROOT
ATOM      1  C   UNL     1      -0.748   3.898 -23.665  0.00  0.00    +0.124 A 
ATOM      2  C   UNL     1       0.247   4.902 -23.677  0.00  0.00    +0.046 A 
ATOM      3  C   UNL     1       1.569   4.600 -23.303  0.00  0.00    +0.018 A 
ATOM      4  C   UNL     1       1.944   3.285 -22.930  0.00  0.00    +0.059 A 
ATOM      5  C   UNL     1       0.938   2.281 -22.902  0.00  0.00    +0.131 A 
ATOM      6  C   UNL     1      -0.388   2.599 -23.258  0.00  0.00    +0.091 A 
ENDROOT
BRANCH   4   7
ATOM      7  C   UNL     1       3.369   2.980 -22.580  0.00  0.00    +0.164 C 
ATOM      8  O   UNL     1       3.732   2.628 -21.454  0.00  0.00    -0.292 OA
ATOM      9  C   UNL     1       4.416   3.062 -23.690  0.00  0.00    +0.092 C 
ENDBRANCH   4   7
BRANCH   1  11
ATOM     10  C   UNL     1      -3.045   3.214 -23.520  0.00  0.00    +0.277 C 
ATOM     11  O   UNL     1      -2.061   4.103 -24.027  0.00  0.00    -0.495 OA
ENDBRANCH   1  11
BRANCH   5  12
ATOM     12  O   UNL     1       1.202   0.984 -22.545  0.00  0.00    -0.506 OA
ATOM     13  H   UNL     1       0.508   0.431 -22.241  0.00  0.00    +0.292 HD
ENDBRANCH   5  12
TORSDOF 3
ENDMDL
