MODEL 1
REMARK VINA RESULT:    -9.805      0.000      0.000
REMARK INTER + INTRA:          -7.398
REMARK INTER:                 -11.500
REMARK INTRA:                   4.102
REMARK UNBOUND:                 4.127
REMARK  Name = COc1ccc2c3c1O[C@@H]1C(OC)(OC)CC[C@H]4[C@@H](C2)N(C)CC[C@]314         ZINC000253505285
REMARK  7 active torsions:
REMARK  status: ('A' for Active; 'I' for Inactive)
REMARK    1  A    between atoms: C_1  and  O_2
REMARK    2  A    between atoms: O_2  and  C_3
REMARK    3  A    between atoms: C_11  and  O_12
REMARK    4  A    between atoms: C_11  and  O_14
REMARK    5  A    between atoms: O_12  and  C_13
REMARK    6  A    between atoms: O_14  and  C_15
REMARK    7  A    between atoms: N_21  and  C_22
REMARK                            x       y       z     vdW  Elec       q    Type
REMARK                         _______ _______ _______ _____ _____    ______ ____
ROOT
ATOM      1  C   UNL     1       1.416   1.844 -22.031  0.00  0.00    +0.162 A 
ATOM      2  C   UNL     1       2.075   1.930 -23.111  0.00  0.00    +0.050 A 
ATOM      3  C   UNL     1       1.523   2.325 -24.164  0.00  0.00    +0.008 A 
ATOM      4  C   UNL     1       0.307   2.637 -24.150  0.00  0.00    -0.035 A 
ATOM      5  C   UNL     1      -0.371   2.560 -23.088  0.00  0.00    +0.012 A 
ATOM      6  C   UNL     1      -1.584   2.873 -23.080  0.00  0.00    +0.054 C 
ATOM      7  C   UNL     1      -2.969   3.201 -22.947  0.00  0.00    +0.067 C 
ATOM      8  C   UNL     1      -3.621   3.650 -24.119  0.00  0.00    +0.132 C 
ATOM      9  N   UNL     1      -2.854   3.733 -25.304  0.00  0.00    +0.236 N 
ATOM     10  H   UNL     1      -3.274   4.050 -26.178  0.00  0.00    +0.203 HD
ATOM     11  C   UNL     1      -3.355   4.120 -26.387  0.00  0.00    +0.190 C 
ATOM     12  C   UNL     1      -1.478   3.353 -25.210  0.00  0.00    +0.072 C 
ATOM     13  C   UNL     1      -2.141   3.268 -24.132  0.00  0.00    +0.053 C 
ATOM     14  C   UNL     1      -3.369   3.585 -24.122  0.00  0.00    +0.015 C 
ATOM     15  C   UNL     1      -4.028   3.503 -23.057  0.00  0.00    +0.069 C 
ATOM     16  C   UNL     1      -3.475   3.105 -21.988  0.00  0.00    +0.208 C 
ATOM     17  C   UNL     1      -2.260   2.792 -22.001  0.00  0.00    +0.244 C 
ATOM     18  O   UNL     1      -1.072   2.294 -21.203  0.00  0.00    -0.479 OA
ATOM     19  C   UNL     1      -0.264   3.041 -25.223  0.00  0.00    +0.090 C 
ATOM     20  C   UNL     1       0.185   2.162 -22.021  0.00  0.00    +0.167 A 
ENDROOT
BRANCH   1  22
ATOM     21  C   UNL     1       3.175   1.086 -21.002  0.00  0.00    +0.277 C 
ATOM     22  O   UNL     1       1.973   1.449 -20.979  0.00  0.00    -0.491 OA
ENDBRANCH   1  22
BRANCH  16  23
ATOM     23  O   UNL     1      -4.639   3.306 -21.565  0.00  0.00    -0.349 OA
ATOM     24  C   UNL     1      -5.397   2.336 -21.328  0.00  0.00    +0.197 C 
ENDBRANCH  16  23
BRANCH  16  25
ATOM     25  O   UNL     1      -3.325   2.780 -20.787  0.00  0.00    -0.349 OA
ATOM     26  C   UNL     1      -3.326   3.660 -19.893  0.00  0.00    +0.197 C 
ENDBRANCH  16  25
TORSDOF 3
ENDMDL
MODEL 2
REMARK VINA RESULT:    -9.472      2.011      3.429
REMARK INTER + INTRA:          -7.006
REMARK INTER:                 -11.175
REMARK INTRA:                   4.168
REMARK UNBOUND:                 4.127
REMARK  Name = COc1ccc2c3c1O[C@@H]1C(OC)(OC)CC[C@H]4[C@@H](C2)N(C)CC[C@]314         ZINC000253505285
REMARK  7 active torsions:
REMARK  status: ('A' for Active; 'I' for Inactive)
REMARK    1  A    between atoms: C_1  and  O_2
REMARK    2  A    between atoms: O_2  and  C_3
REMARK    3  A    between atoms: C_11  and  O_12
REMARK    4  A    between atoms: C_11  and  O_14
REMARK    5  A    between atoms: O_12  and  C_13
REMARK    6  A    between atoms: O_14  and  C_15
REMARK    7  A    between atoms: N_21  and  C_22
REMARK                            x       y       z     vdW  Elec       q    Type
REMARK                         _______ _______ _______ _____ _____    ______ ____
ROOT
ATOM      1  C   UNL     1       1.649   2.300 -23.786  0.00  0.00    +0.162 A 
ATOM      2  C   UNL     1       1.980   1.857 -22.645  0.00  0.00    +0.050 A 
ATOM      3  C   UNL     1       1.122   1.721 -21.741  0.00  0.00    +0.008 A 
ATOM      4  C   UNL     1      -0.075   2.028 -21.968  0.00  0.00    -0.035 A 
ATOM      5  C   UNL     1      -0.428   2.471 -23.096  0.00  0.00    +0.012 A 
ATOM      6  C   UNL     1      -1.623   2.775 -23.316  0.00  0.00    +0.054 C 
ATOM      7  C   UNL     1      -2.952   3.154 -23.686  0.00  0.00    +0.067 C 
ATOM      8  C   UNL     1      -3.943   3.013 -22.688  0.00  0.00    +0.132 C 
ATOM      9  N   UNL     1      -3.538   2.515 -21.427  0.00  0.00    +0.236 N 
ATOM     10  H   UNL     1      -4.211   2.393 -20.671  0.00  0.00    +0.203 HD
ATOM     11  C   UNL     1      -4.353   2.359 -20.488  0.00  0.00    +0.190 C 
ATOM     12  C   UNL     1      -2.152   2.197 -21.275  0.00  0.00    +0.072 C 
ATOM     13  C   UNL     1      -2.485   2.641 -22.415  0.00  0.00    +0.053 C 
ATOM     14  C   UNL     1      -3.696   2.949 -22.640  0.00  0.00    +0.015 C 
ATOM     15  C   UNL     1      -4.030   3.389 -23.767  0.00  0.00    +0.069 C 
ATOM     16  C   UNL     1      -3.167   3.528 -24.685  0.00  0.00    +0.208 C 
ATOM     17  C   UNL     1      -1.970   3.222 -24.459  0.00  0.00    +0.244 C 
ATOM     18  O   UNL     1      -0.561   3.133 -25.008  0.00  0.00    -0.479 OA
ATOM     19  C   UNL     1      -0.956   1.892 -21.050  0.00  0.00    +0.090 C 
ATOM     20  C   UNL     1       0.437   2.609 -24.011  0.00  0.00    +0.167 A 
ENDROOT
BRANCH   1  22
ATOM     21  C   UNL     1       3.726   2.247 -24.428  0.00  0.00    +0.277 C 
ATOM     22  O   UNL     1       2.511   2.434 -24.687  0.00  0.00    -0.491 OA
ENDBRANCH   1  22
BRANCH  16  23
ATOM     23  O   UNL     1      -4.190   3.927 -25.291  0.00  0.00    -0.349 OA
ATOM     24  C   UNL     1      -4.452   5.153 -25.341  0.00  0.00    +0.197 C 
ENDBRANCH  16  23
BRANCH  16  25
ATOM     25  O   UNL     1      -2.662   3.802 -25.800  0.00  0.00    -0.349 OA
ATOM     26  C   UNL     1      -3.177   3.350 -26.851  0.00  0.00    +0.197 C 
ENDBRANCH  16  25
TORSDOF 3
ENDMDL
MODEL 3
REMARK VINA RESULT:    -8.952      2.217      5.802
REMARK INTER + INTRA:          -6.396
REMARK INTER:                 -10.446
REMARK INTRA:                   4.050
REMARK UNBOUND:                 4.127
REMARK  Name = COc1ccc2c3c1O[C@@H]1C(OC)(OC)CC[C@H]4[C@@H](C2)N(C)CC[C@]314         ZINC000253505285
REMARK  7 active torsions:
REMARK  status: ('A' for Active; 'I' for Inactive)
REMARK    1  A    between atoms: C_1  and  O_2
REMARK    2  A    between atoms: O_2  and  C_3
REMARK    3  A    between atoms: C_11  and  O_12
REMARK    4  A    between atoms: C_11  and  O_14
REMARK    5  A    between atoms: O_12  and  C_13
REMARK    6  A    between atoms: O_14  and  C_15
REMARK    7  A    between atoms: N_21  and  C_22
REMARK                            x       y       z     vdW  Elec       q    Type
REMARK                         _______ _______ _______ _____ _____    ______ ____
ROOT
ATOM      1  C   UNL     1      -4.115   3.691 -23.957  0.00  0.00    +0.162 A 
ATOM      2  C   UNL     1      -4.711   3.450 -22.864  0.00  0.00    +0.050 A 
ATOM      3  C   UNL     1      -4.080   2.996 -21.881  0.00  0.00    +0.008 A 
ATOM      4  C   UNL     1      -2.848   2.777 -21.980  0.00  0.00    -0.035 A 
ATOM      5  C   UNL     1      -2.231   3.009 -23.057  0.00  0.00    +0.012 A 
ATOM      6  C   UNL     1      -1.002   2.789 -23.149  0.00  0.00    +0.054 C 
ATOM      7  C   UNL     1       0.395   2.579 -23.375  0.00  0.00    +0.067 C 
ATOM      8  C   UNL     1       1.134   2.067 -22.285  0.00  0.00    +0.132 C 
ATOM      9  N   UNL     1       0.436   1.810 -21.081  0.00  0.00    +0.236 N 
ATOM     10  H   UNL     1       0.920   1.440 -20.264  0.00  0.00    +0.203 HD
ATOM     11  C   UNL     1       1.016   1.355 -20.067  0.00  0.00    +0.190 C 
ATOM     12  C   UNL     1      -0.966   2.094 -21.076  0.00  0.00    +0.072 C 
ATOM     13  C   UNL     1      -0.366   2.334 -22.168  0.00  0.00    +0.053 C 
ATOM     14  C   UNL     1       0.879   2.112 -22.263  0.00  0.00    +0.015 C 
ATOM     15  C   UNL     1       1.476   2.348 -23.342  0.00  0.00    +0.069 C 
ATOM     16  C   UNL     1       0.844   2.808 -24.339  0.00  0.00    +0.208 C 
ATOM     17  C   UNL     1      -0.389   3.027 -24.242  0.00  0.00    +0.244 C 
ATOM     18  O   UNL     1      -1.647   3.512 -24.933  0.00  0.00    -0.479 OA
ATOM     19  C   UNL     1      -2.197   2.313 -20.980  0.00  0.00    +0.090 C 
ATOM     20  C   UNL     1      -2.867   3.469 -24.052  0.00  0.00    +0.167 A 
ENDROOT
BRANCH   1  22
ATOM     21  C   UNL     1      -5.061   3.390 -25.891  0.00  0.00    +0.277 C 
ATOM     22  O   UNL     1      -4.750   4.146 -24.938  0.00  0.00    -0.491 OA
ENDBRANCH   1  22
BRANCH  16  23
ATOM     23  O   UNL     1       1.995   2.736 -24.831  0.00  0.00    -0.349 OA
ATOM     24  C   UNL     1       2.316   1.750 -25.538  0.00  0.00    +0.197 C 
ENDBRANCH  16  23
BRANCH  16  25
ATOM     25  O   UNL     1       0.611   3.238 -25.494  0.00  0.00    -0.349 OA
ATOM     26  C   UNL     1       1.159   4.293 -25.894  0.00  0.00    +0.197 C 
ENDBRANCH  16  25
TORSDOF 3
ENDMDL
MODEL 4
REMARK VINA RESULT:    -8.766      2.090      5.403
REMARK INTER + INTRA:          -6.177
REMARK INTER:                 -10.213
REMARK INTRA:                   4.037
REMARK UNBOUND:                 4.127
REMARK  Name = COc1ccc2c3c1O[C@@H]1C(OC)(OC)CC[C@H]4[C@@H](C2)N(C)CC[C@]314         ZINC000253505285
REMARK  7 active torsions:
REMARK  status: ('A' for Active; 'I' for Inactive)
REMARK    1  A    between atoms: C_1  and  O_2
REMARK    2  A    between atoms: O_2  and  C_3
REMARK    3  A    between atoms: C_11  and  O_12
REMARK    4  A    between atoms: C_11  and  O_14
REMARK    5  A    between atoms: O_12  and  C_13
REMARK    6  A    between atoms: O_14  and  C_15
REMARK    7  A    between atoms: N_21  and  C_22
REMARK                            x       y       z     vdW  Elec       q    Type
REMARK                         _______ _______ _______ _____ _____    ______ ____
ROOT
ATOM      1  C   UNL     1      -4.199   3.094 -26.140  0.00  0.00    +0.162 A 
ATOM      2  C   UNL     1      -5.343   3.484 -25.757  0.00  0.00    +0.050 A 
ATOM      3  C   UNL     1      -5.569   3.697 -24.543  0.00  0.00    +0.008 A 
ATOM      4  C   UNL     1      -4.656   3.522 -23.699  0.00  0.00    -0.035 A 
ATOM      5  C   UNL     1      -3.508   3.135 -24.056  0.00  0.00    +0.012 A 
ATOM      6  C   UNL     1      -2.601   2.962 -23.210  0.00  0.00    +0.054 C 
ATOM      7  C   UNL     1      -1.489   2.731 -22.341  0.00  0.00    +0.067 C 
ATOM      8  C   UNL     1      -1.713   2.963 -20.964  0.00  0.00    +0.132 C 
ATOM      9  N   UNL     1      -3.002   3.397 -20.573  0.00  0.00    +0.236 N 
ATOM     10  H   UNL     1      -3.218   3.579 -19.593  0.00  0.00    +0.203 HD
ATOM     11  C   UNL     1      -3.284   3.625 -19.373  0.00  0.00    +0.190 C 
ATOM     12  C   UNL     1      -3.969   3.564 -21.614  0.00  0.00    +0.072 C 
ATOM     13  C   UNL     1      -2.823   3.174 -21.994  0.00  0.00    +0.053 C 
ATOM     14  C   UNL     1      -1.903   2.999 -21.138  0.00  0.00    +0.015 C 
ATOM     15  C   UNL     1      -0.768   2.613 -21.510  0.00  0.00    +0.069 C 
ATOM     16  C   UNL     1      -0.533   2.396 -22.736  0.00  0.00    +0.208 C 
ATOM     17  C   UNL     1      -1.445   2.570 -23.581  0.00  0.00    +0.244 C 
ATOM     18  O   UNL     1      -1.847   2.517 -25.041  0.00  0.00    -0.479 OA
ATOM     19  C   UNL     1      -4.880   3.738 -22.458  0.00  0.00    +0.090 C 
ATOM     20  C   UNL     1      -3.277   2.919 -25.283  0.00  0.00    +0.167 A 
ENDROOT
BRANCH   1  22
ATOM     21  C   UNL     1      -3.236   3.662 -28.005  0.00  0.00    +0.277 C 
ATOM     22  O   UNL     1      -3.977   2.882 -27.356  0.00  0.00    -0.491 OA
ENDBRANCH   1  22
BRANCH  16  23
ATOM     23  O   UNL     1       0.589   2.116 -22.251  0.00  0.00    -0.349 OA
ATOM     24  C   UNL     1       0.929   0.918 -22.105  0.00  0.00    +0.197 C 
ENDBRANCH  16  23
BRANCH  16  25
ATOM     25  O   UNL     1       0.083   2.086 -23.784  0.00  0.00    -0.349 OA
ATOM     26  C   UNL     1       1.087   2.747 -24.142  0.00  0.00    +0.197 C 
ENDBRANCH  16  25
TORSDOF 3
ENDMDL
MODEL 5
REMARK VINA RESULT:    -8.533      1.229      4.826
REMARK INTER + INTRA:          -5.902
REMARK INTER:                 -10.209
REMARK INTRA:                   4.307
REMARK UNBOUND:                 4.127
REMARK  Name = COc1ccc2c3c1O[C@@H]1C(OC)(OC)CC[C@H]4[C@@H](C2)N(C)CC[C@]314         ZINC000253505285
REMARK  7 active torsions:
REMARK  status: ('A' for Active; 'I' for Inactive)
REMARK    1  A    between atoms: C_1  and  O_2
REMARK    2  A    between atoms: O_2  and  C_3
REMARK    3  A    between atoms: C_11  and  O_12
REMARK    4  A    between atoms: C_11  and  O_14
REMARK    5  A    between atoms: O_12  and  C_13
REMARK    6  A    between atoms: O_14  and  C_15
REMARK    7  A    between atoms: N_21  and  C_22
REMARK                            x       y       z     vdW  Elec       q    Type
REMARK                         _______ _______ _______ _____ _____    ______ ____
ROOT
ATOM      1  C   UNL     1      -4.057   2.763 -21.983  0.00  0.00    +0.162 A 
ATOM      2  C   UNL     1      -4.601   3.437 -22.910  0.00  0.00    +0.050 A 
ATOM      3  C   UNL     1      -3.918   3.877 -23.863  0.00  0.00    +0.008 A 
ATOM      4  C   UNL     1      -2.683   3.650 -23.901  0.00  0.00    -0.035 A 
ATOM      5  C   UNL     1      -2.118   2.982 -22.991  0.00  0.00    +0.012 A 
ATOM      6  C   UNL     1      -0.886   2.758 -23.034  0.00  0.00    +0.054 C 
ATOM      7  C   UNL     1       0.506   2.439 -22.973  0.00  0.00    +0.067 C 
ATOM      8  C   UNL     1       1.305   2.922 -24.035  0.00  0.00    +0.132 C 
ATOM      9  N   UNL     1       0.664   3.670 -25.050  0.00  0.00    +0.236 N 
ATOM     10  H   UNL     1       1.192   4.042 -25.839  0.00  0.00    +0.203 HD
ATOM     11  C   UNL     1       1.299   4.134 -26.027  0.00  0.00    +0.190 C 
ATOM     12  C   UNL     1      -0.745   3.871 -24.911  0.00  0.00    +0.072 C 
ATOM     13  C   UNL     1      -0.198   3.197 -23.985  0.00  0.00    +0.053 C 
ATOM     14  C   UNL     1       1.050   2.970 -24.028  0.00  0.00    +0.015 C 
ATOM     15  C   UNL     1       1.595   2.304 -23.114  0.00  0.00    +0.069 C 
ATOM     16  C   UNL     1       0.909   1.856 -22.148  0.00  0.00    +0.208 C 
ATOM     17  C   UNL     1      -0.325   2.082 -22.109  0.00  0.00    +0.244 C 
ATOM     18  O   UNL     1      -1.625   1.888 -21.355  0.00  0.00    -0.479 OA
ATOM     19  C   UNL     1      -1.979   4.097 -24.871  0.00  0.00    +0.090 C 
ATOM     20  C   UNL     1      -2.807   2.535 -22.026  0.00  0.00    +0.167 A 
ENDROOT
BRANCH   1  22
ATOM     21  C   UNL     1      -5.999   2.332 -21.106  0.00  0.00    +0.277 C 
ATOM     22  O   UNL     1      -4.746   2.324 -21.032  0.00  0.00    -0.491 OA
ENDBRANCH   1  22
BRANCH  16  23
ATOM     23  O   UNL     1       2.042   1.428 -21.822  0.00  0.00    -0.349 OA
ATOM     24  C   UNL     1       2.436   0.313 -22.240  0.00  0.00    +0.197 C 
ENDBRANCH  16  23
BRANCH  16  25
ATOM     25  O   UNL     1       0.616   1.266 -21.080  0.00  0.00    -0.349 OA
ATOM     26  C   UNL     1       1.312   1.446 -20.052  0.00  0.00    +0.197 C 
ENDBRANCH  16  25
TORSDOF 3
ENDMDL
MODEL 6
REMARK VINA RESULT:    -8.529      1.456      4.632
REMARK INTER + INTRA:          -5.898
REMARK INTER:                 -10.024
REMARK INTRA:                   4.126
REMARK UNBOUND:                 4.127
REMARK  Name = COc1ccc2c3c1O[C@@H]1C(OC)(OC)CC[C@H]4[C@@H](C2)N(C)CC[C@]314         ZINC000253505285
REMARK  7 active torsions:
REMARK  status: ('A' for Active; 'I' for Inactive)
REMARK    1  A    between atoms: C_1  and  O_2
REMARK    2  A    between atoms: O_2  and  C_3
REMARK    3  A    between atoms: C_11  and  O_12
REMARK    4  A    between atoms: C_11  and  O_14
REMARK    5  A    between atoms: O_12  and  C_13
REMARK    6  A    between atoms: O_14  and  C_15
REMARK    7  A    between atoms: N_21  and  C_22
REMARK                            x       y       z     vdW  Elec       q    Type
REMARK                         _______ _______ _______ _____ _____    ______ ____
ROOT
ATOM      1  C   UNL     1      -4.165   3.156 -21.063  0.00  0.00    +0.162 A 
ATOM      2  C   UNL     1      -5.365   3.269 -21.456  0.00  0.00    +0.050 A 
ATOM      3  C   UNL     1      -5.627   3.398 -22.674  0.00  0.00    +0.008 A 
ATOM      4  C   UNL     1      -4.693   3.415 -23.513  0.00  0.00    -0.035 A 
ATOM      5  C   UNL     1      -3.489   3.304 -23.147  0.00  0.00    +0.012 A 
ATOM      6  C   UNL     1      -2.562   3.322 -23.989  0.00  0.00    +0.054 C 
ATOM      7  C   UNL     1      -1.421   3.328 -24.851  0.00  0.00    +0.067 C 
ATOM      8  C   UNL     1      -1.684   3.472 -26.233  0.00  0.00    +0.132 C 
ATOM      9  N   UNL     1      -3.035   3.595 -26.635  0.00  0.00    +0.236 N 
ATOM     10  H   UNL     1      -3.281   3.701 -27.619  0.00  0.00    +0.203 HD
ATOM     11  C   UNL     1      -3.354   3.726 -27.840  0.00  0.00    +0.190 C 
ATOM     12  C   UNL     1      -4.021   3.563 -25.599  0.00  0.00    +0.072 C 
ATOM     13  C   UNL     1      -2.819   3.450 -25.209  0.00  0.00    +0.053 C 
ATOM     14  C   UNL     1      -1.878   3.468 -26.061  0.00  0.00    +0.015 C 
ATOM     15  C   UNL     1      -0.688   3.357 -25.679  0.00  0.00    +0.069 C 
ATOM     16  C   UNL     1      -0.416   3.226 -24.448  0.00  0.00    +0.208 C 
ATOM     17  C   UNL     1      -1.349   3.209 -23.608  0.00  0.00    +0.244 C 
ATOM     18  O   UNL     1      -1.737   3.100 -22.147  0.00  0.00    -0.479 OA
ATOM     19  C   UNL     1      -4.953   3.546 -24.760  0.00  0.00    +0.090 C 
ATOM     20  C   UNL     1      -3.222   3.174 -21.915  0.00  0.00    +0.167 A 
ENDROOT
BRANCH   1  22
ATOM     21  C   UNL     1      -3.131   3.835 -19.275  0.00  0.00    +0.277 C 
ATOM     22  O   UNL     1      -3.908   3.028 -19.842  0.00  0.00    -0.491 OA
ENDBRANCH   1  22
BRANCH  16  23
ATOM     23  O   UNL     1       0.743   3.196 -24.926  0.00  0.00    -0.349 OA
ATOM     24  C   UNL     1       1.517   4.168 -24.757  0.00  0.00    +0.197 C 
ENDBRANCH  16  23
BRANCH  16  25
ATOM     25  O   UNL     1       0.247   3.087 -23.393  0.00  0.00    -0.349 OA
ATOM     26  C   UNL     1       0.924   2.047 -23.209  0.00  0.00    +0.197 C 
ENDBRANCH  16  25
TORSDOF 3
ENDMDL
MODEL 7
REMARK VINA RESULT:    -8.095      2.640      6.140
REMARK INTER + INTRA:          -5.388
REMARK INTER:                  -9.732
REMARK INTRA:                   4.344
REMARK UNBOUND:                 4.127
REMARK  Name = COc1ccc2c3c1O[C@@H]1C(OC)(OC)CC[C@H]4[C@@H](C2)N(C)CC[C@]314         ZINC000253505285
REMARK  7 active torsions:
REMARK  status: ('A' for Active; 'I' for Inactive)
REMARK    1  A    between atoms: C_1  and  O_2
REMARK    2  A    between atoms: O_2  and  C_3
REMARK    3  A    between atoms: C_11  and  O_12
REMARK    4  A    between atoms: C_11  and  O_14
REMARK    5  A    between atoms: O_12  and  C_13
REMARK    6  A    between atoms: O_14  and  C_15
REMARK    7  A    between atoms: N_21  and  C_22
REMARK                            x       y       z     vdW  Elec       q    Type
REMARK                         _______ _______ _______ _____ _____    ______ ____
ROOT
ATOM      1  C   UNL     1      -1.356   3.313 -23.338  0.00  0.00    +0.162 A 
ATOM      2  C   UNL     1      -1.481   4.547 -23.604  0.00  0.00    +0.050 A 
ATOM      3  C   UNL     1      -0.479   5.299 -23.622  0.00  0.00    +0.008 A 
ATOM      4  C   UNL     1       0.658   4.827 -23.374  0.00  0.00    -0.035 A 
ATOM      5  C   UNL     1       0.808   3.602 -23.106  0.00  0.00    +0.012 A 
ATOM      6  C   UNL     1       1.945   3.137 -22.860  0.00  0.00    +0.054 C 
ATOM      7  C   UNL     1       3.186   2.492 -22.563  0.00  0.00    +0.067 C 
ATOM      8  C   UNL     1       4.336   3.314 -22.576  0.00  0.00    +0.132 C 
ATOM      9  N   UNL     1       4.159   4.685 -22.877  0.00  0.00    +0.236 N 
ATOM     10  H   UNL     1       4.954   5.323 -22.899  0.00  0.00    +0.203 HD
ATOM     11  C   UNL     1       5.126   5.483 -22.908  0.00  0.00    +0.190 C 
ATOM     12  C   UNL     1       2.823   5.119 -23.143  0.00  0.00    +0.072 C 
ATOM     13  C   UNL     1       2.951   3.885 -22.877  0.00  0.00    +0.053 C 
ATOM     14  C   UNL     1       4.102   3.413 -22.627  0.00  0.00    +0.015 C 
ATOM     15  C   UNL     1       4.232   2.193 -22.363  0.00  0.00    +0.069 C 
ATOM     16  C   UNL     1       3.222   1.427 -22.343  0.00  0.00    +0.208 C 
ATOM     17  C   UNL     1       2.085   1.898 -22.591  0.00  0.00    +0.244 C 
ATOM     18  O   UNL     1       0.603   1.619 -22.733  0.00  0.00    -0.479 OA
ATOM     19  C   UNL     1       1.686   5.589 -23.391  0.00  0.00    +0.090 C 
ATOM     20  C   UNL     1      -0.204   2.840 -23.088  0.00  0.00    +0.167 A 
ENDROOT
BRANCH   1  22
ATOM     21  C   UNL     1      -3.398   2.916 -22.703  0.00  0.00    +0.277 C 
ATOM     22  O   UNL     1      -2.362   2.565 -23.321  0.00  0.00    -0.491 OA
ENDBRANCH   1  22
BRANCH  16  23
ATOM     23  O   UNL     1       4.122   0.602 -22.056  0.00  0.00    -0.349 OA
ATOM     24  C   UNL     1       4.278   0.231 -20.867  0.00  0.00    +0.197 C 
ENDBRANCH  16  23
BRANCH  16  25
ATOM     25  O   UNL     1       2.530   0.388 -22.226  0.00  0.00    -0.349 OA
ATOM     26  C   UNL     1       2.434  -0.415 -23.185  0.00  0.00    +0.197 C 
ENDBRANCH  16  25
TORSDOF 3
ENDMDL
MODEL 8
REMARK VINA RESULT:    -7.894      3.796      5.457
REMARK INTER + INTRA:          -5.152
REMARK INTER:                  -9.278
REMARK INTRA:                   4.127
REMARK UNBOUND:                 4.127
REMARK  Name = COc1ccc2c3c1O[C@@H]1C(OC)(OC)CC[C@H]4[C@@H](C2)N(C)CC[C@]314         ZINC000253505285
REMARK  7 active torsions:
REMARK  status: ('A' for Active; 'I' for Inactive)
REMARK    1  A    between atoms: C_1  and  O_2
REMARK    2  A    between atoms: O_2  and  C_3
REMARK    3  A    between atoms: C_11  and  O_12
REMARK    4  A    between atoms: C_11  and  O_14
REMARK    5  A    between atoms: O_12  and  C_13
REMARK    6  A    between atoms: O_14  and  C_15
REMARK    7  A    between atoms: N_21  and  C_22
REMARK                            x       y       z     vdW  Elec       q    Type
REMARK                         _______ _______ _______ _____ _____    ______ ____
ROOT
ATOM      1  C   UNL     1       4.338   6.785 -22.322  0.00  0.00    +0.162 A 
ATOM      2  C   UNL     1       5.514   6.310 -22.309  0.00  0.00    +0.050 A 
ATOM      3  C   UNL     1       5.731   5.137 -22.691  0.00  0.00    +0.008 A 
ATOM      4  C   UNL     1       4.777   4.425 -23.089  0.00  0.00    -0.035 A 
ATOM      5  C   UNL     1       3.597   4.874 -23.112  0.00  0.00    +0.012 A 
ATOM      6  C   UNL     1       2.649   4.159 -23.510  0.00  0.00    +0.054 C 
ATOM      7  C   UNL     1       1.489   3.442 -23.942  0.00  0.00    +0.067 C 
ATOM      8  C   UNL     1       1.702   2.114 -24.378  0.00  0.00    +0.132 C 
ATOM      9  N   UNL     1       3.027   1.619 -24.350  0.00  0.00    +0.236 N 
ATOM     10  H   UNL     1       3.237   0.668 -24.654  0.00  0.00    +0.203 HD
ATOM     11  C   UNL     1       3.302   0.453 -24.720  0.00  0.00    +0.190 C 
ATOM     12  C   UNL     1       4.039   2.512 -23.878  0.00  0.00    +0.072 C 
ATOM     13  C   UNL     1       2.862   2.984 -23.893  0.00  0.00    +0.053 C 
ATOM     14  C   UNL     1       1.900   2.261 -24.296  0.00  0.00    +0.015 C 
ATOM     15  C   UNL     1       0.734   2.724 -24.312  0.00  0.00    +0.069 C 
ATOM     16  C   UNL     1       0.507   3.910 -23.927  0.00  0.00    +0.208 C 
ATOM     17  C   UNL     1       1.461   4.623 -23.529  0.00  0.00    +0.244 C 
ATOM     18  O   UNL     1       1.895   5.969 -22.986  0.00  0.00    -0.479 OA
ATOM     19  C   UNL     1       4.992   3.225 -23.480  0.00  0.00    +0.090 C 
ATOM     20  C   UNL     1       3.374   6.061 -22.726  0.00  0.00    +0.167 A 
ENDROOT
BRANCH   1  22
ATOM     21  C   UNL     1       4.456   8.313 -20.781  0.00  0.00    +0.277 C 
ATOM     22  O   UNL     1       4.125   7.960 -21.940  0.00  0.00    -0.491 OA
ENDBRANCH   1  22
BRANCH  16  23
ATOM     23  O   UNL     1      -0.658   3.558 -24.231  0.00  0.00    -0.349 OA
ATOM     24  C   UNL     1      -1.107   3.796 -25.378  0.00  0.00    +0.197 C 
ENDBRANCH  16  23
BRANCH  16  25
ATOM     25  O   UNL     1      -0.114   4.964 -23.650  0.00  0.00    -0.349 OA
ATOM     26  C   UNL     1      -1.035   4.945 -22.799  0.00  0.00    +0.197 C 
ENDBRANCH  16  25
TORSDOF 3
ENDMDL
MODEL 9
REMARK VINA RESULT:    -7.600      3.519      7.475
REMARK INTER + INTRA:          -4.806
REMARK INTER:                  -8.860
REMARK INTRA:                   4.054
REMARK UNBOUND:                 4.127
REMARK  Name = COc1ccc2c3c1O[C@@H]1C(OC)(OC)CC[C@H]4[C@@H](C2)N(C)CC[C@]314         ZINC000253505285
REMARK  7 active torsions:
REMARK  status: ('A' for Active; 'I' for Inactive)
REMARK    1  A    between atoms: C_1  and  O_2
REMARK    2  A    between atoms: O_2  and  C_3
REMARK    3  A    between atoms: C_11  and  O_12
REMARK    4  A    between atoms: C_11  and  O_14
REMARK    5  A    between atoms: O_12  and  C_13
REMARK    6  A    between atoms: O_14  and  C_15
REMARK    7  A    between atoms: N_21  and  C_22
REMARK                            x       y       z     vdW  Elec       q    Type
REMARK                         _______ _______ _______ _____ _____    ______ ____
ROOT
ATOM      1  C   UNL     1       0.352   3.668 -23.440  0.00  0.00    +0.162 A 
ATOM      2  C   UNL     1      -0.298   2.645 -23.070  0.00  0.00    +0.050 A 
ATOM      3  C   UNL     1       0.284   1.691 -22.503  0.00  0.00    +0.008 A 
ATOM      4  C   UNL     1       1.521   1.750 -22.299  0.00  0.00    -0.035 A 
ATOM      5  C   UNL     1       2.191   2.758 -22.658  0.00  0.00    +0.012 A 
ATOM      6  C   UNL     1       3.426   2.810 -22.453  0.00  0.00    +0.054 C 
ATOM      7  C   UNL     1       4.834   2.986 -22.273  0.00  0.00    +0.067 C 
ATOM      8  C   UNL     1       5.519   1.926 -21.636  0.00  0.00    +0.132 C 
ATOM      9  N   UNL     1       4.761   0.800 -21.237  0.00  0.00    +0.236 N 
ATOM     10  H   UNL     1       5.204   0.008 -20.773  0.00  0.00    +0.203 HD
ATOM     11  C   UNL     1       5.291  -0.182 -20.665  0.00  0.00    +0.190 C 
ATOM     12  C   UNL     1       3.359   0.836 -21.516  0.00  0.00    +0.072 C 
ATOM     13  C   UNL     1       4.013   1.858 -21.885  0.00  0.00    +0.053 C 
ATOM     14  C   UNL     1       5.263   1.913 -21.677  0.00  0.00    +0.015 C 
ATOM     15  C   UNL     1       5.913   2.923 -22.041  0.00  0.00    +0.069 C 
ATOM     16  C   UNL     1       5.331   3.891 -22.615  0.00  0.00    +0.208 C 
ATOM     17  C   UNL     1       4.093   3.833 -22.819  0.00  0.00    +0.244 C 
ATOM     18  O   UNL     1       2.869   4.527 -23.382  0.00  0.00    -0.479 OA
ATOM     19  C   UNL     1       2.122   0.779 -21.720  0.00  0.00    +0.090 C 
ATOM     20  C   UNL     1       1.605   3.723 -23.232  0.00  0.00    +0.167 A 
ENDROOT
BRANCH   1  22
ATOM     21  C   UNL     1      -1.419   4.901 -23.701  0.00  0.00    +0.277 C 
ATOM     22  O   UNL     1      -0.234   4.620 -24.008  0.00  0.00    -0.491 OA
ENDBRANCH   1  22
BRANCH  16  23
ATOM     23  O   UNL     1       6.507   4.326 -22.604  0.00  0.00    -0.349 OA
ATOM     24  C   UNL     1       7.177   4.351 -23.665  0.00  0.00    +0.197 C 
ENDBRANCH  16  23
BRANCH  16  25
ATOM     25  O   UNL     1       5.155   4.997 -23.180  0.00  0.00    -0.349 OA
ATOM     26  C   UNL     1       5.352   6.063 -22.548  0.00  0.00    +0.197 C 
ENDBRANCH  16  25
TORSDOF 3
ENDMDL
