MODEL 1
REMARK VINA RESULT:   -12.096      0.000      0.000
REMARK INTER + INTRA:         -12.449
REMARK INTER:                 -12.449
REMARK INTRA:                   0.000
REMARK UNBOUND:                 0.000
REMARK  Name = C[C@]12CC[C@@H]3[C@H](CC(=O)[C@@H]4C[C@@H](O)CC[C@@]43C)[C@H]1CCC2=O ZINC000253504580
REMARK  3 active torsions:
REMARK  status: ('A' for Active; 'I' for Inactive)
REMARK    1  A    between atoms: C_1  and  C_2
REMARK    2  A    between atoms: C_12  and  O_13
REMARK    3  A    between atoms: C_16  and  C_17
REMARK                            x       y       z     vdW  Elec       q    Type
REMARK                         _______ _______ _______ _____ _____    ______ ____
ROOT
ATOM      1  C   UNL     1      -4.845   2.882 -21.641  0.00  0.00    +0.019 C 
ATOM      2  C   UNL     1      -3.989   3.158 -22.580  0.00  0.00    +0.029 C 
ATOM      3  C   UNL     1      -3.471   2.550 -21.554  0.00  0.00    +0.015 C 
ATOM      4  C   UNL     1      -2.201   2.273 -21.536  0.00  0.00    +0.005 C 
ATOM      5  C   UNL     1      -1.449   2.605 -22.543  0.00  0.00    -0.001 C 
ATOM      6  C   UNL     1      -1.967   3.213 -23.569  0.00  0.00    +0.004 C 
ATOM      7  C   UNL     1      -1.215   3.545 -24.576  0.00  0.00    +0.078 C 
ATOM      8  C   UNL     1       0.055   3.268 -24.558  0.00  0.00    +0.137 C 
ATOM      9  C   UNL     1       0.573   2.660 -23.532  0.00  0.00    +0.064 C 
ATOM     10  C   UNL     1       1.843   2.384 -23.513  0.00  0.00    +0.043 C 
ATOM     11  C   UNL     1       2.361   1.776 -22.488  0.00  0.00    +0.115 C 
ATOM     12  C   UNL     1       1.609   1.444 -21.480  0.00  0.00    +0.032 C 
ATOM     13  C   UNL     1       0.339   1.721 -21.498  0.00  0.00    +0.010 C 
ATOM     14  O   UNL     1       0.807   3.600 -25.565  0.00  0.00    -0.297 OA
ATOM     15  C   UNL     1      -0.179   2.329 -22.525  0.00  0.00    -0.019 C 
ATOM     16  C   UNL     1      -0.931   1.997 -21.517  0.00  0.00    +0.012 C 
ATOM     17  C   UNL     1      -5.203   3.541 -22.842  0.00  0.00    +0.139 C 
ATOM     18  O   UNL     1      -6.238   3.384 -22.071  0.00  0.00    -0.297 OA
ATOM     19  C   UNL     1      -5.202   4.109 -24.012  0.00  0.00    +0.075 C 
ATOM     20  C   UNL     1      -3.987   4.077 -24.472  0.00  0.00    +0.012 C 
ATOM     21  C   UNL     1      -3.237   3.489 -23.587  0.00  0.00    +0.006 C 
ENDROOT
BRANCH  11  22
ATOM     22  O   UNL     1       3.632   1.499 -22.469  0.00  0.00    -0.392 OA
ATOM     23  H   UNL     1       3.805   0.825 -21.793  0.00  0.00    +0.210 HD
ENDBRANCH  11  22
TORSDOF 1
ENDMDL
MODEL 2
REMARK VINA RESULT:   -11.819      1.144      2.662
REMARK INTER + INTRA:         -12.165
REMARK INTER:                 -12.165
REMARK INTRA:                   0.000
REMARK UNBOUND:                 0.000
REMARK  Name = C[C@]12CC[C@@H]3[C@H](CC(=O)[C@@H]4C[C@@H](O)CC[C@@]43C)[C@H]1CCC2=O ZINC000253504580
REMARK  3 active torsions:
REMARK  status: ('A' for Active; 'I' for Inactive)
REMARK    1  A    between atoms: C_1  and  C_2
REMARK    2  A    between atoms: C_12  and  O_13
REMARK    3  A    between atoms: C_16  and  C_17
REMARK                            x       y       z     vdW  Elec       q    Type
REMARK                         _______ _______ _______ _____ _____    ______ ____
ROOT
ATOM      1  C   UNL     1      -4.528   3.780 -23.912  0.00  0.00    +0.019 C 
ATOM      2  C   UNL     1      -3.681   3.260 -23.075  0.00  0.00    +0.029 C 
ATOM      3  C   UNL     1      -3.161   3.586 -24.221  0.00  0.00    +0.015 C 
ATOM      4  C   UNL     1      -1.896   3.381 -24.443  0.00  0.00    +0.005 C 
ATOM      5  C   UNL     1      -1.152   2.850 -23.518  0.00  0.00    -0.001 C 
ATOM      6  C   UNL     1      -1.672   2.525 -22.372  0.00  0.00    +0.004 C 
ATOM      7  C   UNL     1      -0.928   1.994 -21.447  0.00  0.00    +0.078 C 
ATOM      8  C   UNL     1       0.336   1.789 -21.668  0.00  0.00    +0.137 C 
ATOM      9  C   UNL     1       0.857   2.114 -22.815  0.00  0.00    +0.064 C 
ATOM     10  C   UNL     1       2.121   1.909 -23.036  0.00  0.00    +0.043 C 
ATOM     11  C   UNL     1       2.641   2.235 -24.181  0.00  0.00    +0.115 C 
ATOM     12  C   UNL     1       1.897   2.765 -25.106  0.00  0.00    +0.032 C 
ATOM     13  C   UNL     1       0.633   2.971 -24.885  0.00  0.00    +0.010 C 
ATOM     14  O   UNL     1       1.080   1.258 -20.744  0.00  0.00    -0.297 OA
ATOM     15  C   UNL     1       0.112   2.645 -23.739  0.00  0.00    -0.019 C 
ATOM     16  C   UNL     1      -0.632   3.176 -24.664  0.00  0.00    +0.012 C 
ATOM     17  C   UNL     1      -4.891   3.358 -22.610  0.00  0.00    +0.139 C 
ATOM     18  O   UNL     1      -5.918   3.841 -23.245  0.00  0.00    -0.297 OA
ATOM     19  C   UNL     1      -4.895   2.888 -21.398  0.00  0.00    +0.075 C 
ATOM     20  C   UNL     1      -3.688   2.500 -21.114  0.00  0.00    +0.012 C 
ATOM     21  C   UNL     1      -2.937   2.730 -22.150  0.00  0.00    +0.006 C 
ENDROOT
BRANCH  11  22
ATOM     22  O   UNL     1       3.906   2.030 -24.403  0.00  0.00    -0.392 OA
ATOM     23  H   UNL     1       4.384   2.872 -24.347  0.00  0.00    +0.210 HD
ENDBRANCH  11  22
TORSDOF 1
ENDMDL
MODEL 3
REMARK VINA RESULT:   -11.586      1.141      5.513
REMARK INTER + INTRA:         -11.925
REMARK INTER:                 -11.925
REMARK INTRA:                   0.000
REMARK UNBOUND:                 0.000
REMARK  Name = C[C@]12CC[C@@H]3[C@H](CC(=O)[C@@H]4C[C@@H](O)CC[C@@]43C)[C@H]1CCC2=O ZINC000253504580
REMARK  3 active torsions:
REMARK  status: ('A' for Active; 'I' for Inactive)
REMARK    1  A    between atoms: C_1  and  C_2
REMARK    2  A    between atoms: C_12  and  O_13
REMARK    3  A    between atoms: C_16  and  C_17
REMARK                            x       y       z     vdW  Elec       q    Type
REMARK                         _______ _______ _______ _____ _____    ______ ____
ROOT
ATOM      1  C   UNL     1       1.646   2.028 -22.519  0.00  0.00    +0.019 C 
ATOM      2  C   UNL     1       0.773   2.617 -23.280  0.00  0.00    +0.029 C 
ATOM      3  C   UNL     1       0.272   2.116 -22.191  0.00  0.00    +0.015 C 
ATOM      4  C   UNL     1      -1.001   2.230 -21.947  0.00  0.00    +0.005 C 
ATOM      5  C   UNL     1      -1.771   2.846 -22.794  0.00  0.00    -0.001 C 
ATOM      6  C   UNL     1      -1.270   3.348 -23.884  0.00  0.00    +0.004 C 
ATOM      7  C   UNL     1      -2.040   3.964 -24.730  0.00  0.00    +0.078 C 
ATOM      8  C   UNL     1      -3.312   4.079 -24.487  0.00  0.00    +0.137 C 
ATOM      9  C   UNL     1      -3.814   3.577 -23.397  0.00  0.00    +0.064 C 
ATOM     10  C   UNL     1      -5.085   3.692 -23.154  0.00  0.00    +0.043 C 
ATOM     11  C   UNL     1      -5.586   3.190 -22.064  0.00  0.00    +0.115 C 
ATOM     12  C   UNL     1      -4.816   2.574 -21.218  0.00  0.00    +0.032 C 
ATOM     13  C   UNL     1      -3.544   2.459 -21.461  0.00  0.00    +0.010 C 
ATOM     14  O   UNL     1      -4.083   4.695 -25.333  0.00  0.00    -0.297 OA
ATOM     15  C   UNL     1      -3.042   2.961 -22.551  0.00  0.00    -0.019 C 
ATOM     16  C   UNL     1      -2.272   2.345 -21.704  0.00  0.00    +0.012 C 
ATOM     17  C   UNL     1       1.984   2.639 -23.751  0.00  0.00    +0.139 C 
ATOM     18  O   UNL     1       3.034   2.123 -23.184  0.00  0.00    -0.297 OA
ATOM     19  C   UNL     1       1.963   3.269 -24.888  0.00  0.00    +0.075 C 
ATOM     20  C   UNL     1       0.738   3.636 -25.120  0.00  0.00    +0.012 C 
ATOM     21  C   UNL     1       0.002   3.233 -24.127  0.00  0.00    +0.006 C 
ENDROOT
BRANCH  11  22
ATOM     22  O   UNL     1      -6.859   3.305 -21.821  0.00  0.00    -0.392 OA
ATOM     23  H   UNL     1      -7.114   4.239 -21.872  0.00  0.00    +0.210 HD
ENDBRANCH  11  22
TORSDOF 1
ENDMDL
MODEL 4
REMARK VINA RESULT:   -10.595      2.173      4.248
REMARK INTER + INTRA:         -10.904
REMARK INTER:                 -10.904
REMARK INTRA:                   0.000
REMARK UNBOUND:                 0.000
REMARK  Name = C[C@]12CC[C@@H]3[C@H](CC(=O)[C@@H]4C[C@@H](O)CC[C@@]43C)[C@H]1CCC2=O ZINC000253504580
REMARK  3 active torsions:
REMARK  status: ('A' for Active; 'I' for Inactive)
REMARK    1  A    between atoms: C_1  and  C_2
REMARK    2  A    between atoms: C_12  and  O_13
REMARK    3  A    between atoms: C_16  and  C_17
REMARK                            x       y       z     vdW  Elec       q    Type
REMARK                         _______ _______ _______ _____ _____    ______ ____
ROOT
ATOM      1  C   UNL     1      -1.065   4.667 -23.615  0.00  0.00    +0.019 C 
ATOM      2  C   UNL     1      -0.481   3.649 -23.056  0.00  0.00    +0.029 C 
ATOM      3  C   UNL     1       0.342   4.525 -23.553  0.00  0.00    +0.015 C 
ATOM      4  C   UNL     1       1.625   4.336 -23.464  0.00  0.00    +0.005 C 
ATOM      5  C   UNL     1       2.085   3.271 -22.877  0.00  0.00    -0.001 C 
ATOM      6  C   UNL     1       1.263   2.396 -22.380  0.00  0.00    +0.004 C 
ATOM      7  C   UNL     1       1.724   1.331 -21.793  0.00  0.00    +0.078 C 
ATOM      8  C   UNL     1       3.006   1.142 -21.703  0.00  0.00    +0.137 C 
ATOM      9  C   UNL     1       3.829   2.017 -22.201  0.00  0.00    +0.064 C 
ATOM     10  C   UNL     1       5.112   1.828 -22.112  0.00  0.00    +0.043 C 
ATOM     11  C   UNL     1       5.934   2.703 -22.609  0.00  0.00    +0.115 C 
ATOM     12  C   UNL     1       5.474   3.768 -23.196  0.00  0.00    +0.032 C 
ATOM     13  C   UNL     1       4.191   3.957 -23.285  0.00  0.00    +0.010 C 
ATOM     14  O   UNL     1       3.468   0.077 -21.117  0.00  0.00    -0.297 OA
ATOM     15  C   UNL     1       3.368   3.082 -22.788  0.00  0.00    -0.019 C 
ATOM     16  C   UNL     1       2.908   4.146 -23.375  0.00  0.00    +0.012 C 
ATOM     17  C   UNL     1      -1.779   3.602 -23.013  0.00  0.00    +0.139 C 
ATOM     18  O   UNL     1      -2.594   4.492 -23.498  0.00  0.00    -0.297 OA
ATOM     19  C   UNL     1      -2.121   2.507 -22.400  0.00  0.00    +0.075 C 
ATOM     20  C   UNL     1      -1.034   1.879 -22.064  0.00  0.00    +0.012 C 
ATOM     21  C   UNL     1      -0.020   2.585 -22.469  0.00  0.00    +0.006 C 
ENDROOT
BRANCH  11  22
ATOM     22  O   UNL     1       7.218   2.514 -22.520  0.00  0.00    -0.392 OA
ATOM     23  H   UNL     1       7.617   2.588 -23.401  0.00  0.00    +0.210 HD
ENDBRANCH  11  22
TORSDOF 1
ENDMDL
MODEL 5
REMARK VINA RESULT:   -10.457      1.401      6.070
REMARK INTER + INTRA:         -10.762
REMARK INTER:                 -10.762
REMARK INTRA:                   0.000
REMARK UNBOUND:                 0.000
REMARK  Name = C[C@]12CC[C@@H]3[C@H](CC(=O)[C@@H]4C[C@@H](O)CC[C@@]43C)[C@H]1CCC2=O ZINC000253504580
REMARK  3 active torsions:
REMARK  status: ('A' for Active; 'I' for Inactive)
REMARK    1  A    between atoms: C_1  and  C_2
REMARK    2  A    between atoms: C_12  and  O_13
REMARK    3  A    between atoms: C_16  and  C_17
REMARK                            x       y       z     vdW  Elec       q    Type
REMARK                         _______ _______ _______ _____ _____    ______ ____
ROOT
ATOM      1  C   UNL     1       2.638   2.213 -23.633  0.00  0.00    +0.019 C 
ATOM      2  C   UNL     1       1.530   2.167 -22.956  0.00  0.00    +0.029 C 
ATOM      3  C   UNL     1       1.394   2.633 -24.162  0.00  0.00    +0.015 C 
ATOM      4  C   UNL     1       0.223   3.003 -24.588  0.00  0.00    +0.005 C 
ATOM      5  C   UNL     1      -0.812   2.906 -23.808  0.00  0.00    -0.001 C 
ATOM      6  C   UNL     1      -0.677   2.440 -22.602  0.00  0.00    +0.004 C 
ATOM      7  C   UNL     1      -1.712   2.343 -21.822  0.00  0.00    +0.078 C 
ATOM      8  C   UNL     1      -2.883   2.713 -22.248  0.00  0.00    +0.137 C 
ATOM      9  C   UNL     1      -3.019   3.179 -23.454  0.00  0.00    +0.064 C 
ATOM     10  C   UNL     1      -4.190   3.549 -23.880  0.00  0.00    +0.043 C 
ATOM     11  C   UNL     1      -4.326   4.015 -25.086  0.00  0.00    +0.115 C 
ATOM     12  C   UNL     1      -3.291   4.112 -25.866  0.00  0.00    +0.032 C 
ATOM     13  C   UNL     1      -2.120   3.742 -25.440  0.00  0.00    +0.010 C 
ATOM     14  O   UNL     1      -3.919   2.616 -21.468  0.00  0.00    -0.297 OA
ATOM     15  C   UNL     1      -1.983   3.276 -24.234  0.00  0.00    -0.019 C 
ATOM     16  C   UNL     1      -0.948   3.372 -25.014  0.00  0.00    +0.012 C 
ATOM     17  C   UNL     1       2.568   1.738 -22.301  0.00  0.00    +0.139 C 
ATOM     18  O   UNL     1       3.786   1.681 -22.751  0.00  0.00    -0.297 OA
ATOM     19  C   UNL     1       2.174   1.376 -21.116  0.00  0.00    +0.075 C 
ATOM     20  C   UNL     1       0.893   1.582 -21.039  0.00  0.00    +0.012 C 
ATOM     21  C   UNL     1       0.495   2.070 -22.176  0.00  0.00    +0.006 C 
ENDROOT
BRANCH  11  22
ATOM     22  O   UNL     1      -5.498   4.385 -25.512  0.00  0.00    -0.392 OA
ATOM     23  H   UNL     1      -5.685   3.949 -26.359  0.00  0.00    +0.210 HD
ENDBRANCH  11  22
TORSDOF 1
ENDMDL
MODEL 6
REMARK VINA RESULT:   -10.277      1.239      5.730
REMARK INTER + INTRA:         -10.578
REMARK INTER:                 -10.578
REMARK INTRA:                   0.000
REMARK UNBOUND:                 0.000
REMARK  Name = C[C@]12CC[C@@H]3[C@H](CC(=O)[C@@H]4C[C@@H](O)CC[C@@]43C)[C@H]1CCC2=O ZINC000253504580
REMARK  3 active torsions:
REMARK  status: ('A' for Active; 'I' for Inactive)
REMARK    1  A    between atoms: C_1  and  C_2
REMARK    2  A    between atoms: C_12  and  O_13
REMARK    3  A    between atoms: C_16  and  C_17
REMARK                            x       y       z     vdW  Elec       q    Type
REMARK                         _______ _______ _______ _____ _____    ______ ____
ROOT
ATOM      1  C   UNL     1       2.990   0.933 -21.942  0.00  0.00    +0.019 C 
ATOM      2  C   UNL     1       2.344   1.875 -22.563  0.00  0.00    +0.029 C 
ATOM      3  C   UNL     1       1.614   1.191 -21.732  0.00  0.00    +0.015 C 
ATOM      4  C   UNL     1       0.354   1.478 -21.585  0.00  0.00    +0.005 C 
ATOM      5  C   UNL     1      -0.175   2.449 -22.269  0.00  0.00    -0.001 C 
ATOM      6  C   UNL     1       0.555   3.132 -23.100  0.00  0.00    +0.004 C 
ATOM      7  C   UNL     1       0.026   4.103 -23.784  0.00  0.00    +0.078 C 
ATOM      8  C   UNL     1      -1.233   4.390 -23.637  0.00  0.00    +0.137 C 
ATOM      9  C   UNL     1      -1.963   3.707 -22.806  0.00  0.00    +0.064 C 
ATOM     10  C   UNL     1      -3.222   3.994 -22.659  0.00  0.00    +0.043 C 
ATOM     11  C   UNL     1      -3.952   3.311 -21.829  0.00  0.00    +0.115 C 
ATOM     12  C   UNL     1      -3.423   2.340 -21.144  0.00  0.00    +0.032 C 
ATOM     13  C   UNL     1      -2.164   2.053 -21.291  0.00  0.00    +0.010 C 
ATOM     14  O   UNL     1      -1.763   5.361 -24.321  0.00  0.00    -0.297 OA
ATOM     15  C   UNL     1      -1.434   2.736 -22.122  0.00  0.00    -0.019 C 
ATOM     16  C   UNL     1      -0.904   1.766 -21.438  0.00  0.00    +0.012 C 
ATOM     17  C   UNL     1       3.600   1.792 -22.889  0.00  0.00    +0.139 C 
ATOM     18  O   UNL     1       4.459   0.940 -22.413  0.00  0.00    -0.297 OA
ATOM     19  C   UNL     1       3.847   2.712 -23.774  0.00  0.00    +0.075 C 
ATOM     20  C   UNL     1       2.744   3.362 -23.995  0.00  0.00    +0.012 C 
ATOM     21  C   UNL     1       1.815   2.845 -23.247  0.00  0.00    +0.006 C 
ENDROOT
BRANCH  11  22
ATOM     22  O   UNL     1      -5.212   3.598 -21.681  0.00  0.00    -0.392 OA
ATOM     23  H   UNL     1      -5.744   2.802 -21.832  0.00  0.00    +0.210 HD
ENDBRANCH  11  22
TORSDOF 1
ENDMDL
MODEL 7
REMARK VINA RESULT:    -9.918      1.829      2.831
REMARK INTER + INTRA:         -10.208
REMARK INTER:                 -10.208
REMARK INTRA:                   0.000
REMARK UNBOUND:                 0.000
REMARK  Name = C[C@]12CC[C@@H]3[C@H](CC(=O)[C@@H]4C[C@@H](O)CC[C@@]43C)[C@H]1CCC2=O ZINC000253504580
REMARK  3 active torsions:
REMARK  status: ('A' for Active; 'I' for Inactive)
REMARK    1  A    between atoms: C_1  and  C_2
REMARK    2  A    between atoms: C_12  and  O_13
REMARK    3  A    between atoms: C_16  and  C_17
REMARK                            x       y       z     vdW  Elec       q    Type
REMARK                         _______ _______ _______ _____ _____    ______ ____
ROOT
ATOM      1  C   UNL     1      -2.416   2.355 -22.363  0.00  0.00    +0.019 C 
ATOM      2  C   UNL     1      -1.368   3.041 -22.712  0.00  0.00    +0.029 C 
ATOM      3  C   UNL     1      -1.092   1.890 -22.174  0.00  0.00    +0.015 C 
ATOM      4  C   UNL     1       0.146   1.521 -22.028  0.00  0.00    +0.005 C 
ATOM      5  C   UNL     1       1.108   2.303 -22.421  0.00  0.00    -0.001 C 
ATOM      6  C   UNL     1       0.831   3.453 -22.959  0.00  0.00    +0.004 C 
ATOM      7  C   UNL     1       1.793   4.235 -23.352  0.00  0.00    +0.078 C 
ATOM      8  C   UNL     1       3.031   3.867 -23.206  0.00  0.00    +0.137 C 
ATOM      9  C   UNL     1       3.308   2.716 -22.668  0.00  0.00    +0.064 C 
ATOM     10  C   UNL     1       4.545   2.347 -22.522  0.00  0.00    +0.043 C 
ATOM     11  C   UNL     1       4.822   1.197 -21.984  0.00  0.00    +0.115 C 
ATOM     12  C   UNL     1       3.860   0.415 -21.591  0.00  0.00    +0.032 C 
ATOM     13  C   UNL     1       2.623   0.783 -21.737  0.00  0.00    +0.010 C 
ATOM     14  O   UNL     1       3.993   4.648 -23.599  0.00  0.00    -0.297 OA
ATOM     15  C   UNL     1       2.346   1.934 -22.275  0.00  0.00    -0.019 C 
ATOM     16  C   UNL     1       1.384   1.152 -21.883  0.00  0.00    +0.012 C 
ATOM     17  C   UNL     1      -2.497   3.633 -22.967  0.00  0.00    +0.139 C 
ATOM     18  O   UNL     1      -3.682   3.161 -22.715  0.00  0.00    -0.297 OA
ATOM     19  C   UNL     1      -2.233   4.782 -23.516  0.00  0.00    +0.075 C 
ATOM     20  C   UNL     1      -0.942   4.898 -23.602  0.00  0.00    +0.012 C 
ATOM     21  C   UNL     1      -0.407   3.823 -23.105  0.00  0.00    +0.006 C 
ENDROOT
BRANCH  11  22
ATOM     22  O   UNL     1       6.060   0.828 -21.838  0.00  0.00    -0.392 OA
ATOM     23  H   UNL     1       6.158   0.353 -20.998  0.00  0.00    +0.210 HD
ENDBRANCH  11  22
TORSDOF 1
ENDMDL
MODEL 8
REMARK VINA RESULT:    -9.640      1.928      6.220
REMARK INTER + INTRA:          -9.921
REMARK INTER:                  -9.921
REMARK INTRA:                   0.000
REMARK UNBOUND:                 0.000
REMARK  Name = C[C@]12CC[C@@H]3[C@H](CC(=O)[C@@H]4C[C@@H](O)CC[C@@]43C)[C@H]1CCC2=O ZINC000253504580
REMARK  3 active torsions:
REMARK  status: ('A' for Active; 'I' for Inactive)
REMARK    1  A    between atoms: C_1  and  C_2
REMARK    2  A    between atoms: C_12  and  O_13
REMARK    3  A    between atoms: C_16  and  C_17
REMARK                            x       y       z     vdW  Elec       q    Type
REMARK                         _______ _______ _______ _____ _____    ______ ____
ROOT
ATOM      1  C   UNL     1       3.667   0.747 -20.624  0.00  0.00    +0.019 C 
ATOM      2  C   UNL     1       3.522   1.460 -21.701  0.00  0.00    +0.029 C 
ATOM      3  C   UNL     1       2.401   1.093 -21.155  0.00  0.00    +0.015 C 
ATOM      4  C   UNL     1       1.270   1.444 -21.693  0.00  0.00    +0.005 C 
ATOM      5  C   UNL     1       1.261   2.162 -22.777  0.00  0.00    -0.001 C 
ATOM      6  C   UNL     1       2.383   2.528 -23.323  0.00  0.00    +0.004 C 
ATOM      7  C   UNL     1       2.374   3.246 -24.407  0.00  0.00    +0.078 C 
ATOM      8  C   UNL     1       1.244   3.597 -24.945  0.00  0.00    +0.137 C 
ATOM      9  C   UNL     1       0.122   3.230 -24.399  0.00  0.00    +0.064 C 
ATOM     10  C   UNL     1      -1.008   3.581 -24.936  0.00  0.00    +0.043 C 
ATOM     11  C   UNL     1      -2.129   3.214 -24.390  0.00  0.00    +0.115 C 
ATOM     12  C   UNL     1      -2.120   2.497 -23.306  0.00  0.00    +0.032 C 
ATOM     13  C   UNL     1      -0.991   2.146 -22.768  0.00  0.00    +0.010 C 
ATOM     14  O   UNL     1       1.234   4.314 -26.029  0.00  0.00    -0.297 OA
ATOM     15  C   UNL     1       0.132   2.513 -23.315  0.00  0.00    -0.019 C 
ATOM     16  C   UNL     1       0.140   1.795 -22.230  0.00  0.00    +0.012 C 
ATOM     17  C   UNL     1       4.761   1.247 -21.371  0.00  0.00    +0.139 C 
ATOM     18  O   UNL     1       5.172   0.567 -20.341  0.00  0.00    -0.297 OA
ATOM     19  C   UNL     1       5.518   1.833 -22.251  0.00  0.00    +0.075 C 
ATOM     20  C   UNL     1       4.747   2.407 -23.124  0.00  0.00    +0.012 C 
ATOM     21  C   UNL     1       3.513   2.177 -22.785  0.00  0.00    +0.006 C 
ENDROOT
BRANCH  11  22
ATOM     22  O   UNL     1      -3.260   3.565 -24.928  0.00  0.00    -0.392 OA
ATOM     23  H   UNL     1      -3.169   3.575 -25.894  0.00  0.00    +0.210 HD
ENDBRANCH  11  22
TORSDOF 1
ENDMDL
