MODEL 1
REMARK VINA RESULT:    -9.432      0.000      0.000
REMARK INTER + INTRA:         -11.142
REMARK INTER:                 -11.511
REMARK INTRA:                   0.369
REMARK UNBOUND:                 0.495
REMARK  Name = ZINC000000689737
REMARK  5 active torsions:
REMARK  status: ('A' for Active; 'I' for Inactive)
REMARK    1  A    between atoms: C_1  and  C_2
REMARK    2  A    between atoms: C_6  and  C_7
REMARK    3  A    between atoms: C_8  and  N_9
REMARK    4  A    between atoms: C_8  and  C_18
REMARK    5  A    between atoms: C_10  and  C_12
REMARK                            x       y       z     vdW  Elec       q    Type
REMARK                         _______ _______ _______ _____ _____    ______ ____
ROOT
ATOM      1  C   UNL     1       3.295   3.604 -22.518  0.00  0.00    +0.044 C 
ATOM      2  C   UNL     1       2.675   4.662 -23.035  0.00  0.00    +0.097 C 
ENDROOT
BRANCH   2   3
ATOM      3  C   UNL     1       1.803   4.521 -24.035  0.00  0.00    +0.261 C 
ATOM      4  N   UNL     1       0.486   4.360 -23.782  0.00  0.00    -0.296 N 
ATOM      5  C   UNL     1      -0.017   4.331 -22.531  0.00  0.00    +0.113 C 
ATOM      6  C   UNL     1      -1.302   4.168 -22.492  0.00  0.00    +0.027 C 
ATOM      7  C   UNL     1      -1.685   4.093 -23.357  0.00  0.00    +0.018 C 
ATOM      8  C   UNL     1      -1.650   4.070 -24.303  0.00  0.00    +0.054 C 
ATOM      9  C   UNL     1      -2.837   3.914 -24.443  0.00  0.00    +0.027 A 
ATOM     10  C   UNL     1      -3.620   3.784 -25.449  0.00  0.00    +0.022 A 
ATOM     11  C   UNL     1      -4.924   3.623 -25.247  0.00  0.00    +0.007 A 
ATOM     12  C   UNL     1      -5.457   3.591 -23.998  0.00  0.00    +0.070 A 
ATOM     13  C   UNL     1      -4.695   3.720 -22.914  0.00  0.00    +0.251 A 
ATOM     14  O   UNL     1      -5.233   3.686 -21.724  0.00  0.00    -0.268 OA
ATOM     15  N   UNL     1      -3.431   3.879 -23.036  0.00  0.00    -0.312 N 
ATOM     16  C   UNL     1      -2.349   4.050 -21.915  0.00  0.00    +0.130 C 
ATOM     17  C   UNL     1      -0.440   4.212 -24.758  0.00  0.00    +0.117 C 
ATOM     18  O   UNL     1       2.232   4.540 -25.269  0.00  0.00    -0.269 OA
ENDBRANCH   2   3
BRANCH   1  24
ATOM     19  C   UNL     1       1.707   1.584 -21.276  0.00  0.00    +0.045 C 
ATOM     20  C   UNL     1       2.337   1.475 -22.413  0.00  0.00    -0.036 A 
ATOM     21  C   UNL     1       2.354   0.422 -23.186  0.00  0.00    +0.011 A 
ATOM     22  C   UNL     1       3.087   0.696 -24.227  0.00  0.00    +0.046 A 
ATOM     23  S   UNL     1       3.527   1.918 -24.101  0.00  0.00    -0.097 S 
ATOM     24  C   UNL     1       3.063   2.400 -22.981  0.00  0.00    +0.017 A 
ENDBRANCH   1  24
BRANCH   2  25
ATOM     25  N   UNL     1       2.925   5.845 -22.554  0.00  0.00    -0.277 N 
ATOM     26  H   UNL     1       2.185   6.418 -22.246  0.00  0.00    +0.155 HD
ATOM     27  C   UNL     1       4.159   6.276 -22.479  0.00  0.00    +0.248 C 
ATOM     28  O   UNL     1       5.146   5.521 -22.886  0.00  0.00    -0.270 OA
BRANCH  27  29
ATOM     29  C   UNL     1       4.401   7.462 -21.996  0.00  0.00    +0.037 A 
ATOM     30  C   UNL     1       3.736   8.496 -22.432  0.00  0.00    +0.013 A 
ATOM     31  C   UNL     1       3.984   9.684 -21.942  0.00  0.00    +0.001 A 
ATOM     32  C   UNL     1       4.896   9.829 -21.020  0.00  0.00    +0.000 A 
ATOM     33  C   UNL     1       5.561   8.794 -20.586  0.00  0.00    +0.001 A 
ATOM     34  C   UNL     1       5.313   7.607 -21.075  0.00  0.00    +0.013 A 
ENDBRANCH  27  29
ENDBRANCH   2  25
TORSDOF 4
ENDMDL
MODEL 2
REMARK VINA RESULT:    -7.780      1.468      2.086
REMARK INTER + INTRA:          -9.105
REMARK INTER:                  -9.217
REMARK INTRA:                   0.112
REMARK UNBOUND:                 0.495
REMARK  Name = ZINC000000689737
REMARK  5 active torsions:
REMARK  status: ('A' for Active; 'I' for Inactive)
REMARK    1  A    between atoms: C_1  and  C_2
REMARK    2  A    between atoms: C_6  and  C_7
REMARK    3  A    between atoms: C_8  and  N_9
REMARK    4  A    between atoms: C_8  and  C_18
REMARK    5  A    between atoms: C_10  and  C_12
REMARK                            x       y       z     vdW  Elec       q    Type
REMARK                         _______ _______ _______ _____ _____    ______ ____
ROOT
ATOM      1  C   UNL     1       3.593   3.511 -24.133  0.00  0.00    +0.044 C 
ATOM      2  C   UNL     1       2.989   4.132 -23.123  0.00  0.00    +0.097 C 
ENDROOT
BRANCH   2   3
ATOM      3  C   UNL     1       2.066   3.505 -22.391  0.00  0.00    +0.261 C 
ATOM      4  N   UNL     1       0.752   3.651 -22.669  0.00  0.00    -0.296 N 
ATOM      5  C   UNL     1       0.303   4.421 -23.681  0.00  0.00    +0.113 C 
ATOM      6  C   UNL     1      -0.988   4.435 -23.789  0.00  0.00    +0.027 C 
ATOM      7  C   UNL     1      -1.414   3.896 -23.134  0.00  0.00    +0.018 C 
ATOM      8  C   UNL     1      -1.421   3.311 -22.389  0.00  0.00    +0.054 C 
ATOM      9  C   UNL     1      -2.622   3.214 -22.351  0.00  0.00    +0.027 A 
ATOM     10  C   UNL     1      -3.456   2.585 -21.609  0.00  0.00    +0.022 A 
ATOM     11  C   UNL     1      -4.759   2.699 -21.846  0.00  0.00    +0.007 A 
ATOM     12  C   UNL     1      -5.238   3.468 -22.858  0.00  0.00    +0.070 A 
ATOM     13  C   UNL     1      -4.422   4.145 -23.663  0.00  0.00    +0.251 A 
ATOM     14  O   UNL     1      -4.909   4.877 -24.629  0.00  0.00    -0.268 OA
ATOM     15  N   UNL     1      -3.156   4.080 -23.491  0.00  0.00    -0.312 N 
ATOM     16  C   UNL     1      -2.016   4.783 -24.305  0.00  0.00    +0.130 C 
ATOM     17  C   UNL     1      -0.224   3.039 -21.959  0.00  0.00    +0.117 C 
ATOM     18  O   UNL     1       2.442   2.745 -21.397  0.00  0.00    -0.269 OA
ENDBRANCH   2   3
BRANCH   1  24
ATOM     19  C   UNL     1       1.631   2.641 -26.015  0.00  0.00    +0.045 C 
ATOM     20  C   UNL     1       2.397   1.871 -25.292  0.00  0.00    -0.036 A 
ATOM     21  C   UNL     1       2.404   0.565 -25.301  0.00  0.00    +0.011 A 
ATOM     22  C   UNL     1       3.302   0.159 -24.449  0.00  0.00    +0.046 A 
ATOM     23  S   UNL     1       3.854   1.212 -23.911  0.00  0.00    -0.097 S 
ATOM     24  C   UNL     1       3.295   2.270 -24.432  0.00  0.00    +0.017 A 
ENDBRANCH   1  24
BRANCH   2  25
ATOM     25  N   UNL     1       3.306   5.365 -22.852  0.00  0.00    -0.277 N 
ATOM     26  H   UNL     1       2.648   6.084 -22.993  0.00  0.00    +0.155 HD
ATOM     27  C   UNL     1       4.498   5.649 -22.391  0.00  0.00    +0.248 C 
ATOM     28  O   UNL     1       5.375   4.699 -22.200  0.00  0.00    -0.270 OA
BRANCH  27  29
ATOM     29  C   UNL     1       4.807   6.886 -22.121  0.00  0.00    +0.037 A 
ATOM     30  C   UNL     1       3.887   7.811 -22.138  0.00  0.00    +0.013 A 
ATOM     31  C   UNL     1       4.205   9.052 -21.867  0.00  0.00    +0.001 A 
ATOM     32  C   UNL     1       5.440   9.358 -21.580  0.00  0.00    +0.000 A 
ATOM     33  C   UNL     1       6.359   8.432 -21.564  0.00  0.00    +0.001 A 
ATOM     34  C   UNL     1       6.042   7.193 -21.835  0.00  0.00    +0.013 A 
ENDBRANCH  27  29
ENDBRANCH   2  25
TORSDOF 4
ENDMDL
MODEL 3
REMARK VINA RESULT:    -7.114      4.074      6.319
REMARK INTER + INTRA:          -8.282
REMARK INTER:                  -9.335
REMARK INTRA:                   1.053
REMARK UNBOUND:                 0.495
REMARK  Name = ZINC000000689737
REMARK  5 active torsions:
REMARK  status: ('A' for Active; 'I' for Inactive)
REMARK    1  A    between atoms: C_1  and  C_2
REMARK    2  A    between atoms: C_6  and  C_7
REMARK    3  A    between atoms: C_8  and  N_9
REMARK    4  A    between atoms: C_8  and  C_18
REMARK    5  A    between atoms: C_10  and  C_12
REMARK                            x       y       z     vdW  Elec       q    Type
REMARK                         _______ _______ _______ _____ _____    ______ ____
ROOT
ATOM      1  C   UNL     1       7.677   6.186 -22.824  0.00  0.00    +0.044 C 
ATOM      2  C   UNL     1       7.295   5.185 -23.613  0.00  0.00    +0.097 C 
ENDROOT
BRANCH   2   3
ATOM      3  C   UNL     1       6.758   4.077 -23.099  0.00  0.00    +0.261 C 
ATOM      4  N   UNL     1       5.416   3.938 -23.017  0.00  0.00    -0.296 N 
ATOM      5  C   UNL     1       4.559   4.888 -23.439  0.00  0.00    +0.113 C 
ATOM      6  C   UNL     1       3.313   4.573 -23.278  0.00  0.00    +0.027 C 
ATOM      7  C   UNL     1       3.203   3.715 -22.884  0.00  0.00    +0.018 C 
ATOM      8  C   UNL     1       3.521   2.902 -22.517  0.00  0.00    +0.054 C 
ATOM      9  C   UNL     1       2.422   2.456 -22.298  0.00  0.00    +0.027 A 
ATOM     10  C   UNL     1       1.971   1.369 -21.794  0.00  0.00    +0.022 A 
ATOM     11  C   UNL     1       0.658   1.188 -21.693  0.00  0.00    +0.007 A 
ATOM     12  C   UNL     1      -0.228   2.129 -22.111  0.00  0.00    +0.070 A 
ATOM     13  C   UNL     1       0.179   3.280 -22.643  0.00  0.00    +0.251 A 
ATOM     14  O   UNL     1      -0.695   4.168 -23.036  0.00  0.00    -0.268 OA
ATOM     15  N   UNL     1       1.430   3.518 -22.769  0.00  0.00    -0.312 N 
ATOM     16  C   UNL     1       2.134   4.788 -23.359  0.00  0.00    +0.130 C 
ATOM     17  C   UNL     1       4.819   2.837 -22.505  0.00  0.00    +0.117 C 
ATOM     18  O   UNL     1       7.540   3.121 -22.673  0.00  0.00    -0.269 OA
ENDBRANCH   2   3
BRANCH   1  24
ATOM     19  C   UNL     1       5.688   7.496 -21.251  0.00  0.00    +0.045 C 
ATOM     20  C   UNL     1       6.623   6.705 -20.803  0.00  0.00    -0.036 A 
ATOM     21  C   UNL     1       6.816   6.371 -19.555  0.00  0.00    +0.011 A 
ATOM     22  C   UNL     1       7.842   5.569 -19.505  0.00  0.00    +0.046 A 
ATOM     23  S   UNL     1       8.286   5.404 -20.721  0.00  0.00    -0.097 S 
ATOM     24  C   UNL     1       7.533   6.106 -21.523  0.00  0.00    +0.017 A 
ENDBRANCH   1  24
BRANCH   2  25
ATOM     25  N   UNL     1       7.451   5.294 -24.901  0.00  0.00    -0.277 N 
ATOM     26  H   UNL     1       6.904   4.746 -25.510  0.00  0.00    +0.155 HD
ATOM     27  C   UNL     1       8.333   6.130 -25.387  0.00  0.00    +0.248 C 
ATOM     28  O   UNL     1       9.062   6.859 -24.584  0.00  0.00    -0.270 OA
BRANCH  27  29
ATOM     29  C   UNL     1       8.482   6.232 -26.677  0.00  0.00    +0.037 A 
ATOM     30  C   UNL     1       8.369   7.393 -27.261  0.00  0.00    +0.013 A 
ATOM     31  C   UNL     1       8.520   7.488 -28.558  0.00  0.00    +0.001 A 
ATOM     32  C   UNL     1       8.783   6.422 -29.261  0.00  0.00    +0.000 A 
ATOM     33  C   UNL     1       8.896   5.261 -28.676  0.00  0.00    +0.001 A 
ATOM     34  C   UNL     1       8.745   5.166 -27.381  0.00  0.00    +0.013 A 
ENDBRANCH  27  29
ENDBRANCH   2  25
TORSDOF 4
ENDMDL
