MODEL 1
REMARK VINA RESULT:   -10.940      0.000      0.000
REMARK INTER + INTRA:         -11.691
REMARK INTER:                 -11.542
REMARK INTRA:                  -0.149
REMARK UNBOUND:                -0.112
REMARK  Name = COc1ccc2c3c1O[C@@H]1[C@H](Cl)C=C[C@H]4[C@@H](C2)N(C)CC[C@]314        ZINC000201160979
REMARK  3 active torsions:
REMARK  status: ('A' for Active; 'I' for Inactive)
REMARK    1  A    between atoms: C_1  and  O_2
REMARK    2  A    between atoms: O_2  and  C_3
REMARK    3  A    between atoms: N_18  and  C_19
REMARK                            x       y       z     vdW  Elec       q    Type
REMARK                         _______ _______ _______ _____ _____    ______ ____
ROOT
ATOM      1  C   UNL     1       0.920   2.255 -23.275  0.00  0.00    +0.162 A 
ATOM      2  C   UNL     1       0.868   1.902 -22.063  0.00  0.00    +0.050 A 
ATOM      3  C   UNL     1      -0.212   1.936 -21.438  0.00  0.00    +0.008 A 
ATOM      4  C   UNL     1      -1.252   2.324 -22.016  0.00  0.00    -0.034 A 
ATOM      5  C   UNL     1      -1.225   2.680 -23.222  0.00  0.00    +0.012 A 
ATOM      6  C   UNL     1      -2.264   3.066 -23.794  0.00  0.00    +0.054 C 
ATOM      7  C   UNL     1      -3.382   3.523 -24.550  0.00  0.00    +0.067 C 
ATOM      8  C   UNL     1      -4.615   3.573 -23.872  0.00  0.00    +0.132 C 
ATOM      9  N   UNL     1      -4.634   3.172 -22.522  0.00  0.00    +0.236 N 
ATOM     10  H   UNL     1      -5.500   3.189 -21.983  0.00  0.00    +0.203 HD
ATOM     11  C   UNL     1      -5.686   3.186 -21.849  0.00  0.00    +0.190 C 
ATOM     12  C   UNL     1      -3.397   2.748 -21.960  0.00  0.00    +0.076 C 
ATOM     13  C   UNL     1      -3.348   3.102 -23.172  0.00  0.00    +0.075 C 
ATOM     14  C   UNL     1      -4.400   3.493 -23.752  0.00  0.00    -0.020 C 
ATOM     15  C   UNL     1      -4.356   3.843 -24.950  0.00  0.00    -0.008 C 
ATOM     16  C   UNL     1      -3.268   3.811 -25.589  0.00  0.00    +0.144 C 
ATOM     17 CL   UNL     1      -3.229   4.162 -26.786  0.00  0.00    -0.113 Cl
ATOM     18  C   UNL     1      -2.228   3.424 -25.011  0.00  0.00    +0.207 C 
ATOM     19  O   UNL     1      -0.747   3.153 -25.126  0.00  0.00    -0.482 OA
ATOM     20  C   UNL     1      -2.357   2.362 -21.384  0.00  0.00    +0.090 C 
ATOM     21  C   UNL     1      -0.135   2.646 -23.856  0.00  0.00    +0.167 A 
ENDROOT
BRANCH   1  23
ATOM     22  C   UNL     1       2.713   3.245 -23.976  0.00  0.00    +0.277 C 
ATOM     23  O   UNL     1       2.002   2.219 -23.897  0.00  0.00    -0.491 OA
ENDBRANCH   1  23
TORSDOF 1
ENDMDL
MODEL 2
REMARK VINA RESULT:   -10.707      2.053      3.014
REMARK INTER + INTRA:         -11.445
REMARK INTER:                 -11.329
REMARK INTRA:                  -0.116
REMARK UNBOUND:                -0.112
REMARK  Name = COc1ccc2c3c1O[C@@H]1[C@H](Cl)C=C[C@H]4[C@@H](C2)N(C)CC[C@]314        ZINC000201160979
REMARK  3 active torsions:
REMARK  status: ('A' for Active; 'I' for Inactive)
REMARK    1  A    between atoms: C_1  and  O_2
REMARK    2  A    between atoms: O_2  and  C_3
REMARK    3  A    between atoms: N_18  and  C_19
REMARK                            x       y       z     vdW  Elec       q    Type
REMARK                         _______ _______ _______ _____ _____    ______ ____
ROOT
ATOM      1  C   UNL     1       1.052   1.744 -22.159  0.00  0.00    +0.162 A 
ATOM      2  C   UNL     1       1.618   2.151 -23.213  0.00  0.00    +0.050 A 
ATOM      3  C   UNL     1       0.964   2.750 -24.092  0.00  0.00    +0.008 A 
ATOM      4  C   UNL     1      -0.261   2.948 -23.928  0.00  0.00    -0.034 A 
ATOM      5  C   UNL     1      -0.845   2.551 -22.887  0.00  0.00    +0.012 A 
ATOM      6  C   UNL     1      -2.066   2.751 -22.729  0.00  0.00    +0.054 C 
ATOM      7  C   UNL     1      -3.450   2.920 -22.437  0.00  0.00    +0.067 C 
ATOM      8  C   UNL     1      -4.215   3.592 -23.410  0.00  0.00    +0.132 C 
ATOM      9  N   UNL     1      -3.551   4.033 -24.572  0.00  0.00    +0.236 N 
ATOM     10  H   UNL     1      -4.057   4.525 -25.308  0.00  0.00    +0.203 HD
ATOM     11  C   UNL     1      -4.156   4.636 -25.483  0.00  0.00    +0.190 C 
ATOM     12  C   UNL     1      -2.157   3.757 -24.659  0.00  0.00    +0.076 C 
ATOM     13  C   UNL     1      -2.725   3.350 -23.606  0.00  0.00    +0.075 C 
ATOM     14  C   UNL     1      -3.962   3.552 -23.444  0.00  0.00    -0.020 C 
ATOM     15  C   UNL     1      -4.527   3.151 -22.404  0.00  0.00    -0.008 C 
ATOM     16  C   UNL     1      -3.872   2.545 -21.511  0.00  0.00    +0.144 C 
ATOM     17 CL   UNL     1      -4.441   2.147 -20.474  0.00  0.00    -0.113 Cl
ATOM     18  C   UNL     1      -2.648   2.347 -21.675  0.00  0.00    +0.207 C 
ATOM     19  O   UNL     1      -1.377   1.765 -21.106  0.00  0.00    -0.482 OA
ATOM     20  C   UNL     1      -0.934   3.558 -24.821  0.00  0.00    +0.090 C 
ATOM     21  C   UNL     1      -0.187   1.946 -21.998  0.00  0.00    +0.167 A 
ENDROOT
BRANCH   1  23
ATOM     22  C   UNL     1       2.882   1.501 -21.027  0.00  0.00    +0.277 C 
ATOM     23  O   UNL     1       1.710   1.145 -21.282  0.00  0.00    -0.491 OA
ENDBRANCH   1  23
TORSDOF 1
ENDMDL
MODEL 3
REMARK VINA RESULT:   -10.566      2.692      5.439
REMARK INTER + INTRA:         -11.296
REMARK INTER:                 -11.177
REMARK INTRA:                  -0.119
REMARK UNBOUND:                -0.112
REMARK  Name = COc1ccc2c3c1O[C@@H]1[C@H](Cl)C=C[C@H]4[C@@H](C2)N(C)CC[C@]314        ZINC000201160979
REMARK  3 active torsions:
REMARK  status: ('A' for Active; 'I' for Inactive)
REMARK    1  A    between atoms: C_1  and  O_2
REMARK    2  A    between atoms: O_2  and  C_3
REMARK    3  A    between atoms: N_18  and  C_19
REMARK                            x       y       z     vdW  Elec       q    Type
REMARK                         _______ _______ _______ _____ _____    ______ ____
ROOT
ATOM      1  C   UNL     1      -4.742   3.264 -22.430  0.00  0.00    +0.162 A 
ATOM      2  C   UNL     1      -5.073   3.776 -23.536  0.00  0.00    +0.050 A 
ATOM      3  C   UNL     1      -4.225   3.941 -24.438  0.00  0.00    +0.008 A 
ATOM      4  C   UNL     1      -3.038   3.597 -24.244  0.00  0.00    -0.034 A 
ATOM      5  C   UNL     1      -2.685   3.086 -23.151  0.00  0.00    +0.012 A 
ATOM      6  C   UNL     1      -1.500   2.744 -22.963  0.00  0.00    +0.054 C 
ATOM      7  C   UNL     1      -0.181   2.317 -22.633  0.00  0.00    +0.067 C 
ATOM      8  C   UNL     1       0.798   2.490 -23.630  0.00  0.00    +0.132 C 
ATOM      9  N   UNL     1       0.392   3.064 -24.851  0.00  0.00    +0.236 N 
ATOM     10  H   UNL     1       1.060   3.213 -25.607  0.00  0.00    +0.203 HD
ATOM     11  C   UNL     1       1.197   3.253 -25.787  0.00  0.00    +0.190 C 
ATOM     12  C   UNL     1      -0.982   3.420 -24.968  0.00  0.00    +0.076 C 
ATOM     13  C   UNL     1      -0.648   2.908 -23.863  0.00  0.00    +0.075 C 
ATOM     14  C   UNL     1       0.552   2.562 -23.670  0.00  0.00    -0.020 C 
ATOM     15  C   UNL     1       0.887   2.055 -22.579  0.00  0.00    -0.008 C 
ATOM     16  C   UNL     1       0.035   1.885 -21.663  0.00  0.00    +0.144 C 
ATOM     17 CL   UNL     1       0.375   1.378 -20.573  0.00  0.00    -0.113 Cl
ATOM     18  C   UNL     1      -1.152   2.229 -21.856  0.00  0.00    +0.207 C 
ATOM     19  O   UNL     1      -2.548   2.319 -21.288  0.00  0.00    -0.482 OA
ATOM     20  C   UNL     1      -2.168   3.763 -25.160  0.00  0.00    +0.090 C 
ATOM     21  C   UNL     1      -3.539   2.918 -22.238  0.00  0.00    +0.167 A 
ENDROOT
BRANCH   1  23
ATOM     22  C   UNL     1      -6.716   2.626 -21.811  0.00  0.00    +0.277 C 
ATOM     23  O   UNL     1      -5.593   3.101 -21.531  0.00  0.00    -0.491 OA
ENDBRANCH   1  23
TORSDOF 1
ENDMDL
MODEL 4
REMARK VINA RESULT:   -10.141      2.091      4.744
REMARK INTER + INTRA:         -10.845
REMARK INTER:                 -10.780
REMARK INTRA:                  -0.066
REMARK UNBOUND:                -0.112
REMARK  Name = COc1ccc2c3c1O[C@@H]1[C@H](Cl)C=C[C@H]4[C@@H](C2)N(C)CC[C@]314        ZINC000201160979
REMARK  3 active torsions:
REMARK  status: ('A' for Active; 'I' for Inactive)
REMARK    1  A    between atoms: C_1  and  O_2
REMARK    2  A    between atoms: O_2  and  C_3
REMARK    3  A    between atoms: N_18  and  C_19
REMARK                            x       y       z     vdW  Elec       q    Type
REMARK                         _______ _______ _______ _____ _____    ______ ____
ROOT
ATOM      1  C   UNL     1      -3.879   3.566 -23.165  0.00  0.00    +0.162 A 
ATOM      2  C   UNL     1      -4.142   2.977 -22.079  0.00  0.00    +0.050 A 
ATOM      3  C   UNL     1      -3.235   2.423 -21.422  0.00  0.00    +0.008 A 
ATOM      4  C   UNL     1      -2.057   2.452 -21.844  0.00  0.00    -0.034 A 
ATOM      5  C   UNL     1      -1.772   3.033 -22.922  0.00  0.00    +0.012 A 
ATOM      6  C   UNL     1      -0.597   3.059 -23.338  0.00  0.00    +0.054 C 
ATOM      7  C   UNL     1       0.705   3.155 -23.912  0.00  0.00    +0.067 C 
ATOM      8  C   UNL     1       1.749   2.540 -23.194  0.00  0.00    +0.132 C 
ATOM      9  N   UNL     1       1.419   1.893 -21.987  0.00  0.00    +0.236 N 
ATOM     10  H   UNL     1       2.136   1.431 -21.428  0.00  0.00    +0.203 HD
ATOM     11  C   UNL     1       2.285   1.323 -21.291  0.00  0.00    +0.190 C 
ATOM     12  C   UNL     1       0.050   1.918 -21.598  0.00  0.00    +0.076 C 
ATOM     13  C   UNL     1       0.314   2.506 -22.684  0.00  0.00    +0.075 C 
ATOM     14  C   UNL     1       1.505   2.534 -23.107  0.00  0.00    -0.020 C 
ATOM     15  C   UNL     1       1.772   3.115 -24.180  0.00  0.00    -0.008 C 
ATOM     16  C   UNL     1       0.860   3.676 -24.849  0.00  0.00    +0.144 C 
ATOM     17 CL   UNL     1       1.132   4.256 -25.921  0.00  0.00    -0.113 Cl
ATOM     18  C   UNL     1      -0.317   3.647 -24.428  0.00  0.00    +0.207 C 
ATOM     19  O   UNL     1      -1.752   4.052 -24.665  0.00  0.00    -0.482 OA
ATOM     20  C   UNL     1      -1.128   1.890 -21.179  0.00  0.00    +0.090 C 
ATOM     21  C   UNL     1      -2.686   3.593 -23.587  0.00  0.00    +0.167 A 
ENDROOT
BRANCH   1  23
ATOM     22  C   UNL     1      -5.032   3.749 -24.989  0.00  0.00    +0.277 C 
ATOM     23  O   UNL     1      -4.789   4.118 -23.818  0.00  0.00    -0.491 OA
ENDBRANCH   1  23
TORSDOF 1
ENDMDL
MODEL 5
REMARK VINA RESULT:    -9.734      2.230      4.492
REMARK INTER + INTRA:         -10.415
REMARK INTER:                 -10.269
REMARK INTRA:                  -0.146
REMARK UNBOUND:                -0.112
REMARK  Name = COc1ccc2c3c1O[C@@H]1[C@H](Cl)C=C[C@H]4[C@@H](C2)N(C)CC[C@]314        ZINC000201160979
REMARK  3 active torsions:
REMARK  status: ('A' for Active; 'I' for Inactive)
REMARK    1  A    between atoms: C_1  and  O_2
REMARK    2  A    between atoms: O_2  and  C_3
REMARK    3  A    between atoms: N_18  and  C_19
REMARK                            x       y       z     vdW  Elec       q    Type
REMARK                         _______ _______ _______ _____ _____    ______ ____
ROOT
ATOM      1  C   UNL     1      -5.004   3.394 -21.777  0.00  0.00    +0.162 A 
ATOM      2  C   UNL     1      -4.359   3.376 -20.691  0.00  0.00    +0.050 A 
ATOM      3  C   UNL     1      -3.110   3.387 -20.696  0.00  0.00    +0.008 A 
ATOM      4  C   UNL     1      -2.493   3.416 -21.784  0.00  0.00    -0.034 A 
ATOM      5  C   UNL     1      -3.115   3.434 -22.877  0.00  0.00    +0.012 A 
ATOM      6  C   UNL     1      -2.495   3.462 -23.960  0.00  0.00    +0.054 C 
ATOM      7  C   UNL     1      -1.899   3.495 -25.254  0.00  0.00    +0.067 C 
ATOM      8  C   UNL     1      -0.491   3.508 -25.292  0.00  0.00    +0.132 C 
ATOM      9  N   UNL     1       0.195   3.488 -24.061  0.00  0.00    +0.236 N 
ATOM     10  H   UNL     1       1.214   3.497 -24.031  0.00  0.00    +0.203 HD
ATOM     11  C   UNL     1       1.443   3.498 -24.007  0.00  0.00    +0.190 C 
ATOM     12  C   UNL     1      -0.602   3.456 -22.882  0.00  0.00    +0.076 C 
ATOM     13  C   UNL     1      -1.245   3.473 -23.969  0.00  0.00    +0.075 C 
ATOM     14  C   UNL     1      -0.619   3.502 -25.066  0.00  0.00    -0.020 C 
ATOM     15  C   UNL     1      -1.251   3.520 -26.143  0.00  0.00    -0.008 C 
ATOM     16  C   UNL     1      -2.513   3.508 -26.147  0.00  0.00    +0.144 C 
ATOM     17 CL   UNL     1      -3.140   3.526 -27.226  0.00  0.00    -0.113 Cl
ATOM     18  C   UNL     1      -3.130   3.480 -25.059  0.00  0.00    +0.207 C 
ATOM     19  O   UNL     1      -4.473   3.453 -24.371  0.00  0.00    -0.482 OA
ATOM     20  C   UNL     1      -1.219   3.428 -21.796  0.00  0.00    +0.090 C 
ATOM     21  C   UNL     1      -4.376   3.423 -22.876  0.00  0.00    +0.167 A 
ENDROOT
BRANCH   1  23
ATOM     22  C   UNL     1      -6.869   2.294 -21.727  0.00  0.00    +0.277 C 
ATOM     23  O   UNL     1      -6.253   3.382 -21.768  0.00  0.00    -0.491 OA
ENDBRANCH   1  23
TORSDOF 1
ENDMDL
MODEL 6
REMARK VINA RESULT:    -9.599      3.215      6.325
REMARK INTER + INTRA:         -10.272
REMARK INTER:                 -10.156
REMARK INTRA:                  -0.116
REMARK UNBOUND:                -0.112
REMARK  Name = COc1ccc2c3c1O[C@@H]1[C@H](Cl)C=C[C@H]4[C@@H](C2)N(C)CC[C@]314        ZINC000201160979
REMARK  3 active torsions:
REMARK  status: ('A' for Active; 'I' for Inactive)
REMARK    1  A    between atoms: C_1  and  O_2
REMARK    2  A    between atoms: O_2  and  C_3
REMARK    3  A    between atoms: N_18  and  C_19
REMARK                            x       y       z     vdW  Elec       q    Type
REMARK                         _______ _______ _______ _____ _____    ______ ____
ROOT
ATOM      1  C   UNL     1      -1.543   3.319 -23.325  0.00  0.00    +0.162 A 
ATOM      2  C   UNL     1      -1.615   4.558 -23.561  0.00  0.00    +0.050 A 
ATOM      3  C   UNL     1      -0.584   5.262 -23.577  0.00  0.00    +0.008 A 
ATOM      4  C   UNL     1       0.530   4.736 -23.359  0.00  0.00    -0.034 A 
ATOM      5  C   UNL     1       0.626   3.504 -23.122  0.00  0.00    +0.012 A 
ATOM      6  C   UNL     1       1.739   2.984 -22.904  0.00  0.00    +0.054 C 
ATOM      7  C   UNL     1       2.950   2.281 -22.642  0.00  0.00    +0.067 C 
ATOM      8  C   UNL     1       4.132   3.047 -22.654  0.00  0.00    +0.132 C 
ATOM      9  N   UNL     1       4.013   4.425 -22.921  0.00  0.00    +0.236 N 
ATOM     10  H   UNL     1       4.836   5.027 -22.941  0.00  0.00    +0.203 HD
ATOM     11  C   UNL     1       5.011   5.176 -22.949  0.00  0.00    +0.190 C 
ATOM     12  C   UNL     1       2.700   4.923 -23.156  0.00  0.00    +0.076 C 
ATOM     13  C   UNL     1       2.774   3.684 -22.920  0.00  0.00    +0.075 C 
ATOM     14  C   UNL     1       3.901   3.156 -22.699  0.00  0.00    -0.020 C 
ATOM     15  C   UNL     1       3.980   1.932 -22.466  0.00  0.00    -0.008 C 
ATOM     16  C   UNL     1       2.941   1.214 -22.447  0.00  0.00    +0.144 C 
ATOM     17 CL   UNL     1       3.025  -0.009 -22.213  0.00  0.00    -0.113 Cl
ATOM     18  C   UNL     1       1.828   1.741 -22.666  0.00  0.00    +0.207 C 
ATOM     19  O   UNL     1       0.337   1.534 -22.791  0.00  0.00    -0.482 OA
ATOM     20  C   UNL     1       1.586   5.448 -23.374  0.00  0.00    +0.090 C 
ATOM     21  C   UNL     1      -0.414   2.791 -23.104  0.00  0.00    +0.167 A 
ENDROOT
BRANCH   1  23
ATOM     22  C   UNL     1      -3.640   3.084 -22.841  0.00  0.00    +0.277 C 
ATOM     23  O   UNL     1      -2.578   2.619 -23.310  0.00  0.00    -0.491 OA
ENDBRANCH   1  23
TORSDOF 1
ENDMDL
MODEL 7
REMARK VINA RESULT:    -8.738      2.906      4.539
REMARK INTER + INTRA:          -9.361
REMARK INTER:                  -9.230
REMARK INTRA:                  -0.130
REMARK UNBOUND:                -0.112
REMARK  Name = COc1ccc2c3c1O[C@@H]1[C@H](Cl)C=C[C@H]4[C@@H](C2)N(C)CC[C@]314        ZINC000201160979
REMARK  3 active torsions:
REMARK  status: ('A' for Active; 'I' for Inactive)
REMARK    1  A    between atoms: C_1  and  O_2
REMARK    2  A    between atoms: O_2  and  C_3
REMARK    3  A    between atoms: N_18  and  C_19
REMARK                            x       y       z     vdW  Elec       q    Type
REMARK                         _______ _______ _______ _____ _____    ______ ____
ROOT
ATOM      1  C   UNL     1       4.114   2.068 -21.794  0.00  0.00    +0.162 A 
ATOM      2  C   UNL     1       4.684   2.652 -22.759  0.00  0.00    +0.050 A 
ATOM      3  C   UNL     1       4.016   3.094 -23.717  0.00  0.00    +0.008 A 
ATOM      4  C   UNL     1       2.772   2.957 -23.722  0.00  0.00    -0.034 A 
ATOM      5  C   UNL     1       2.183   2.380 -22.772  0.00  0.00    +0.012 A 
ATOM      6  C   UNL     1       0.943   2.246 -22.782  0.00  0.00    +0.054 C 
ATOM      7  C   UNL     1      -0.463   2.035 -22.682  0.00  0.00    +0.067 C 
ATOM      8  C   UNL     1      -1.244   2.522 -23.747  0.00  0.00    +0.132 C 
ATOM      9  N   UNL     1      -0.574   3.168 -24.806  0.00  0.00    +0.236 N 
ATOM     10  H   UNL     1      -1.091   3.539 -25.603  0.00  0.00    +0.203 HD
ATOM     11  C   UNL     1      -1.192   3.628 -25.788  0.00  0.00    +0.190 C 
ATOM     12  C   UNL     1       0.842   3.270 -24.702  0.00  0.00    +0.076 C 
ATOM     13  C   UNL     1       0.270   2.687 -23.739  0.00  0.00    +0.075 C 
ATOM     14  C   UNL     1      -0.987   2.551 -23.747  0.00  0.00    -0.020 C 
ATOM     15  C   UNL     1      -1.556   1.975 -22.796  0.00  0.00    -0.008 C 
ATOM     16  C   UNL     1      -0.888   1.526 -21.824  0.00  0.00    +0.144 C 
ATOM     17 CL   UNL     1      -1.462   0.951 -20.876  0.00  0.00    -0.113 Cl
ATOM     18  C   UNL     1       0.356   1.662 -21.820  0.00  0.00    +0.207 C 
ATOM     19  O   UNL     1       1.650   1.410 -21.084  0.00  0.00    -0.482 OA
ATOM     20  C   UNL     1       2.085   3.405 -24.696  0.00  0.00    +0.090 C 
ATOM     21  C   UNL     1       2.855   1.933 -21.803  0.00  0.00    +0.167 A 
ENDROOT
BRANCH   1  23
ATOM     22  C   UNL     1       4.942   0.395 -20.698  0.00  0.00    +0.277 C 
ATOM     23  O   UNL     1       4.786   1.628 -20.838  0.00  0.00    -0.491 OA
ENDBRANCH   1  23
TORSDOF 1
ENDMDL
MODEL 8
REMARK VINA RESULT:    -8.359      3.638      6.823
REMARK INTER + INTRA:          -8.960
REMARK INTER:                  -8.850
REMARK INTRA:                  -0.109
REMARK UNBOUND:                -0.112
REMARK  Name = COc1ccc2c3c1O[C@@H]1[C@H](Cl)C=C[C@H]4[C@@H](C2)N(C)CC[C@]314        ZINC000201160979
REMARK  3 active torsions:
REMARK  status: ('A' for Active; 'I' for Inactive)
REMARK    1  A    between atoms: C_1  and  O_2
REMARK    2  A    between atoms: O_2  and  C_3
REMARK    3  A    between atoms: N_18  and  C_19
REMARK                            x       y       z     vdW  Elec       q    Type
REMARK                         _______ _______ _______ _____ _____    ______ ____
ROOT
ATOM      1  C   UNL     1       0.021   3.753 -23.409  0.00  0.00    +0.162 A 
ATOM      2  C   UNL     1      -0.610   2.769 -22.930  0.00  0.00    +0.050 A 
ATOM      3  C   UNL     1      -0.003   1.856 -22.332  0.00  0.00    +0.008 A 
ATOM      4  C   UNL     1       1.241   1.917 -22.207  0.00  0.00    -0.034 A 
ATOM      5  C   UNL     1       1.890   2.887 -22.676  0.00  0.00    +0.012 A 
ATOM      6  C   UNL     1       3.130   2.943 -22.548  0.00  0.00    +0.054 C 
ATOM      7  C   UNL     1       4.542   3.115 -22.465  0.00  0.00    +0.067 C 
ATOM      8  C   UNL     1       5.256   2.102 -21.796  0.00  0.00    +0.132 C 
ATOM      9  N   UNL     1       4.519   1.020 -21.275  0.00  0.00    +0.236 N 
ATOM     10  H   UNL     1       4.985   0.259 -20.782  0.00  0.00    +0.203 HD
ATOM     11  C   UNL     1       5.074   0.080 -20.669  0.00  0.00    +0.190 C 
ATOM     12  C   UNL     1       3.109   1.048 -21.472  0.00  0.00    +0.076 C 
ATOM     13  C   UNL     1       3.742   2.031 -21.950  0.00  0.00    +0.075 C 
ATOM     14  C   UNL     1       4.998   2.089 -21.822  0.00  0.00    -0.020 C 
ATOM     15  C   UNL     1       5.628   3.059 -22.293  0.00  0.00    -0.008 C 
ATOM     16  C   UNL     1       5.021   3.986 -22.899  0.00  0.00    +0.144 C 
ATOM     17 CL   UNL     1       5.655   4.953 -23.368  0.00  0.00    -0.113 Cl
ATOM     18  C   UNL     1       3.777   3.925 -23.024  0.00  0.00    +0.207 C 
ATOM     19  O   UNL     1       2.530   4.585 -23.560  0.00  0.00    -0.482 OA
ATOM     20  C   UNL     1       1.867   0.989 -21.598  0.00  0.00    +0.090 C 
ATOM     21  C   UNL     1       1.279   3.810 -23.280  0.00  0.00    +0.167 A 
ENDROOT
BRANCH   1  23
ATOM     22  C   UNL     1      -1.839   4.720 -23.949  0.00  0.00    +0.277 C 
ATOM     23  O   UNL     1      -0.591   4.664 -24.006  0.00  0.00    -0.491 OA
ENDBRANCH   1  23
TORSDOF 1
ENDMDL
MODEL 9
REMARK VINA RESULT:    -8.269      2.571      5.322
REMARK INTER + INTRA:          -8.864
REMARK INTER:                  -8.752
REMARK INTRA:                  -0.112
REMARK UNBOUND:                -0.112
REMARK  Name = COc1ccc2c3c1O[C@@H]1[C@H](Cl)C=C[C@H]4[C@@H](C2)N(C)CC[C@]314        ZINC000201160979
REMARK  3 active torsions:
REMARK  status: ('A' for Active; 'I' for Inactive)
REMARK    1  A    between atoms: C_1  and  O_2
REMARK    2  A    between atoms: O_2  and  C_3
REMARK    3  A    between atoms: N_18  and  C_19
REMARK                            x       y       z     vdW  Elec       q    Type
REMARK                         _______ _______ _______ _____ _____    ______ ____
ROOT
ATOM      1  C   UNL     1      -1.774   3.167 -24.765  0.00  0.00    +0.162 A 
ATOM      2  C   UNL     1      -2.656   2.990 -23.878  0.00  0.00    +0.050 A 
ATOM      3  C   UNL     1      -2.340   2.570 -22.745  0.00  0.00    +0.008 A 
ATOM      4  C   UNL     1      -1.141   2.322 -22.487  0.00  0.00    -0.034 A 
ATOM      5  C   UNL     1      -0.246   2.491 -23.354  0.00  0.00    +0.012 A 
ATOM      6  C   UNL     1       0.947   2.242 -23.091  0.00  0.00    +0.054 C 
ATOM      7  C   UNL     1       2.339   1.994 -22.909  0.00  0.00    +0.067 C 
ATOM      8  C   UNL     1       2.726   1.519 -21.641  0.00  0.00    +0.132 C 
ATOM      9  N   UNL     1       1.716   1.333 -20.677  0.00  0.00    +0.236 N 
ATOM     10  H   UNL     1       1.941   0.992 -19.743  0.00  0.00    +0.203 HD
ATOM     11  C   UNL     1       1.974   0.916 -19.529  0.00  0.00    +0.190 C 
ATOM     12  C   UNL     1       0.385   1.645 -21.073  0.00  0.00    +0.076 C 
ATOM     13  C   UNL     1       1.268   1.821 -21.959  0.00  0.00    +0.075 C 
ATOM     14  C   UNL     1       2.478   1.570 -21.694  0.00  0.00    -0.020 C 
ATOM     15  C   UNL     1       3.355   1.743 -22.567  0.00  0.00    -0.008 C 
ATOM     16  C   UNL     1       3.044   2.167 -23.714  0.00  0.00    +0.144 C 
ATOM     17 CL   UNL     1       3.924   2.338 -24.583  0.00  0.00    -0.113 Cl
ATOM     18  C   UNL     1       1.845   2.415 -23.972  0.00  0.00    +0.207 C 
ATOM     19  O   UNL     1       0.849   2.893 -25.002  0.00  0.00    -0.482 OA
ATOM     20  C   UNL     1      -0.813   1.893 -21.333  0.00  0.00    +0.090 C 
ATOM     21  C   UNL     1      -0.562   2.915 -24.499  0.00  0.00    +0.167 A 
ENDROOT
BRANCH   1  23
ATOM     22  C   UNL     1      -3.261   3.426 -26.317  0.00  0.00    +0.277 C 
ATOM     23  O   UNL     1      -2.094   3.588 -25.897  0.00  0.00    -0.491 OA
ENDBRANCH   1  23
TORSDOF 1
ENDMDL
