MODEL 1
REMARK VINA RESULT:   -11.291      0.000      0.000
REMARK INTER + INTRA:         -12.061
REMARK INTER:                 -11.955
REMARK INTRA:                  -0.106
REMARK UNBOUND:                -0.110
REMARK  Name = COc1ccc2c3c1OC1=C[C@@H](C)C=C4[C@@H](C2)N(C)CC[C@]143                ZINC000096316437
REMARK  4 active torsions:
REMARK  status: ('A' for Active; 'I' for Inactive)
REMARK    1  A    between atoms: C_1  and  O_2
REMARK    2  A    between atoms: O_2  and  C_3
REMARK    3  A    between atoms: C_12  and  C_13
REMARK    4  A    between atoms: N_18  and  C_19
REMARK                            x       y       z     vdW  Elec       q    Type
REMARK                         _______ _______ _______ _____ _____    ______ ____
ROOT
ATOM      1  C   UNL     1      -4.815   3.620 -22.910  0.00  0.00    +0.162 A 
ATOM      2  C   UNL     1      -4.949   4.047 -24.092  0.00  0.00    +0.050 A 
ATOM      3  C   UNL     1      -3.980   4.043 -24.880  0.00  0.00    +0.008 A 
ATOM      4  C   UNL     1      -2.869   3.614 -24.497  0.00  0.00    -0.034 A 
ATOM      5  C   UNL     1      -2.713   3.184 -23.325  0.00  0.00    +0.020 A 
ATOM      6  C   UNL     1      -1.602   2.757 -22.949  0.00  0.00    +0.088 C 
ATOM      7  C   UNL     1      -0.389   2.247 -22.405  0.00  0.00    +0.075 C 
ATOM      8  C   UNL     1       0.723   2.230 -23.271  0.00  0.00    +0.133 C 
ATOM      9  N   UNL     1       0.536   2.714 -24.582  0.00  0.00    +0.239 N 
ATOM     10  H   UNL     1       1.309   2.723 -25.247  0.00  0.00    +0.204 HD
ATOM     11  C   UNL     1       1.469   2.733 -25.412  0.00  0.00    +0.191 C 
ATOM     12  C   UNL     1      -0.767   3.179 -24.916  0.00  0.00    +0.096 C 
ATOM     13  C   UNL     1      -0.630   2.752 -23.735  0.00  0.00    -0.007 C 
ATOM     14  C   UNL     1       0.491   2.319 -23.350  0.00  0.00    -0.014 C 
ATOM     15  C   UNL     1       0.633   1.895 -22.181  0.00  0.00    +0.035 C 
ATOM     16  C   UNL     1       1.744   1.467 -21.805  0.00  0.00    +0.016 C 
ATOM     17  C   UNL     1      -0.345   1.897 -21.381  0.00  0.00    +0.023 C 
ATOM     18  C   UNL     1      -1.456   2.325 -21.760  0.00  0.00    +0.117 C 
ATOM     19  O   UNL     1      -2.893   2.599 -21.403  0.00  0.00    -0.455 OA
ATOM     20  C   UNL     1      -1.877   3.608 -25.298  0.00  0.00    +0.094 C 
ATOM     21  C   UNL     1      -3.690   3.187 -22.527  0.00  0.00    +0.174 A 
ENDROOT
BRANCH   1  23
ATOM     22  C   UNL     1      -6.283   2.548 -21.734  0.00  0.00    +0.277 C 
ATOM     23  O   UNL     1      -5.787   3.626 -22.125  0.00  0.00    -0.491 OA
ENDBRANCH   1  23
TORSDOF 1
ENDMDL
MODEL 2
REMARK VINA RESULT:   -11.185      2.158      5.530
REMARK INTER + INTRA:         -11.949
REMARK INTER:                 -11.837
REMARK INTRA:                  -0.112
REMARK UNBOUND:                -0.110
REMARK  Name = COc1ccc2c3c1OC1=C[C@@H](C)C=C4[C@@H](C2)N(C)CC[C@]143                ZINC000096316437
REMARK  4 active torsions:
REMARK  status: ('A' for Active; 'I' for Inactive)
REMARK    1  A    between atoms: C_1  and  O_2
REMARK    2  A    between atoms: O_2  and  C_3
REMARK    3  A    between atoms: C_12  and  C_13
REMARK    4  A    between atoms: N_18  and  C_19
REMARK                            x       y       z     vdW  Elec       q    Type
REMARK                         _______ _______ _______ _____ _____    ______ ____
ROOT
ATOM      1  C   UNL     1       1.596   2.233 -23.576  0.00  0.00    +0.162 A 
ATOM      2  C   UNL     1       1.682   1.700 -22.434  0.00  0.00    +0.050 A 
ATOM      3  C   UNL     1       0.676   1.612 -21.699  0.00  0.00    +0.008 A 
ATOM      4  C   UNL     1      -0.425   2.056 -22.096  0.00  0.00    -0.034 A 
ATOM      5  C   UNL     1      -0.533   2.591 -23.229  0.00  0.00    +0.020 A 
ATOM      6  C   UNL     1      -1.634   3.032 -23.620  0.00  0.00    +0.088 C 
ATOM      7  C   UNL     1      -2.830   3.569 -24.174  0.00  0.00    +0.075 C 
ATOM      8  C   UNL     1      -3.983   3.485 -23.368  0.00  0.00    +0.133 C 
ATOM      9  N   UNL     1      -3.849   2.884 -22.099  0.00  0.00    +0.239 N 
ATOM     10  H   UNL     1      -4.653   2.799 -21.478  0.00  0.00    +0.204 HD
ATOM     11  C   UNL     1      -4.821   2.771 -21.324  0.00  0.00    +0.191 C 
ATOM     12  C   UNL     1      -2.554   2.412 -21.745  0.00  0.00    +0.096 C 
ATOM     13  C   UNL     1      -2.643   2.946 -22.887  0.00  0.00    -0.007 C 
ATOM     14  C   UNL     1      -3.754   3.394 -23.286  0.00  0.00    -0.014 C 
ATOM     15  C   UNL     1      -3.847   3.923 -24.416  0.00  0.00    +0.035 C 
ATOM     16  C   UNL     1      -4.948   4.364 -24.806  0.00  0.00    +0.016 C 
ATOM     17  C   UNL     1      -2.832   4.013 -25.162  0.00  0.00    +0.023 C 
ATOM     18  C   UNL     1      -1.732   3.571 -24.770  0.00  0.00    +0.117 C 
ATOM     19  O   UNL     1      -0.273   3.357 -25.077  0.00  0.00    -0.455 OA
ATOM     20  C   UNL     1      -1.454   1.969 -21.349  0.00  0.00    +0.094 C 
ATOM     21  C   UNL     1       0.481   2.680 -23.974  0.00  0.00    +0.174 A 
ENDROOT
BRANCH   1  23
ATOM     22  C   UNL     1       3.428   1.378 -24.352  0.00  0.00    +0.277 C 
ATOM     23  O   UNL     1       2.605   2.318 -24.308  0.00  0.00    -0.491 OA
ENDBRANCH   1  23
TORSDOF 1
ENDMDL
MODEL 3
REMARK VINA RESULT:   -11.165      1.727      4.810
REMARK INTER + INTRA:         -11.928
REMARK INTER:                 -11.795
REMARK INTRA:                  -0.133
REMARK UNBOUND:                -0.110
REMARK  Name = COc1ccc2c3c1OC1=C[C@@H](C)C=C4[C@@H](C2)N(C)CC[C@]143                ZINC000096316437
REMARK  4 active torsions:
REMARK  status: ('A' for Active; 'I' for Inactive)
REMARK    1  A    between atoms: C_1  and  O_2
REMARK    2  A    between atoms: O_2  and  C_3
REMARK    3  A    between atoms: C_12  and  C_13
REMARK    4  A    between atoms: N_18  and  C_19
REMARK                            x       y       z     vdW  Elec       q    Type
REMARK                         _______ _______ _______ _____ _____    ______ ____
ROOT
ATOM      1  C   UNL     1       1.289   2.301 -22.814  0.00  0.00    +0.162 A 
ATOM      2  C   UNL     1       1.586   2.720 -23.968  0.00  0.00    +0.050 A 
ATOM      3  C   UNL     1       0.702   3.179 -24.722  0.00  0.00    +0.008 A 
ATOM      4  C   UNL     1      -0.486   3.225 -24.331  0.00  0.00    -0.034 A 
ATOM      5  C   UNL     1      -0.804   2.814 -23.186  0.00  0.00    +0.020 A 
ATOM      6  C   UNL     1      -1.990   2.863 -22.801  0.00  0.00    +0.088 C 
ATOM      7  C   UNL     1      -3.304   2.866 -22.252  0.00  0.00    +0.075 C 
ATOM      8  C   UNL     1      -4.324   3.379 -23.079  0.00  0.00    +0.133 C 
ATOM      9  N   UNL     1      -3.955   3.837 -24.361  0.00  0.00    +0.239 N 
ATOM     10  H   UNL     1      -4.655   4.217 -24.997  0.00  0.00    +0.204 HD
ATOM     11  C   UNL     1      -4.797   4.305 -25.155  0.00  0.00    +0.191 C 
ATOM     12  C   UNL     1      -2.578   3.740 -24.707  0.00  0.00    +0.096 C 
ATOM     13  C   UNL     1      -2.878   3.322 -23.552  0.00  0.00    -0.007 C 
ATOM     14  C   UNL     1      -4.076   3.369 -23.159  0.00  0.00    -0.014 C 
ATOM     15  C   UNL     1      -4.379   2.956 -22.017  0.00  0.00    +0.035 C 
ATOM     16  C   UNL     1      -5.566   3.005 -21.633  0.00  0.00    +0.016 C 
ATOM     17  C   UNL     1      -3.488   2.491 -21.252  0.00  0.00    +0.023 C 
ATOM     18  C   UNL     1      -2.301   2.443 -21.639  0.00  0.00    +0.117 C 
ATOM     19  O   UNL     1      -0.880   2.065 -21.314  0.00  0.00    -0.455 OA
ATOM     20  C   UNL     1      -1.391   3.693 -25.096  0.00  0.00    +0.094 C 
ATOM     21  C   UNL     1       0.087   2.349 -22.422  0.00  0.00    +0.174 A 
ENDROOT
BRANCH   1  23
ATOM     22  C   UNL     1       2.659   0.710 -22.283  0.00  0.00    +0.277 C 
ATOM     23  O   UNL     1       2.177   1.842 -22.064  0.00  0.00    -0.491 OA
ENDBRANCH   1  23
TORSDOF 1
ENDMDL
MODEL 4
REMARK VINA RESULT:   -10.175      2.236      3.341
REMARK INTER + INTRA:         -10.880
REMARK INTER:                 -10.755
REMARK INTRA:                  -0.125
REMARK UNBOUND:                -0.110
REMARK  Name = COc1ccc2c3c1OC1=C[C@@H](C)C=C4[C@@H](C2)N(C)CC[C@]143                ZINC000096316437
REMARK  4 active torsions:
REMARK  status: ('A' for Active; 'I' for Inactive)
REMARK    1  A    between atoms: C_1  and  O_2
REMARK    2  A    between atoms: O_2  and  C_3
REMARK    3  A    between atoms: C_12  and  C_13
REMARK    4  A    between atoms: N_18  and  C_19
REMARK                            x       y       z     vdW  Elec       q    Type
REMARK                         _______ _______ _______ _____ _____    ______ ____
ROOT
ATOM      1  C   UNL     1      -1.828   3.212 -23.127  0.00  0.00    +0.162 A 
ATOM      2  C   UNL     1      -1.797   4.424 -23.481  0.00  0.00    +0.050 A 
ATOM      3  C   UNL     1      -0.708   5.028 -23.576  0.00  0.00    +0.008 A 
ATOM      4  C   UNL     1       0.360   4.429 -23.320  0.00  0.00    -0.034 A 
ATOM      5  C   UNL     1       0.353   3.222 -22.966  0.00  0.00    +0.020 A 
ATOM      6  C   UNL     1       1.422   2.629 -22.711  0.00  0.00    +0.088 C 
ATOM      7  C   UNL     1       2.570   1.848 -22.396  0.00  0.00    +0.075 C 
ATOM      8  C   UNL     1       3.814   2.503 -22.494  0.00  0.00    +0.133 C 
ATOM      9  N   UNL     1       3.810   3.855 -22.892  0.00  0.00    +0.239 N 
ATOM     10  H   UNL     1       4.684   4.374 -22.979  0.00  0.00    +0.204 HD
ATOM     11  C   UNL     1       4.869   4.508 -23.004  0.00  0.00    +0.191 C 
ATOM     12  C   UNL     1       2.541   4.443 -23.160  0.00  0.00    +0.096 C 
ATOM     13  C   UNL     1       2.513   3.230 -22.806  0.00  0.00    -0.007 C 
ATOM     14  C   UNL     1       3.592   2.626 -22.547  0.00  0.00    -0.014 C 
ATOM     15  C   UNL     1       3.570   1.425 -22.196  0.00  0.00    +0.035 C 
ATOM     16  C   UNL     1       4.639   0.833 -21.942  0.00  0.00    +0.016 C 
ATOM     17  C   UNL     1       2.470   0.811 -22.099  0.00  0.00    +0.023 C 
ATOM     18  C   UNL     1       1.402   1.406 -22.354  0.00  0.00    +0.117 C 
ATOM     19  O   UNL     1      -0.099   1.327 -22.443  0.00  0.00    -0.455 OA
ATOM     20  C   UNL     1       1.474   5.041 -23.416  0.00  0.00    +0.094 C 
ATOM     21  C   UNL     1      -0.746   2.609 -22.869  0.00  0.00    +0.174 A 
ENDROOT
BRANCH   1  23
ATOM     22  C   UNL     1      -3.769   2.984 -22.195  0.00  0.00    +0.277 C 
ATOM     23  O   UNL     1      -2.919   2.612 -23.033  0.00  0.00    -0.491 OA
ENDBRANCH   1  23
TORSDOF 1
ENDMDL
MODEL 5
REMARK VINA RESULT:   -10.113      1.342      2.759
REMARK INTER + INTRA:         -10.814
REMARK INTER:                 -10.810
REMARK INTRA:                  -0.004
REMARK UNBOUND:                -0.110
REMARK  Name = COc1ccc2c3c1OC1=C[C@@H](C)C=C4[C@@H](C2)N(C)CC[C@]143                ZINC000096316437
REMARK  4 active torsions:
REMARK  status: ('A' for Active; 'I' for Inactive)
REMARK    1  A    between atoms: C_1  and  O_2
REMARK    2  A    between atoms: O_2  and  C_3
REMARK    3  A    between atoms: C_12  and  C_13
REMARK    4  A    between atoms: N_18  and  C_19
REMARK                            x       y       z     vdW  Elec       q    Type
REMARK                         _______ _______ _______ _____ _____    ______ ____
ROOT
ATOM      1  C   UNL     1      -4.371   3.627 -23.279  0.00  0.00    +0.162 A 
ATOM      2  C   UNL     1      -4.597   3.172 -22.122  0.00  0.00    +0.050 A 
ATOM      3  C   UNL     1      -3.675   2.664 -21.450  0.00  0.00    +0.008 A 
ATOM      4  C   UNL     1      -2.519   2.605 -21.925  0.00  0.00    -0.034 A 
ATOM      5  C   UNL     1      -2.271   3.052 -23.075  0.00  0.00    +0.020 A 
ATOM      6  C   UNL     1      -1.116   2.990 -23.543  0.00  0.00    +0.088 C 
ATOM      7  C   UNL     1       0.156   2.977 -24.184  0.00  0.00    +0.075 C 
ATOM      8  C   UNL     1       1.217   2.409 -23.450  0.00  0.00    +0.133 C 
ATOM      9  N   UNL     1       0.927   1.912 -22.163  0.00  0.00    +0.239 N 
ATOM     10  H   UNL     1       1.659   1.492 -21.591  0.00  0.00    +0.204 HD
ATOM     11  C   UNL     1       1.810   1.394 -21.447  0.00  0.00    +0.191 C 
ATOM     12  C   UNL     1      -0.420   2.028 -21.717  0.00  0.00    +0.096 C 
ATOM     13  C   UNL     1      -0.190   2.482 -22.874  0.00  0.00    -0.007 C 
ATOM     14  C   UNL     1       0.976   2.422 -23.352  0.00  0.00    -0.014 C 
ATOM     15  C   UNL     1       1.209   2.870 -24.497  0.00  0.00    +0.035 C 
ATOM     16  C   UNL     1       2.365   2.808 -24.965  0.00  0.00    +0.016 C 
ATOM     17  C   UNL     1       0.279   3.385 -25.179  0.00  0.00    +0.023 C 
ATOM     18  C   UNL     1      -0.876   3.446 -24.709  0.00  0.00    +0.117 C 
ATOM     19  O   UNL     1      -2.306   3.869 -24.919  0.00  0.00    -0.455 OA
ATOM     20  C   UNL     1      -1.575   2.087 -21.243  0.00  0.00    +0.094 C 
ATOM     21  C   UNL     1      -3.200   3.566 -23.756  0.00  0.00    +0.174 A 
ENDROOT
BRANCH   1  23
ATOM     22  C   UNL     1      -5.513   3.744 -25.115  0.00  0.00    +0.277 C 
ATOM     23  O   UNL     1      -5.296   4.134 -23.947  0.00  0.00    -0.491 OA
ENDBRANCH   1  23
TORSDOF 1
ENDMDL
MODEL 6
REMARK VINA RESULT:   -10.030      2.210      5.424
REMARK INTER + INTRA:         -10.726
REMARK INTER:                 -10.613
REMARK INTRA:                  -0.114
REMARK UNBOUND:                -0.110
REMARK  Name = COc1ccc2c3c1OC1=C[C@@H](C)C=C4[C@@H](C2)N(C)CC[C@]143                ZINC000096316437
REMARK  4 active torsions:
REMARK  status: ('A' for Active; 'I' for Inactive)
REMARK    1  A    between atoms: C_1  and  O_2
REMARK    2  A    between atoms: O_2  and  C_3
REMARK    3  A    between atoms: C_12  and  C_13
REMARK    4  A    between atoms: N_18  and  C_19
REMARK                            x       y       z     vdW  Elec       q    Type
REMARK                         _______ _______ _______ _____ _____    ______ ____
ROOT
ATOM      1  C   UNL     1       3.412   1.360 -21.625  0.00  0.00    +0.162 A 
ATOM      2  C   UNL     1       4.016   1.618 -22.704  0.00  0.00    +0.050 A 
ATOM      3  C   UNL     1       3.388   2.049 -23.694  0.00  0.00    +0.008 A 
ATOM      4  C   UNL     1       2.151   2.225 -23.616  0.00  0.00    -0.034 A 
ATOM      5  C   UNL     1       1.529   1.975 -22.553  0.00  0.00    +0.020 A 
ATOM      6  C   UNL     1       0.296   2.153 -22.482  0.00  0.00    +0.088 C 
ATOM      7  C   UNL     1      -1.105   2.314 -22.279  0.00  0.00    +0.075 C 
ATOM      8  C   UNL     1      -1.841   2.799 -23.379  0.00  0.00    +0.133 C 
ATOM      9  N   UNL     1      -1.133   3.077 -24.566  0.00  0.00    +0.239 N 
ATOM     10  H   UNL     1      -1.619   3.429 -25.390  0.00  0.00    +0.204 HD
ATOM     11  C   UNL     1      -1.710   3.509 -25.586  0.00  0.00    +0.191 C 
ATOM     12  C   UNL     1       0.271   2.841 -24.548  0.00  0.00    +0.096 C 
ATOM     13  C   UNL     1      -0.336   2.583 -23.470  0.00  0.00    -0.007 C 
ATOM     14  C   UNL     1      -1.584   2.762 -23.394  0.00  0.00    -0.014 C 
ATOM     15  C   UNL     1      -2.190   2.508 -22.329  0.00  0.00    +0.035 C 
ATOM     16  C   UNL     1      -3.423   2.686 -22.259  0.00  0.00    +0.016 C 
ATOM     17  C   UNL     1      -1.558   2.073 -21.326  0.00  0.00    +0.023 C 
ATOM     18  C   UNL     1      -0.323   1.895 -21.398  0.00  0.00    +0.117 C 
ATOM     19  O   UNL     1       0.934   1.457 -20.696  0.00  0.00    -0.455 OA
ATOM     20  C   UNL     1       1.506   2.665 -24.624  0.00  0.00    +0.094 C 
ATOM     21  C   UNL     1       2.161   1.539 -21.551  0.00  0.00    +0.174 A 
ENDROOT
BRANCH   1  23
ATOM     22  C   UNL     1       4.915   0.045 -20.788  0.00  0.00    +0.277 C 
ATOM     23  O   UNL     1       4.044   0.929 -20.637  0.00  0.00    -0.491 OA
ENDBRANCH   1  23
TORSDOF 1
ENDMDL
MODEL 7
REMARK VINA RESULT:    -9.908      1.776      3.315
REMARK INTER + INTRA:         -10.597
REMARK INTER:                 -10.492
REMARK INTRA:                  -0.105
REMARK UNBOUND:                -0.110
REMARK  Name = COc1ccc2c3c1OC1=C[C@@H](C)C=C4[C@@H](C2)N(C)CC[C@]143                ZINC000096316437
REMARK  4 active torsions:
REMARK  status: ('A' for Active; 'I' for Inactive)
REMARK    1  A    between atoms: C_1  and  O_2
REMARK    2  A    between atoms: O_2  and  C_3
REMARK    3  A    between atoms: C_12  and  C_13
REMARK    4  A    between atoms: N_18  and  C_19
REMARK                            x       y       z     vdW  Elec       q    Type
REMARK                         _______ _______ _______ _____ _____    ______ ____
ROOT
ATOM      1  C   UNL     1      -2.833   3.396 -23.224  0.00  0.00    +0.162 A 
ATOM      2  C   UNL     1      -3.204   2.763 -22.195  0.00  0.00    +0.050 A 
ATOM      3  C   UNL     1      -2.370   2.160 -21.487  0.00  0.00    +0.008 A 
ATOM      4  C   UNL     1      -1.159   2.184 -21.798  0.00  0.00    -0.034 A 
ATOM      5  C   UNL     1      -0.766   2.807 -22.818  0.00  0.00    +0.020 A 
ATOM      6  C   UNL     1       0.444   2.827 -23.123  0.00  0.00    +0.088 C 
ATOM      7  C   UNL     1       1.792   2.922 -23.572  0.00  0.00    +0.075 C 
ATOM      8  C   UNL     1       2.756   2.253 -22.793  0.00  0.00    +0.133 C 
ATOM      9  N   UNL     1       2.305   1.557 -21.652  0.00  0.00    +0.239 N 
ATOM     10  H   UNL     1       2.963   1.056 -21.056  0.00  0.00    +0.204 HD
ATOM     11  C   UNL     1       3.095   0.938 -20.909  0.00  0.00    +0.191 C 
ATOM     12  C   UNL     1       0.907   1.593 -21.388  0.00  0.00    +0.096 C 
ATOM     13  C   UNL     1       1.281   2.226 -22.416  0.00  0.00    -0.007 C 
ATOM     14  C   UNL     1       2.504   2.248 -22.729  0.00  0.00    -0.014 C 
ATOM     15  C   UNL     1       2.880   2.873 -23.746  0.00  0.00    +0.035 C 
ATOM     16  C   UNL     1       4.091   2.892 -24.051  0.00  0.00    +0.016 C 
ATOM     17  C   UNL     1       2.040   3.483 -24.465  0.00  0.00    +0.023 C 
ATOM     18  C   UNL     1       0.829   3.462 -24.158  0.00  0.00    +0.117 C 
ATOM     19  O   UNL     1      -0.569   3.905 -24.499  0.00  0.00    -0.455 OA
ATOM     20  C   UNL     1      -0.303   1.570 -21.078  0.00  0.00    +0.094 C 
ATOM     21  C   UNL     1      -1.607   3.417 -23.535  0.00  0.00    +0.174 A 
ENDROOT
BRANCH   1  23
ATOM     22  C   UNL     1      -4.891   3.769 -23.784  0.00  0.00    +0.277 C 
ATOM     23  O   UNL     1      -3.671   3.997 -23.929  0.00  0.00    -0.491 OA
ENDBRANCH   1  23
TORSDOF 1
ENDMDL
MODEL 8
REMARK VINA RESULT:    -9.346      2.750      6.111
REMARK INTER + INTRA:         -10.002
REMARK INTER:                  -9.863
REMARK INTRA:                  -0.140
REMARK UNBOUND:                -0.110
REMARK  Name = COc1ccc2c3c1OC1=C[C@@H](C)C=C4[C@@H](C2)N(C)CC[C@]143                ZINC000096316437
REMARK  4 active torsions:
REMARK  status: ('A' for Active; 'I' for Inactive)
REMARK    1  A    between atoms: C_1  and  O_2
REMARK    2  A    between atoms: O_2  and  C_3
REMARK    3  A    between atoms: C_12  and  C_13
REMARK    4  A    between atoms: N_18  and  C_19
REMARK                            x       y       z     vdW  Elec       q    Type
REMARK                         _______ _______ _______ _____ _____    ______ ____
ROOT
ATOM      1  C   UNL     1       4.014   2.410 -22.746  0.00  0.00    +0.162 A 
ATOM      2  C   UNL     1       3.984   1.800 -21.641  0.00  0.00    +0.050 A 
ATOM      3  C   UNL     1       2.894   1.536 -21.092  0.00  0.00    +0.008 A 
ATOM      4  C   UNL     1       1.823   1.879 -21.641  0.00  0.00    -0.034 A 
ATOM      5  C   UNL     1       1.828   2.488 -22.742  0.00  0.00    +0.020 A 
ATOM      6  C   UNL     1       0.757   2.827 -23.284  0.00  0.00    +0.088 C 
ATOM      7  C   UNL     1      -0.395   3.264 -23.999  0.00  0.00    +0.075 C 
ATOM      8  C   UNL     1      -1.641   2.981 -23.404  0.00  0.00    +0.133 C 
ATOM      9  N   UNL     1      -1.635   2.298 -22.170  0.00  0.00    +0.239 N 
ATOM     10  H   UNL     1      -2.510   2.070 -21.699  0.00  0.00    +0.204 HD
ATOM     11  C   UNL     1      -2.695   2.009 -21.578  0.00  0.00    +0.191 C 
ATOM     12  C   UNL     1      -0.363   1.954 -21.632  0.00  0.00    +0.096 C 
ATOM     13  C   UNL     1      -0.336   2.565 -22.738  0.00  0.00    -0.007 C 
ATOM     14  C   UNL     1      -1.418   2.910 -23.291  0.00  0.00    -0.014 C 
ATOM     15  C   UNL     1      -1.397   3.515 -24.386  0.00  0.00    +0.035 C 
ATOM     16  C   UNL     1      -2.469   3.854 -24.929  0.00  0.00    +0.016 C 
ATOM     17  C   UNL     1      -0.296   3.783 -24.944  0.00  0.00    +0.023 C 
ATOM     18  C   UNL     1       0.775   3.443 -24.399  0.00  0.00    +0.117 C 
ATOM     19  O   UNL     1       2.279   3.426 -24.469  0.00  0.00    -0.455 OA
ATOM     20  C   UNL     1       0.707   1.612 -21.084  0.00  0.00    +0.094 C 
ATOM     21  C   UNL     1       2.929   2.755 -23.298  0.00  0.00    +0.174 A 
ENDROOT
BRANCH   1  23
ATOM     22  C   UNL     1       5.742   3.697 -22.963  0.00  0.00    +0.277 C 
ATOM     23  O   UNL     1       5.107   2.672 -23.291  0.00  0.00    -0.491 OA
ENDBRANCH   1  23
TORSDOF 1
ENDMDL
MODEL 9
REMARK VINA RESULT:    -8.468      3.702      6.508
REMARK INTER + INTRA:          -9.074
REMARK INTER:                  -8.964
REMARK INTRA:                  -0.110
REMARK UNBOUND:                -0.110
REMARK  Name = COc1ccc2c3c1OC1=C[C@@H](C)C=C4[C@@H](C2)N(C)CC[C@]143                ZINC000096316437
REMARK  4 active torsions:
REMARK  status: ('A' for Active; 'I' for Inactive)
REMARK    1  A    between atoms: C_1  and  O_2
REMARK    2  A    between atoms: O_2  and  C_3
REMARK    3  A    between atoms: C_12  and  C_13
REMARK    4  A    between atoms: N_18  and  C_19
REMARK                            x       y       z     vdW  Elec       q    Type
REMARK                         _______ _______ _______ _____ _____    ______ ____
ROOT
ATOM      1  C   UNL     1       5.476   3.297 -22.728  0.00  0.00    +0.162 A 
ATOM      2  C   UNL     1       5.544   4.510 -23.075  0.00  0.00    +0.050 A 
ATOM      3  C   UNL     1       4.503   5.175 -23.261  0.00  0.00    +0.008 A 
ATOM      4  C   UNL     1       3.385   4.636 -23.103  0.00  0.00    -0.034 A 
ATOM      5  C   UNL     1       3.293   3.430 -22.758  0.00  0.00    +0.020 A 
ATOM      6  C   UNL     1       2.175   2.898 -22.602  0.00  0.00    +0.088 C 
ATOM      7  C   UNL     1       0.961   2.183 -22.393  0.00  0.00    +0.075 C 
ATOM      8  C   UNL     1      -0.231   2.907 -22.595  0.00  0.00    +0.133 C 
ATOM      9  N   UNL     1      -0.116   4.258 -22.981  0.00  0.00    +0.239 N 
ATOM     10  H   UNL     1      -0.948   4.825 -23.140  0.00  0.00    +0.204 HD
ATOM     11  C   UNL     1      -1.123   4.969 -23.181  0.00  0.00    +0.191 C 
ATOM     12  C   UNL     1       1.203   4.773 -23.134  0.00  0.00    +0.096 C 
ATOM     13  C   UNL     1       1.131   3.560 -22.787  0.00  0.00    -0.007 C 
ATOM     14  C   UNL     1       0.002   3.018 -22.628  0.00  0.00    -0.014 C 
ATOM     15  C   UNL     1      -0.074   1.817 -22.284  0.00  0.00    +0.035 C 
ATOM     16  C   UNL     1      -1.193   1.286 -22.128  0.00  0.00    +0.016 C 
ATOM     17  C   UNL     1       0.976   1.141 -22.095  0.00  0.00    +0.023 C 
ATOM     18  C   UNL     1       2.095   1.676 -22.252  0.00  0.00    +0.117 C 
ATOM     19  O   UNL     1       3.591   1.511 -22.211  0.00  0.00    -0.455 OA
ATOM     20  C   UNL     1       2.320   5.311 -23.291  0.00  0.00    +0.094 C 
ATOM     21  C   UNL     1       4.343   2.756 -22.569  0.00  0.00    +0.174 A 
ENDROOT
BRANCH   1  23
ATOM     22  C   UNL     1       7.537   2.866 -23.232  0.00  0.00    +0.277 C 
ATOM     23  O   UNL     1       6.520   2.636 -22.544  0.00  0.00    -0.491 OA
ENDBRANCH   1  23
TORSDOF 1
ENDMDL
