MODEL 1
REMARK VINA RESULT:   -10.671      0.000      0.000
REMARK INTER + INTRA:         -10.983
REMARK INTER:                 -10.983
REMARK INTRA:                   0.000
REMARK UNBOUND:                 0.000
REMARK  Name = ZINC000096316367
REMARK  1 active torsions:
REMARK  status: ('A' for Active; 'I' for Inactive)
REMARK    1  A    between atoms: C_19  and  O_20
REMARK                            x       y       z     vdW  Elec       q    Type
REMARK                         _______ _______ _______ _____ _____    ______ ____
ROOT
ATOM      1  O   UNL     1       1.204   3.882 -25.999  0.00  0.00    -0.279 OA
ATOM      2  C   UNL     1       0.226   3.771 -25.400  0.00  0.00    +0.328 C 
ATOM      3  N   UNL     1      -0.585   3.341 -24.129  0.00  0.00    -0.300 N 
ATOM      4  C   UNL     1      -1.296   3.051 -23.214  0.00  0.00    +0.109 C 
ATOM      5  C   UNL     1      -0.958   2.535 -22.152  0.00  0.00    +0.031 C 
ATOM      6  C   UNL     1      -0.043   2.326 -21.995  0.00  0.00    +0.009 C 
ATOM      7  C   UNL     1       0.393   1.794 -20.930  0.00  0.00    +0.086 C 
ATOM      8  C   UNL     1       1.663   1.546 -20.809  0.00  0.00    +0.134 C 
ATOM      9  C   UNL     1       2.514   1.840 -21.782  0.00  0.00    +0.075 C 
ATOM     10  C   UNL     1       2.099   2.390 -22.897  0.00  0.00    +0.014 C 
ATOM     11  O   UNL     1       2.020   0.993 -19.666  0.00  0.00    -0.297 OA
ATOM     12  C   UNL     1      -1.645   2.745 -22.390  0.00  0.00    -0.034 A 
ATOM     13  C   UNL     1      -2.452   2.447 -21.422  0.00  0.00    +0.051 A 
ATOM     14  C   UNL     1      -3.705   2.690 -21.539  0.00  0.00    +0.131 A 
ATOM     15  C   UNL     1      -4.163   3.233 -22.622  0.00  0.00    +0.059 A 
ATOM     16 BR   UNL     1      -5.436   3.415 -22.588  0.00  0.00    -0.047 Br
ATOM     17  C   UNL     1      -3.352   3.534 -23.597  0.00  0.00    +0.023 A 
ATOM     18  C   UNL     1      -2.095   3.294 -23.490  0.00  0.00    -0.041 A 
ATOM     19  C   UNL     1      -1.307   3.559 -24.376  0.00  0.00    +0.058 C 
ATOM     20  C   UNL     1       0.870   2.650 -23.059  0.00  0.00    +0.021 C 
ATOM     21  C   UNL     1       0.279   3.215 -24.146  0.00  0.00    +0.084 C 
ENDROOT
BRANCH  14  22
ATOM     22  O   UNL     1      -4.449   2.347 -20.489  0.00  0.00    -0.506 OA
ATOM     23  H   UNL     1      -4.806   1.483 -20.430  0.00  0.00    +0.292 HD
ENDBRANCH  14  22
TORSDOF 1
ENDMDL
MODEL 2
REMARK VINA RESULT:   -10.337      1.286      3.409
REMARK INTER + INTRA:         -10.639
REMARK INTER:                 -10.639
REMARK INTRA:                   0.000
REMARK UNBOUND:                 0.000
REMARK  Name = ZINC000096316367
REMARK  1 active torsions:
REMARK  status: ('A' for Active; 'I' for Inactive)
REMARK    1  A    between atoms: C_19  and  O_20
REMARK                            x       y       z     vdW  Elec       q    Type
REMARK                         _______ _______ _______ _____ _____    ______ ____
ROOT
ATOM      1  O   UNL     1       1.510   1.185 -20.310  0.00  0.00    -0.279 OA
ATOM      2  C   UNL     1       0.452   1.509 -20.634  0.00  0.00    +0.328 C 
ATOM      3  N   UNL     1      -0.551   2.184 -21.633  0.00  0.00    -0.300 N 
ATOM      4  C   UNL     1      -1.398   2.671 -22.320  0.00  0.00    +0.109 C 
ATOM      5  C   UNL     1      -1.239   3.225 -23.405  0.00  0.00    +0.031 C 
ATOM      6  C   UNL     1      -0.367   3.298 -23.778  0.00  0.00    +0.009 C 
ATOM      7  C   UNL     1      -0.113   3.852 -24.889  0.00  0.00    +0.086 C 
ATOM      8  C   UNL     1       1.114   3.903 -25.317  0.00  0.00    +0.134 C 
ATOM      9  C   UNL     1       2.107   3.385 -24.609  0.00  0.00    +0.075 C 
ATOM     10  C   UNL     1       1.882   2.804 -23.456  0.00  0.00    +0.014 C 
ATOM     11  O   UNL     1       1.277   4.499 -26.482  0.00  0.00    -0.297 OA
ATOM     12  C   UNL     1      -1.875   3.107 -23.011  0.00  0.00    -0.034 A 
ATOM     13  C   UNL     1      -2.824   3.623 -23.725  0.00  0.00    +0.051 A 
ATOM     14  C   UNL     1      -4.035   3.574 -23.305  0.00  0.00    +0.131 A 
ATOM     15  C   UNL     1      -4.307   3.010 -22.172  0.00  0.00    +0.059 A 
ATOM     16 BR   UNL     1      -5.563   3.041 -21.890  0.00  0.00    -0.047 Br
ATOM     17  C   UNL     1      -3.353   2.491 -21.453  0.00  0.00    +0.023 A 
ATOM     18  C   UNL     1      -2.137   2.534 -21.863  0.00  0.00    -0.041 A 
ATOM     19  C   UNL     1      -1.219   2.062 -21.222  0.00  0.00    +0.058 C 
ATOM     20  C   UNL     1       0.702   2.731 -23.000  0.00  0.00    +0.021 C 
ATOM     21  C   UNL     1       0.300   2.167 -21.830  0.00  0.00    +0.084 C 
ENDROOT
BRANCH  14  22
ATOM     22  O   UNL     1      -4.936   4.132 -24.112  0.00  0.00    -0.506 OA
ATOM     23  H   UNL     1      -4.752   4.228 -25.025  0.00  0.00    +0.292 HD
ENDBRANCH  14  22
TORSDOF 1
ENDMDL
MODEL 3
REMARK VINA RESULT:   -10.196      2.407      5.627
REMARK INTER + INTRA:         -10.494
REMARK INTER:                 -10.494
REMARK INTRA:                   0.000
REMARK UNBOUND:                 0.000
REMARK  Name = ZINC000096316367
REMARK  1 active torsions:
REMARK  status: ('A' for Active; 'I' for Inactive)
REMARK    1  A    between atoms: C_19  and  O_20
REMARK                            x       y       z     vdW  Elec       q    Type
REMARK                         _______ _______ _______ _____ _____    ______ ____
ROOT
ATOM      1  O   UNL     1      -4.855   2.764 -20.725  0.00  0.00    -0.279 OA
ATOM      2  C   UNL     1      -3.744   2.588 -20.979  0.00  0.00    +0.328 C 
ATOM      3  N   UNL     1      -2.536   2.553 -21.978  0.00  0.00    -0.300 N 
ATOM      4  C   UNL     1      -1.550   2.494 -22.651  0.00  0.00    +0.109 C 
ATOM      5  C   UNL     1      -1.462   2.734 -23.852  0.00  0.00    +0.031 C 
ATOM      6  C   UNL     1      -2.232   3.000 -24.341  0.00  0.00    +0.009 C 
ATOM      7  C   UNL     1      -2.231   3.267 -25.580  0.00  0.00    +0.086 C 
ATOM      8  C   UNL     1      -3.338   3.623 -26.162  0.00  0.00    +0.134 C 
ATOM      9  C   UNL     1      -4.472   3.711 -25.482  0.00  0.00    +0.075 C 
ATOM     10  C   UNL     1      -4.511   3.443 -24.199  0.00  0.00    +0.014 C 
ATOM     11  O   UNL     1      -3.236   3.880 -27.452  0.00  0.00    -0.297 OA
ATOM     12  C   UNL     1      -0.927   2.517 -23.361  0.00  0.00    -0.034 A 
ATOM     13  C   UNL     1       0.165   2.440 -24.053  0.00  0.00    +0.051 A 
ATOM     14  C   UNL     1       1.258   2.090 -23.482  0.00  0.00    +0.131 A 
ATOM     15  C   UNL     1       1.270   1.814 -22.216  0.00  0.00    +0.059 A 
ATOM     16 BR   UNL     1       2.437   1.480 -21.791  0.00  0.00    -0.047 Br
ATOM     17  C   UNL     1       0.172   1.892 -21.519  0.00  0.00    +0.023 A 
ATOM     18  C   UNL     1      -0.928   2.241 -22.081  0.00  0.00    -0.041 A 
ATOM     19  C   UNL     1      -1.973   2.326 -21.466  0.00  0.00    +0.058 C 
ATOM     20  C   UNL     1      -3.456   3.092 -23.590  0.00  0.00    +0.021 C 
ATOM     21  C   UNL     1      -3.326   2.781 -22.273  0.00  0.00    +0.084 C 
ENDROOT
BRANCH  14  22
ATOM     22  O   UNL     1       2.323   2.041 -24.279  0.00  0.00    -0.506 OA
ATOM     23  H   UNL     1       2.222   1.820 -25.184  0.00  0.00    +0.292 HD
ENDBRANCH  14  22
TORSDOF 1
ENDMDL
MODEL 4
REMARK VINA RESULT:   -10.067      2.159      4.551
REMARK INTER + INTRA:         -10.361
REMARK INTER:                 -10.361
REMARK INTRA:                   0.000
REMARK UNBOUND:                 0.000
REMARK  Name = ZINC000096316367
REMARK  1 active torsions:
REMARK  status: ('A' for Active; 'I' for Inactive)
REMARK    1  A    between atoms: C_19  and  O_20
REMARK                            x       y       z     vdW  Elec       q    Type
REMARK                         _______ _______ _______ _____ _____    ______ ____
ROOT
ATOM      1  O   UNL     1      -1.809   3.747 -26.266  0.00  0.00    -0.279 OA
ATOM      2  C   UNL     1      -1.031   3.377 -25.500  0.00  0.00    +0.328 C 
ATOM      3  N   UNL     1      -0.612   2.887 -24.071  0.00  0.00    -0.300 N 
ATOM      4  C   UNL     1      -0.186   2.505 -23.022  0.00  0.00    +0.109 C 
ATOM      5  C   UNL     1      -0.823   2.332 -21.986  0.00  0.00    +0.031 C 
ATOM      6  C   UNL     1      -1.757   2.508 -21.968  0.00  0.00    +0.009 C 
ATOM      7  C   UNL     1      -2.490   2.358 -20.945  0.00  0.00    +0.086 C 
ATOM      8  C   UNL     1      -3.760   2.625 -21.018  0.00  0.00    +0.134 C 
ATOM      9  C   UNL     1      -4.305   3.054 -22.147  0.00  0.00    +0.075 C 
ATOM     10  C   UNL     1      -3.578   3.221 -23.226  0.00  0.00    +0.014 C 
ATOM     11  O   UNL     1      -4.438   2.437 -19.902  0.00  0.00    -0.297 OA
ATOM     12  C   UNL     1      -0.085   2.229 -22.123  0.00  0.00    -0.034 A 
ATOM     13  C   UNL     1       0.418   1.811 -21.005  0.00  0.00    +0.051 A 
ATOM     14  C   UNL     1       1.671   1.547 -20.931  0.00  0.00    +0.131 A 
ATOM     15  C   UNL     1       2.430   1.697 -21.969  0.00  0.00    +0.059 A 
ATOM     16 BR   UNL     1       3.658   1.392 -21.736  0.00  0.00    -0.047 Br
ATOM     17  C   UNL     1       1.924   2.117 -23.094  0.00  0.00    +0.023 A 
ATOM     18  C   UNL     1       0.672   2.384 -23.181  0.00  0.00    -0.041 A 
ATOM     19  C   UNL     1       0.162   2.778 -24.211  0.00  0.00    +0.058 C 
ATOM     20  C   UNL     1      -2.336   2.973 -23.201  0.00  0.00    +0.021 C 
ATOM     21  C   UNL     1      -1.447   3.093 -24.223  0.00  0.00    +0.084 C 
ENDROOT
BRANCH  14  22
ATOM     22  O   UNL     1       2.090   1.125 -19.739  0.00  0.00    -0.506 OA
ATOM     23  H   UNL     1       2.266   0.216 -19.599  0.00  0.00    +0.292 HD
ENDBRANCH  14  22
TORSDOF 1
ENDMDL
MODEL 5
REMARK VINA RESULT:    -9.899      2.402      4.662
REMARK INTER + INTRA:         -10.188
REMARK INTER:                 -10.188
REMARK INTRA:                   0.000
REMARK UNBOUND:                 0.000
REMARK  Name = ZINC000096316367
REMARK  1 active torsions:
REMARK  status: ('A' for Active; 'I' for Inactive)
REMARK    1  A    between atoms: C_19  and  O_20
REMARK                            x       y       z     vdW  Elec       q    Type
REMARK                         _______ _______ _______ _____ _____    ______ ____
ROOT
ATOM      1  O   UNL     1      -3.987   4.196 -26.589  0.00  0.00    -0.279 OA
ATOM      2  C   UNL     1      -2.959   3.904 -26.157  0.00  0.00    +0.328 C 
ATOM      3  N   UNL     1      -2.023   3.440 -24.987  0.00  0.00    -0.300 N 
ATOM      4  C   UNL     1      -1.224   3.091 -24.170  0.00  0.00    +0.109 C 
ATOM      5  C   UNL     1      -1.442   2.829 -22.990  0.00  0.00    +0.031 C 
ATOM      6  C   UNL     1      -2.325   2.898 -22.644  0.00  0.00    +0.009 C 
ATOM      7  C   UNL     1      -2.638   2.647 -21.441  0.00  0.00    +0.086 C 
ATOM      8  C   UNL     1      -3.875   2.770 -21.060  0.00  0.00    +0.134 C 
ATOM      9  C   UNL     1      -4.818   3.153 -21.909  0.00  0.00    +0.075 C 
ATOM     10  C   UNL     1      -4.531   3.420 -23.160  0.00  0.00    +0.014 C 
ATOM     11  O   UNL     1      -4.102   2.488 -19.792  0.00  0.00    -0.297 OA
ATOM     12  C   UNL     1      -0.791   2.812 -23.377  0.00  0.00    -0.034 A 
ATOM     13  C   UNL     1       0.108   2.436 -22.524  0.00  0.00    +0.051 A 
ATOM     14  C   UNL     1       1.329   2.315 -22.897  0.00  0.00    +0.131 A 
ATOM     15  C   UNL     1       1.662   2.567 -24.123  0.00  0.00    +0.059 A 
ATOM     16 BR   UNL     1       2.919   2.400 -24.342  0.00  0.00    -0.047 Br
ATOM     17  C   UNL     1       0.758   2.946 -24.982  0.00  0.00    +0.023 A 
ATOM     18  C   UNL     1      -0.467   3.071 -24.619  0.00  0.00    -0.041 A 
ATOM     19  C   UNL     1      -1.339   3.422 -25.390  0.00  0.00    +0.058 C 
ATOM     20  C   UNL     1      -3.338   3.315 -23.576  0.00  0.00    +0.021 C 
ATOM     21  C   UNL     1      -2.875   3.552 -24.832  0.00  0.00    +0.084 C 
ENDROOT
BRANCH  14  22
ATOM     22  O   UNL     1       2.175   1.923 -21.946  0.00  0.00    -0.506 OA
ATOM     23  H   UNL     1       2.181   2.358 -21.117  0.00  0.00    +0.292 HD
ENDBRANCH  14  22
TORSDOF 1
ENDMDL
MODEL 6
REMARK VINA RESULT:    -8.859      4.147      6.854
REMARK INTER + INTRA:          -9.118
REMARK INTER:                  -9.118
REMARK INTRA:                   0.000
REMARK UNBOUND:                 0.000
REMARK  Name = ZINC000096316367
REMARK  1 active torsions:
REMARK  status: ('A' for Active; 'I' for Inactive)
REMARK    1  A    between atoms: C_19  and  O_20
REMARK                            x       y       z     vdW  Elec       q    Type
REMARK                         _______ _______ _______ _____ _____    ______ ____
ROOT
ATOM      1  O   UNL     1       2.290  -0.498 -22.891  0.00  0.00    -0.279 OA
ATOM      2  C   UNL     1       3.071   0.349 -22.848  0.00  0.00    +0.328 C 
ATOM      3  N   UNL     1       3.485   1.862 -22.884  0.00  0.00    -0.300 N 
ATOM      4  C   UNL     1       3.908   2.979 -22.897  0.00  0.00    +0.109 C 
ATOM      5  C   UNL     1       3.257   4.012 -23.027  0.00  0.00    +0.031 C 
ATOM      6  C   UNL     1       2.313   3.969 -23.132  0.00  0.00    +0.009 C 
ATOM      7  C   UNL     1       1.566   4.983 -23.273  0.00  0.00    +0.086 C 
ATOM      8  C   UNL     1       0.283   4.822 -23.410  0.00  0.00    +0.134 C 
ATOM      9  C   UNL     1      -0.260   3.614 -23.406  0.00  0.00    +0.075 C 
ATOM     10  C   UNL     1       0.482   2.542 -23.263  0.00  0.00    +0.014 C 
ATOM     11  O   UNL     1      -0.410   5.936 -23.550  0.00  0.00    -0.297 OA
ATOM     12  C   UNL     1       4.003   3.919 -22.937  0.00  0.00    -0.034 A 
ATOM     13  C   UNL     1       4.504   5.113 -22.945  0.00  0.00    +0.051 A 
ATOM     14  C   UNL     1       5.769   5.274 -22.810  0.00  0.00    +0.131 A 
ATOM     15  C   UNL     1       6.543   4.246 -22.666  0.00  0.00    +0.059 A 
ATOM     16 BR   UNL     1       7.782   4.569 -22.542  0.00  0.00    -0.047 Br
ATOM     17  C   UNL     1       6.040   3.044 -22.657  0.00  0.00    +0.023 A 
ATOM     18  C   UNL     1       4.775   2.871 -22.792  0.00  0.00    -0.041 A 
ATOM     19  C   UNL     1       4.267   1.767 -22.790  0.00  0.00    +0.058 C 
ATOM     20  C   UNL     1       1.737   2.650 -23.126  0.00  0.00    +0.021 C 
ATOM     21  C   UNL     1       2.642   1.648 -22.968  0.00  0.00    +0.084 C 
ENDROOT
BRANCH  14  22
ATOM     22  O   UNL     1       6.184   6.539 -22.832  0.00  0.00    -0.506 OA
ATOM     23  H   UNL     1       7.009   6.768 -22.454  0.00  0.00    +0.292 HD
ENDBRANCH  14  22
TORSDOF 1
ENDMDL
MODEL 7
REMARK VINA RESULT:    -8.102      1.884      3.699
REMARK INTER + INTRA:          -8.339
REMARK INTER:                  -8.339
REMARK INTRA:                   0.000
REMARK UNBOUND:                 0.000
REMARK  Name = ZINC000096316367
REMARK  1 active torsions:
REMARK  status: ('A' for Active; 'I' for Inactive)
REMARK    1  A    between atoms: C_19  and  O_20
REMARK                            x       y       z     vdW  Elec       q    Type
REMARK                         _______ _______ _______ _____ _____    ______ ____
ROOT
ATOM      1  O   UNL     1      -3.199   3.377 -19.220  0.00  0.00    -0.279 OA
ATOM      2  C   UNL     1      -3.322   3.493 -20.360  0.00  0.00    +0.328 C 
ATOM      3  N   UNL     1      -2.822   3.322 -21.837  0.00  0.00    -0.300 N 
ATOM      4  C   UNL     1      -2.539   3.241 -22.994  0.00  0.00    +0.109 C 
ATOM      5  C   UNL     1      -1.513   2.764 -23.471  0.00  0.00    +0.031 C 
ATOM      6  C   UNL     1      -0.843   2.409 -22.897  0.00  0.00    +0.009 C 
ATOM      7  C   UNL     1       0.244   1.898 -23.302  0.00  0.00    +0.086 C 
ATOM      8  C   UNL     1       1.100   1.438 -22.439  0.00  0.00    +0.134 C 
ATOM      9  C   UNL     1       0.856   1.492 -21.137  0.00  0.00    +0.075 C 
ATOM     10  C   UNL     1      -0.258   2.013 -20.681  0.00  0.00    +0.014 C 
ATOM     11  O   UNL     1       2.199   0.926 -22.957  0.00  0.00    -0.297 OA
ATOM     12  C   UNL     1      -2.110   3.073 -23.820  0.00  0.00    -0.034 A 
ATOM     13  C   UNL     1      -1.843   3.005 -25.085  0.00  0.00    +0.051 A 
ATOM     14  C   UNL     1      -2.685   3.458 -25.939  0.00  0.00    +0.131 A 
ATOM     15  C   UNL     1      -3.799   3.982 -25.537  0.00  0.00    +0.059 A 
ATOM     16 BR   UNL     1      -4.537   4.390 -26.510  0.00  0.00    -0.047 Br
ATOM     17  C   UNL     1      -4.069   4.051 -24.264  0.00  0.00    +0.023 A 
ATOM     18  C   UNL     1      -3.233   3.600 -23.401  0.00  0.00    -0.041 A 
ATOM     19  C   UNL     1      -3.447   3.645 -22.205  0.00  0.00    +0.058 C 
ATOM     20  C   UNL     1      -1.121   2.474 -21.486  0.00  0.00    +0.021 C 
ATOM     21  C   UNL     1      -2.317   3.043 -21.181  0.00  0.00    +0.084 C 
ENDROOT
BRANCH  14  22
ATOM     22  O   UNL     1      -2.317   3.341 -27.214  0.00  0.00    -0.506 OA
ATOM     23  H   UNL     1      -2.784   2.764 -27.785  0.00  0.00    +0.292 HD
ENDBRANCH  14  22
TORSDOF 1
ENDMDL
MODEL 8
REMARK VINA RESULT:    -8.094      2.428      3.052
REMARK INTER + INTRA:          -8.330
REMARK INTER:                  -8.330
REMARK INTRA:                   0.000
REMARK UNBOUND:                 0.000
REMARK  Name = ZINC000096316367
REMARK  1 active torsions:
REMARK  status: ('A' for Active; 'I' for Inactive)
REMARK    1  A    between atoms: C_19  and  O_20
REMARK                            x       y       z     vdW  Elec       q    Type
REMARK                         _______ _______ _______ _____ _____    ______ ____
ROOT
ATOM      1  O   UNL     1       3.760   6.618 -22.579  0.00  0.00    -0.279 OA
ATOM      2  C   UNL     1       2.739   6.191 -22.900  0.00  0.00    +0.328 C 
ATOM      3  N   UNL     1       1.746   5.004 -23.155  0.00  0.00    -0.300 N 
ATOM      4  C   UNL     1       0.914   4.178 -23.381  0.00  0.00    +0.109 C 
ATOM      5  C   UNL     1       1.028   2.962 -23.251  0.00  0.00    +0.031 C 
ATOM      6  C   UNL     1       1.847   2.592 -22.941  0.00  0.00    +0.009 C 
ATOM      7  C   UNL     1       2.050   1.351 -22.779  0.00  0.00    +0.086 C 
ATOM      8  C   UNL     1       3.207   0.940 -22.349  0.00  0.00    +0.134 C 
ATOM      9  C   UNL     1       4.180   1.797 -22.077  0.00  0.00    +0.075 C 
ATOM     10  C   UNL     1       4.005   3.087 -22.233  0.00  0.00    +0.014 C 
ATOM     11  O   UNL     1       3.322  -0.367 -22.212  0.00  0.00    -0.297 OA
ATOM     12  C   UNL     1       0.434   3.370 -23.486  0.00  0.00    -0.034 A 
ATOM     13  C   UNL     1      -0.497   2.507 -23.744  0.00  0.00    +0.051 A 
ATOM     14  C   UNL     1      -1.638   2.910 -24.168  0.00  0.00    +0.131 A 
ATOM     15  C   UNL     1      -1.859   4.175 -24.338  0.00  0.00    +0.059 A 
ATOM     16 BR   UNL     1      -3.047   4.420 -24.766  0.00  0.00    -0.047 Br
ATOM     17  C   UNL     1      -0.922   5.043 -24.079  0.00  0.00    +0.023 A 
ATOM     18  C   UNL     1       0.224   4.651 -23.654  0.00  0.00    -0.041 A 
ATOM     19  C   UNL     1       1.123   5.429 -23.401  0.00  0.00    +0.058 C 
ATOM     20  C   UNL     1       2.895   3.533 -22.649  0.00  0.00    +0.021 C 
ATOM     21  C   UNL     1       2.552   4.831 -22.864  0.00  0.00    +0.084 C 
ENDROOT
BRANCH  14  22
ATOM     22  O   UNL     1      -2.527   1.946 -24.403  0.00  0.00    -0.506 OA
ATOM     23  H   UNL     1      -3.114   2.018 -25.129  0.00  0.00    +0.292 HD
ENDBRANCH  14  22
TORSDOF 1
ENDMDL
MODEL 9
REMARK VINA RESULT:    -7.830      4.282      5.825
REMARK INTER + INTRA:          -8.059
REMARK INTER:                  -8.059
REMARK INTRA:                   0.000
REMARK UNBOUND:                 0.000
REMARK  Name = ZINC000096316367
REMARK  1 active torsions:
REMARK  status: ('A' for Active; 'I' for Inactive)
REMARK    1  A    between atoms: C_19  and  O_20
REMARK                            x       y       z     vdW  Elec       q    Type
REMARK                         _______ _______ _______ _____ _____    ______ ____
ROOT
ATOM      1  O   UNL     1       4.666   8.198 -21.607  0.00  0.00    -0.279 OA
ATOM      2  C   UNL     1       3.981   7.391 -22.060  0.00  0.00    +0.328 C 
ATOM      3  N   UNL     1       3.723   5.973 -22.678  0.00  0.00    -0.300 N 
ATOM      4  C   UNL     1       3.417   4.922 -23.158  0.00  0.00    +0.109 C 
ATOM      5  C   UNL     1       4.163   3.977 -23.399  0.00  0.00    +0.031 C 
ATOM      6  C   UNL     1       5.090   4.040 -23.201  0.00  0.00    +0.009 C 
ATOM      7  C   UNL     1       5.929   3.115 -23.416  0.00  0.00    +0.086 C 
ATOM      8  C   UNL     1       7.180   3.296 -23.110  0.00  0.00    +0.134 C 
ATOM      9  C   UNL     1       7.595   4.435 -22.574  0.00  0.00    +0.075 C 
ATOM     10  C   UNL     1       6.756   5.414 -22.337  0.00  0.00    +0.014 C 
ATOM     11  O   UNL     1       7.975   2.277 -23.371  0.00  0.00    -0.297 OA
ATOM     12  C   UNL     1       3.417   4.045 -23.511  0.00  0.00    -0.034 A 
ATOM     13  C   UNL     1       3.042   2.921 -24.034  0.00  0.00    +0.051 A 
ATOM     14  C   UNL     1       1.809   2.740 -24.337  0.00  0.00    +0.131 A 
ATOM     15  C   UNL     1       0.942   3.677 -24.121  0.00  0.00    +0.059 A 
ATOM     16 BR   UNL     1      -0.249   3.345 -24.477  0.00  0.00    -0.047 Br
ATOM     17  C   UNL     1       1.319   4.809 -23.596  0.00  0.00    +0.023 A 
ATOM     18  C   UNL     1       2.550   5.001 -23.288  0.00  0.00    -0.041 A 
ATOM     19  C   UNL     1       2.941   6.041 -22.797  0.00  0.00    +0.058 C 
ATOM     20  C   UNL     1       5.528   5.282 -22.619  0.00  0.00    +0.021 C 
ATOM     21  C   UNL     1       4.534   6.192 -22.439  0.00  0.00    +0.084 C 
ENDROOT
BRANCH  14  22
ATOM     22  O   UNL     1       1.526   1.551 -24.868  0.00  0.00    -0.506 OA
ATOM     23  H   UNL     1       2.101   0.826 -24.726  0.00  0.00    +0.292 HD
ENDBRANCH  14  22
TORSDOF 1
ENDMDL
