MODEL 1
REMARK VINA RESULT:    -9.742      0.000      0.000
REMARK INTER + INTRA:          -7.883
REMARK INTER:                 -11.831
REMARK INTRA:                   3.948
REMARK UNBOUND:                 4.137
REMARK  Name = COC1=C2Oc3c(OC)ccc4c3[C@@]23CCN(C)[C@H](C4)C3=C[C@@H]1C(C)(C)O       ZINC000096316419
REMARK  9 active torsions:
REMARK  status: ('A' for Active; 'I' for Inactive)
REMARK    1  A    between atoms: C_1  and  O_2
REMARK    2  A    between atoms: O_2  and  C_3
REMARK    3  A    between atoms: C_7  and  O_8
REMARK    4  A    between atoms: O_8  and  C_9
REMARK    5  A    between atoms: N_17  and  C_18
REMARK    6  A    between atoms: C_23  and  C_24
REMARK    7  A    between atoms: C_24  and  C_25
REMARK    8  A    between atoms: C_24  and  C_26
REMARK    9  A    between atoms: C_24  and  O_27
REMARK                            x       y       z     vdW  Elec       q    Type
REMARK                         _______ _______ _______ _____ _____    ______ ____
ROOT
ATOM      1  C   UNL     1       0.625   2.839 -24.488  0.00  0.00    +0.146 C 
ATOM      2  C   UNL     1      -0.602   3.045 -24.316  0.00  0.00    +0.159 C 
ATOM      3  O   UNL     1      -1.910   3.521 -24.918  0.00  0.00    -0.452 OA
ATOM      4  C   UNL     1      -3.073   3.458 -23.964  0.00  0.00    +0.174 A 
ATOM      5  C   UNL     1      -4.317   3.667 -23.789  0.00  0.00    +0.162 A 
ATOM      6  C   UNL     1      -4.843   3.411 -22.659  0.00  0.00    +0.050 A 
ATOM      7  C   UNL     1      -4.145   2.955 -21.720  0.00  0.00    +0.008 A 
ATOM      8  C   UNL     1      -2.915   2.751 -21.897  0.00  0.00    -0.034 A 
ATOM      9  C   UNL     1      -2.198   2.286 -20.941  0.00  0.00    +0.094 C 
ATOM     10  C   UNL     1      -0.970   2.081 -21.117  0.00  0.00    +0.096 C 
ATOM     11  C   UNL     1      -0.441   2.336 -22.244  0.00  0.00    -0.007 C 
ATOM     12  C   UNL     1       0.800   2.129 -22.421  0.00  0.00    -0.007 C 
ATOM     13  N   UNL     1       0.434   1.812 -21.212  0.00  0.00    +0.239 N 
ATOM     14  H   UNL     1       0.974   1.442 -20.430  0.00  0.00    +0.204 HD
ATOM     15  C   UNL     1       1.083   1.356 -20.238  0.00  0.00    +0.191 C 
ATOM     16  C   UNL     1       1.055   2.085 -22.457  0.00  0.00    +0.133 C 
ATOM     17  C   UNL     1       0.241   2.599 -23.498  0.00  0.00    +0.075 C 
ATOM     18  C   UNL     1      -2.370   2.998 -23.011  0.00  0.00    +0.020 A 
ATOM     19  C   UNL     1      -1.144   2.792 -23.183  0.00  0.00    +0.091 C 
ATOM     20  C   UNL     1       1.329   2.379 -23.535  0.00  0.00    +0.112 C 
ENDROOT
BRANCH  20  21
ATOM     21  C   UNL     1       2.559   2.172 -23.707  0.00  0.00    +0.074 C 
ATOM     22  C   UNL     1       3.399   3.033 -23.341  0.00  0.00    +0.042 C 
ATOM     23  C   UNL     1       3.494   1.436 -24.116  0.00  0.00    +0.042 C 
BRANCH  21  24
ATOM     24  O   UNL     1       2.299   1.057 -24.228  0.00  0.00    -0.388 OA
ATOM     25  H   UNL     1       3.081   0.486 -24.177  0.00  0.00    +0.210 HD
ENDBRANCH  21  24
ENDBRANCH  20  21
BRANCH   1  27
ATOM     26  C   UNL     1       1.155   4.264 -26.050  0.00  0.00    +0.276 C 
ATOM     27  O   UNL     1       1.157   3.089 -25.601  0.00  0.00    -0.495 OA
ENDBRANCH   1  27
BRANCH   5  28
ATOM     28  O   UNL     1      -5.020   4.122 -24.726  0.00  0.00    -0.491 OA
ATOM     29  C   UNL     1      -5.195   3.443 -25.769  0.00  0.00    +0.277 C 
ENDBRANCH   5  28
TORSDOF 4
ENDMDL
MODEL 2
REMARK VINA RESULT:    -9.665      1.644      3.097
REMARK INTER + INTRA:          -7.788
REMARK INTER:                 -11.810
REMARK INTRA:                   4.022
REMARK UNBOUND:                 4.137
REMARK  Name = COC1=C2Oc3c(OC)ccc4c3[C@@]23CCN(C)[C@H](C4)C3=C[C@@H]1C(C)(C)O       ZINC000096316419
REMARK  9 active torsions:
REMARK  status: ('A' for Active; 'I' for Inactive)
REMARK    1  A    between atoms: C_1  and  O_2
REMARK    2  A    between atoms: O_2  and  C_3
REMARK    3  A    between atoms: C_7  and  O_8
REMARK    4  A    between atoms: O_8  and  C_9
REMARK    5  A    between atoms: N_17  and  C_18
REMARK    6  A    between atoms: C_23  and  C_24
REMARK    7  A    between atoms: C_24  and  C_25
REMARK    8  A    between atoms: C_24  and  C_26
REMARK    9  A    between atoms: C_24  and  O_27
REMARK                            x       y       z     vdW  Elec       q    Type
REMARK                         _______ _______ _______ _____ _____    ______ ____
ROOT
ATOM      1  C   UNL     1       0.360   1.759 -22.128  0.00  0.00    +0.146 C 
ATOM      2  C   UNL     1      -0.862   2.053 -22.160  0.00  0.00    +0.159 C 
ATOM      3  O   UNL     1      -2.215   1.944 -21.486  0.00  0.00    -0.452 OA
ATOM      4  C   UNL     1      -3.320   2.648 -22.230  0.00  0.00    +0.174 A 
ATOM      5  C   UNL     1      -4.557   2.946 -22.263  0.00  0.00    +0.162 A 
ATOM      6  C   UNL     1      -5.010   3.639 -23.229  0.00  0.00    +0.050 A 
ATOM      7  C   UNL     1      -4.245   4.029 -24.146  0.00  0.00    +0.008 A 
ATOM      8  C   UNL     1      -3.023   3.732 -24.109  0.00  0.00    -0.034 A 
ATOM      9  C   UNL     1      -2.238   4.129 -25.043  0.00  0.00    +0.094 C 
ATOM     10  C   UNL     1      -1.017   3.833 -25.008  0.00  0.00    +0.096 C 
ATOM     11  C   UNL     1      -0.561   3.140 -24.045  0.00  0.00    -0.007 C 
ATOM     12  C   UNL     1       0.673   2.842 -24.009  0.00  0.00    -0.007 C 
ATOM     13  N   UNL     1       0.387   3.552 -25.063  0.00  0.00    +0.239 N 
ATOM     14  H   UNL     1       0.981   3.883 -25.822  0.00  0.00    +0.204 HD
ATOM     15  C   UNL     1       1.103   3.969 -26.006  0.00  0.00    +0.191 C 
ATOM     16  C   UNL     1       0.927   2.781 -24.003  0.00  0.00    +0.133 C 
ATOM     17  C   UNL     1       0.040   2.354 -22.982  0.00  0.00    +0.075 C 
ATOM     18  C   UNL     1      -2.550   3.044 -23.159  0.00  0.00    +0.020 A 
ATOM     19  C   UNL     1      -1.330   2.751 -23.128  0.00  0.00    +0.091 C 
ATOM     20  C   UNL     1       1.130   2.156 -23.058  0.00  0.00    +0.112 C 
ENDROOT
BRANCH  20  21
ATOM     21  C   UNL     1       2.354   1.862 -23.027  0.00  0.00    +0.074 C 
ATOM     22  C   UNL     1       3.187   2.684 -22.568  0.00  0.00    +0.042 C 
ATOM     23  C   UNL     1       3.285   1.048 -23.256  0.00  0.00    +0.042 C 
BRANCH  21  24
ATOM     24  O   UNL     1       2.098   0.742 -23.539  0.00  0.00    -0.388 OA
ATOM     25  H   UNL     1       1.420   0.847 -24.225  0.00  0.00    +0.210 HD
ENDBRANCH  21  24
ENDBRANCH  20  21
BRANCH   1  27
ATOM     26  C   UNL     1       0.868   1.559 -20.018  0.00  0.00    +0.276 C 
ATOM     27  O   UNL     1       0.819   1.074 -21.178  0.00  0.00    -0.495 OA
ENDBRANCH   1  27
BRANCH   5  28
ATOM     28  O   UNL     1      -5.326   2.557 -21.347  0.00  0.00    -0.491 OA
ATOM     29  C   UNL     1      -6.570   2.555 -21.528  0.00  0.00    +0.277 C 
ENDBRANCH   5  28
TORSDOF 4
ENDMDL
MODEL 3
REMARK VINA RESULT:    -8.841      1.333      5.394
REMARK INTER + INTRA:          -6.772
REMARK INTER:                 -10.881
REMARK INTRA:                   4.109
REMARK UNBOUND:                 4.137
REMARK  Name = COC1=C2Oc3c(OC)ccc4c3[C@@]23CCN(C)[C@H](C4)C3=C[C@@H]1C(C)(C)O       ZINC000096316419
REMARK  9 active torsions:
REMARK  status: ('A' for Active; 'I' for Inactive)
REMARK    1  A    between atoms: C_1  and  O_2
REMARK    2  A    between atoms: O_2  and  C_3
REMARK    3  A    between atoms: C_7  and  O_8
REMARK    4  A    between atoms: O_8  and  C_9
REMARK    5  A    between atoms: N_17  and  C_18
REMARK    6  A    between atoms: C_23  and  C_24
REMARK    7  A    between atoms: C_24  and  C_25
REMARK    8  A    between atoms: C_24  and  C_26
REMARK    9  A    between atoms: C_24  and  O_27
REMARK                            x       y       z     vdW  Elec       q    Type
REMARK                         _______ _______ _______ _____ _____    ______ ____
ROOT
ATOM      1  C   UNL     1      -2.457   3.653 -25.074  0.00  0.00    +0.146 C 
ATOM      2  C   UNL     1      -1.327   3.246 -24.705  0.00  0.00    +0.159 C 
ATOM      3  O   UNL     1       0.131   3.039 -25.065  0.00  0.00    -0.452 OA
ATOM      4  C   UNL     1       0.946   2.427 -23.956  0.00  0.00    +0.174 A 
ATOM      5  C   UNL     1       2.092   2.015 -23.582  0.00  0.00    +0.162 A 
ATOM      6  C   UNL     1       2.234   1.538 -22.411  0.00  0.00    +0.050 A 
ATOM      7  C   UNL     1       1.256   1.471 -21.626  0.00  0.00    +0.008 A 
ATOM      8  C   UNL     1       0.126   1.879 -22.001  0.00  0.00    -0.034 A 
ATOM      9  C   UNL     1      -0.877   1.813 -21.203  0.00  0.00    +0.094 C 
ATOM     10  C   UNL     1      -2.007   2.221 -21.576  0.00  0.00    +0.096 C 
ATOM     11  C   UNL     1      -2.153   2.698 -22.745  0.00  0.00    -0.007 C 
ATOM     12  C   UNL     1      -3.294   3.110 -23.121  0.00  0.00    -0.007 C 
ATOM     13  N   UNL     1      -3.332   2.657 -21.900  0.00  0.00    +0.239 N 
ATOM     14  H   UNL     1      -4.106   2.589 -21.240  0.00  0.00    +0.204 HD
ATOM     15  C   UNL     1      -4.274   2.566 -21.074  0.00  0.00    +0.191 C 
ATOM     16  C   UNL     1      -3.530   3.195 -23.197  0.00  0.00    +0.133 C 
ATOM     17  C   UNL     1      -2.406   3.257 -24.061  0.00  0.00    +0.075 C 
ATOM     18  C   UNL     1      -0.041   2.358 -23.160  0.00  0.00    +0.020 A 
ATOM     19  C   UNL     1      -1.170   2.764 -23.528  0.00  0.00    +0.091 C 
ATOM     20  C   UNL     1      -3.445   3.584 -24.277  0.00  0.00    +0.112 C 
ENDROOT
BRANCH  20  21
ATOM     21  C   UNL     1      -4.578   3.991 -24.646  0.00  0.00    +0.074 C 
ATOM     22  C   UNL     1      -5.429   3.175 -25.083  0.00  0.00    +0.042 C 
ATOM     23  C   UNL     1      -5.395   4.932 -24.819  0.00  0.00    +0.042 C 
BRANCH  21  24
ATOM     24  O   UNL     1      -4.250   5.169 -24.354  0.00  0.00    -0.388 OA
ATOM     25  H   UNL     1      -4.845   5.791 -24.801  0.00  0.00    +0.210 HD
ENDBRANCH  21  24
ENDBRANCH  20  21
BRANCH   1  27
ATOM     26  C   UNL     1      -2.614   3.362 -27.228  0.00  0.00    +0.276 C 
ATOM     27  O   UNL     1      -2.611   4.127 -26.229  0.00  0.00    -0.495 OA
ENDBRANCH   1  27
BRANCH   5  28
ATOM     28  O   UNL     1       3.074   2.079 -24.364  0.00  0.00    -0.491 OA
ATOM     29  C   UNL     1       4.168   2.551 -23.963  0.00  0.00    +0.277 C 
ENDBRANCH   5  28
TORSDOF 4
ENDMDL
MODEL 4
REMARK VINA RESULT:    -8.824      1.429      5.320
REMARK INTER + INTRA:          -6.750
REMARK INTER:                 -10.701
REMARK INTRA:                   3.951
REMARK UNBOUND:                 4.137
REMARK  Name = COC1=C2Oc3c(OC)ccc4c3[C@@]23CCN(C)[C@H](C4)C3=C[C@@H]1C(C)(C)O       ZINC000096316419
REMARK  9 active torsions:
REMARK  status: ('A' for Active; 'I' for Inactive)
REMARK    1  A    between atoms: C_1  and  O_2
REMARK    2  A    between atoms: O_2  and  C_3
REMARK    3  A    between atoms: C_7  and  O_8
REMARK    4  A    between atoms: O_8  and  C_9
REMARK    5  A    between atoms: N_17  and  C_18
REMARK    6  A    between atoms: C_23  and  C_24
REMARK    7  A    between atoms: C_24  and  C_25
REMARK    8  A    between atoms: C_24  and  C_26
REMARK    9  A    between atoms: C_24  and  O_27
REMARK                            x       y       z     vdW  Elec       q    Type
REMARK                         _______ _______ _______ _____ _____    ______ ____
ROOT
ATOM      1  C   UNL     1      -0.194   3.209 -24.643  0.00  0.00    +0.146 C 
ATOM      2  C   UNL     1       0.832   2.832 -24.024  0.00  0.00    +0.159 C 
ATOM      3  O   UNL     1       2.339   2.661 -24.042  0.00  0.00    -0.452 OA
ATOM      4  C   UNL     1       2.896   2.071 -22.774  0.00  0.00    +0.174 A 
ATOM      5  C   UNL     1       3.936   1.689 -22.146  0.00  0.00    +0.162 A 
ATOM      6  C   UNL     1       3.821   1.217 -20.971  0.00  0.00    +0.050 A 
ATOM      7  C   UNL     1       2.692   1.126 -20.428  0.00  0.00    +0.008 A 
ATOM      8  C   UNL     1       1.667   1.505 -21.052  0.00  0.00    -0.034 A 
ATOM      9  C   UNL     1       0.511   1.414 -20.502  0.00  0.00    +0.094 C 
ATOM     10  C   UNL     1      -0.514   1.792 -21.124  0.00  0.00    +0.096 C 
ATOM     11  C   UNL     1      -0.403   2.265 -22.299  0.00  0.00    -0.007 C 
ATOM     12  C   UNL     1      -1.439   2.647 -22.927  0.00  0.00    -0.007 C 
ATOM     13  N   UNL     1      -1.742   2.194 -21.744  0.00  0.00    +0.239 N 
ATOM     14  H   UNL     1      -2.644   2.107 -21.277  0.00  0.00    +0.204 HD
ATOM     15  C   UNL     1      -2.844   2.080 -21.153  0.00  0.00    +0.191 C 
ATOM     16  C   UNL     1      -1.653   2.725 -23.056  0.00  0.00    +0.133 C 
ATOM     17  C   UNL     1      -0.365   2.815 -23.642  0.00  0.00    +0.075 C 
ATOM     18  C   UNL     1       1.756   1.978 -22.222  0.00  0.00    +0.020 A 
ATOM     19  C   UNL     1       0.730   2.354 -22.839  0.00  0.00    +0.091 C 
ATOM     20  C   UNL     1      -1.335   3.115 -24.090  0.00  0.00    +0.112 C 
ENDROOT
BRANCH  20  21
ATOM     21  C   UNL     1      -2.364   3.493 -24.709  0.00  0.00    +0.074 C 
ATOM     22  C   UNL     1      -2.808   4.658 -24.543  0.00  0.00    +0.042 C 
ATOM     23  C   UNL     1      -3.297   3.256 -25.521  0.00  0.00    +0.042 C 
BRANCH  21  24
ATOM     24  O   UNL     1      -2.447   2.365 -25.261  0.00  0.00    -0.388 OA
ATOM     25  H   UNL     1      -1.597   1.905 -25.183  0.00  0.00    +0.210 HD
ENDBRANCH  21  24
ENDBRANCH  20  21
BRANCH   1  27
ATOM     26  C   UNL     1       0.937   4.318 -26.139  0.00  0.00    +0.276 C 
ATOM     27  O   UNL     1      -0.093   3.678 -25.806  0.00  0.00    -0.495 OA
ENDBRANCH   1  27
BRANCH   5  28
ATOM     28  O   UNL     1       5.068   1.778 -22.685  0.00  0.00    -0.491 OA
ATOM     29  C   UNL     1       5.878   2.662 -22.307  0.00  0.00    +0.277 C 
ENDBRANCH   5  28
TORSDOF 4
ENDMDL
MODEL 5
REMARK VINA RESULT:    -8.315      2.029      6.175
REMARK INTER + INTRA:          -6.122
REMARK INTER:                 -11.218
REMARK INTRA:                   5.097
REMARK UNBOUND:                 4.137
REMARK  Name = COC1=C2Oc3c(OC)ccc4c3[C@@]23CCN(C)[C@H](C4)C3=C[C@@H]1C(C)(C)O       ZINC000096316419
REMARK  9 active torsions:
REMARK  status: ('A' for Active; 'I' for Inactive)
REMARK    1  A    between atoms: C_1  and  O_2
REMARK    2  A    between atoms: O_2  and  C_3
REMARK    3  A    between atoms: C_7  and  O_8
REMARK    4  A    between atoms: O_8  and  C_9
REMARK    5  A    between atoms: N_17  and  C_18
REMARK    6  A    between atoms: C_23  and  C_24
REMARK    7  A    between atoms: C_24  and  C_25
REMARK    8  A    between atoms: C_24  and  C_26
REMARK    9  A    between atoms: C_24  and  O_27
REMARK                            x       y       z     vdW  Elec       q    Type
REMARK                         _______ _______ _______ _____ _____    ______ ____
ROOT
ATOM      1  C   UNL     1      -2.974   3.021 -21.709  0.00  0.00    +0.146 C 
ATOM      2  C   UNL     1      -1.801   3.146 -22.143  0.00  0.00    +0.159 C 
ATOM      3  O   UNL     1      -0.322   3.210 -21.814  0.00  0.00    -0.452 OA
ATOM      4  C   UNL     1       0.558   3.397 -23.022  0.00  0.00    +0.174 A 
ATOM      5  C   UNL     1       1.746   3.523 -23.462  0.00  0.00    +0.162 A 
ATOM      6  C   UNL     1       1.940   3.668 -24.711  0.00  0.00    +0.050 A 
ATOM      7  C   UNL     1       0.970   3.687 -25.509  0.00  0.00    +0.008 A 
ATOM      8  C   UNL     1      -0.203   3.562 -25.069  0.00  0.00    -0.034 A 
ATOM      9  C   UNL     1      -1.197   3.580 -25.880  0.00  0.00    +0.094 C 
ATOM     10  C   UNL     1      -2.369   3.455 -25.442  0.00  0.00    +0.096 C 
ATOM     11  C   UNL     1      -2.566   3.311 -24.195  0.00  0.00    -0.007 C 
ATOM     12  C   UNL     1      -3.751   3.184 -23.753  0.00  0.00    -0.007 C 
ATOM     13  N   UNL     1      -3.740   3.322 -25.048  0.00  0.00    +0.239 N 
ATOM     14  H   UNL     1      -4.506   3.341 -25.721  0.00  0.00    +0.204 HD
ATOM     15  C   UNL     1      -4.671   3.348 -25.891  0.00  0.00    +0.191 C 
ATOM     16  C   UNL     1      -3.995   3.159 -23.663  0.00  0.00    +0.133 C 
ATOM     17  C   UNL     1      -2.880   3.141 -22.787  0.00  0.00    +0.075 C 
ATOM     18  C   UNL     1      -0.420   3.416 -23.832  0.00  0.00    +0.020 A 
ATOM     19  C   UNL     1      -1.592   3.292 -23.399  0.00  0.00    +0.091 C 
ATOM     20  C   UNL     1      -3.953   3.041 -22.520  0.00  0.00    +0.112 C 
ENDROOT
BRANCH  20  21
ATOM     21  C   UNL     1      -5.128   2.916 -22.086  0.00  0.00    +0.074 C 
ATOM     22  C   UNL     1      -5.443   1.910 -21.400  0.00  0.00    +0.042 C 
ATOM     23  C   UNL     1      -6.303   3.353 -21.981  0.00  0.00    +0.042 C 
BRANCH  21  24
ATOM     24  O   UNL     1      -5.444   4.007 -22.627  0.00  0.00    -0.388 OA
ATOM     25  H   UNL     1      -5.087   4.036 -23.528  0.00  0.00    +0.210 HD
ENDBRANCH  21  24
ENDBRANCH  20  21
BRANCH   1  27
ATOM     26  C   UNL     1      -2.941   3.826 -19.684  0.00  0.00    +0.276 C 
ATOM     27  O   UNL     1      -3.178   2.877 -20.476  0.00  0.00    -0.495 OA
ENDBRANCH   1  27
BRANCH   5  28
ATOM     28  O   UNL     1       2.720   3.505 -22.668  0.00  0.00    -0.491 OA
ATOM     29  C   UNL     1       3.094   2.420 -22.155  0.00  0.00    +0.277 C 
ENDBRANCH   5  28
TORSDOF 4
ENDMDL
MODEL 6
REMARK VINA RESULT:    -8.164      2.369      3.668
REMARK INTER + INTRA:          -5.936
REMARK INTER:                  -9.911
REMARK INTRA:                   3.975
REMARK UNBOUND:                 4.137
REMARK  Name = COC1=C2Oc3c(OC)ccc4c3[C@@]23CCN(C)[C@H](C4)C3=C[C@@H]1C(C)(C)O       ZINC000096316419
REMARK  9 active torsions:
REMARK  status: ('A' for Active; 'I' for Inactive)
REMARK    1  A    between atoms: C_1  and  O_2
REMARK    2  A    between atoms: O_2  and  C_3
REMARK    3  A    between atoms: C_7  and  O_8
REMARK    4  A    between atoms: O_8  and  C_9
REMARK    5  A    between atoms: N_17  and  C_18
REMARK    6  A    between atoms: C_23  and  C_24
REMARK    7  A    between atoms: C_24  and  C_25
REMARK    8  A    between atoms: C_24  and  C_26
REMARK    9  A    between atoms: C_24  and  O_27
REMARK                            x       y       z     vdW  Elec       q    Type
REMARK                         _______ _______ _______ _____ _____    ______ ____
ROOT
ATOM      1  C   UNL     1       4.026   4.207 -22.873  0.00  0.00    +0.146 C 
ATOM      2  C   UNL     1       2.778   4.140 -23.001  0.00  0.00    +0.159 C 
ATOM      3  O   UNL     1       1.508   4.819 -23.473  0.00  0.00    -0.452 OA
ATOM      4  C   UNL     1       0.265   3.998 -23.255  0.00  0.00    +0.174 A 
ATOM      5  C   UNL     1      -1.000   3.929 -23.383  0.00  0.00    +0.162 A 
ATOM      6  C   UNL     1      -1.615   2.889 -22.985  0.00  0.00    +0.050 A 
ATOM      7  C   UNL     1      -0.984   1.934 -22.468  0.00  0.00    +0.008 A 
ATOM      8  C   UNL     1       0.267   2.007 -22.342  0.00  0.00    -0.034 A 
ATOM      9  C   UNL     1       0.916   1.034 -21.814  0.00  0.00    +0.094 C 
ATOM     10  C   UNL     1       2.165   1.106 -21.689  0.00  0.00    +0.096 C 
ATOM     11  C   UNL     1       2.783   2.143 -22.086  0.00  0.00    -0.007 C 
ATOM     12  C   UNL     1       4.045   2.215 -21.958  0.00  0.00    -0.007 C 
ATOM     13  N   UNL     1       3.585   1.085 -21.499  0.00  0.00    +0.239 N 
ATOM     14  H   UNL     1       4.068   0.294 -21.075  0.00  0.00    +0.204 HD
ATOM     15  C   UNL     1       4.163   0.102 -20.975  0.00  0.00    +0.191 C 
ATOM     16  C   UNL     1       4.304   2.228 -21.931  0.00  0.00    +0.133 C 
ATOM     17  C   UNL     1       3.564   3.290 -22.512  0.00  0.00    +0.075 C 
ATOM     18  C   UNL     1       0.900   3.030 -22.731  0.00  0.00    +0.020 A 
ATOM     19  C   UNL     1       2.147   3.097 -22.603  0.00  0.00    +0.091 C 
ATOM     20  C   UNL     1       4.662   3.239 -22.349  0.00  0.00    +0.112 C 
ENDROOT
BRANCH  20  21
ATOM     21  C   UNL     1       5.912   3.306 -22.221  0.00  0.00    +0.074 C 
ATOM     22  C   UNL     1       6.415   3.664 -21.126  0.00  0.00    +0.042 C 
ATOM     23  C   UNL     1       7.066   3.176 -22.706  0.00  0.00    +0.042 C 
BRANCH  21  24
ATOM     24  O   UNL     1       6.055   2.931 -23.413  0.00  0.00    -0.388 OA
ATOM     25  H   UNL     1       6.946   3.160 -23.720  0.00  0.00    +0.210 HD
ENDBRANCH  21  24
ENDBRANCH  20  21
BRANCH   1  27
ATOM     26  C   UNL     1       4.452   6.337 -22.697  0.00  0.00    +0.276 C 
ATOM     27  O   UNL     1       4.646   5.231 -23.264  0.00  0.00    -0.495 OA
ENDBRANCH   1  27
BRANCH   5  28
ATOM     28  O   UNL     1      -1.636   4.882 -23.901  0.00  0.00    -0.491 OA
ATOM     29  C   UNL     1      -2.733   4.668 -24.475  0.00  0.00    +0.277 C 
ENDBRANCH   5  28
TORSDOF 4
ENDMDL
MODEL 7
REMARK VINA RESULT:    -7.319      1.954      6.163
REMARK INTER + INTRA:          -4.893
REMARK INTER:                  -8.958
REMARK INTRA:                   4.065
REMARK UNBOUND:                 4.137
REMARK  Name = COC1=C2Oc3c(OC)ccc4c3[C@@]23CCN(C)[C@H](C4)C3=C[C@@H]1C(C)(C)O       ZINC000096316419
REMARK  9 active torsions:
REMARK  status: ('A' for Active; 'I' for Inactive)
REMARK    1  A    between atoms: C_1  and  O_2
REMARK    2  A    between atoms: O_2  and  C_3
REMARK    3  A    between atoms: C_7  and  O_8
REMARK    4  A    between atoms: O_8  and  C_9
REMARK    5  A    between atoms: N_17  and  C_18
REMARK    6  A    between atoms: C_23  and  C_24
REMARK    7  A    between atoms: C_24  and  C_25
REMARK    8  A    between atoms: C_24  and  C_26
REMARK    9  A    between atoms: C_24  and  O_27
REMARK                            x       y       z     vdW  Elec       q    Type
REMARK                         _______ _______ _______ _____ _____    ______ ____
ROOT
ATOM      1  C   UNL     1      -1.195   2.288 -22.693  0.00  0.00    +0.146 C 
ATOM      2  C   UNL     1      -0.030   1.898 -22.428  0.00  0.00    +0.159 C 
ATOM      3  O   UNL     1       0.883   1.188 -21.448  0.00  0.00    -0.452 OA
ATOM      4  C   UNL     1       2.318   1.118 -21.900  0.00  0.00    +0.174 A 
ATOM      5  C   UNL     1       3.499   0.723 -21.632  0.00  0.00    +0.162 A 
ATOM      6  C   UNL     1       4.439   0.955 -22.457  0.00  0.00    +0.050 A 
ATOM      7  C   UNL     1       4.210   1.566 -23.530  0.00  0.00    +0.008 A 
ATOM      8  C   UNL     1       3.041   1.954 -23.790  0.00  0.00    -0.034 A 
ATOM      9  C   UNL     1       2.802   2.579 -24.885  0.00  0.00    +0.094 C 
ATOM     10  C   UNL     1       1.635   2.967 -25.146  0.00  0.00    +0.096 C 
ATOM     11  C   UNL     1       0.693   2.738 -24.325  0.00  0.00    -0.007 C 
ATOM     12  C   UNL     1      -0.487   3.130 -24.589  0.00  0.00    -0.007 C 
ATOM     13  N   UNL     1       0.345   3.450 -25.540  0.00  0.00    +0.239 N 
ATOM     14  H   UNL     1       0.191   3.945 -26.419  0.00  0.00    +0.204 HD
ATOM     15  C   UNL     1       0.174   4.057 -26.626  0.00  0.00    +0.191 C 
ATOM     16  C   UNL     1      -0.729   3.211 -24.645  0.00  0.00    +0.133 C 
ATOM     17  C   UNL     1      -0.439   2.518 -23.442  0.00  0.00    +0.075 C 
ATOM     18  C   UNL     1       2.090   1.736 -22.986  0.00  0.00    +0.020 A 
ATOM     19  C   UNL     1       0.926   2.125 -23.251  0.00  0.00    +0.091 C 
ATOM     20  C   UNL     1      -1.423   2.907 -23.780  0.00  0.00    +0.112 C 
ENDROOT
BRANCH  20  21
ATOM     21  C   UNL     1      -2.590   3.297 -24.046  0.00  0.00    +0.074 C 
ATOM     22  C   UNL     1      -2.967   4.443 -23.691  0.00  0.00    +0.042 C 
ATOM     23  C   UNL     1      -3.720   3.085 -24.558  0.00  0.00    +0.042 C 
BRANCH  21  24
ATOM     24  O   UNL     1      -2.829   2.198 -24.610  0.00  0.00    -0.388 OA
ATOM     25  H   UNL     1      -2.816   1.487 -23.951  0.00  0.00    +0.210 HD
ENDBRANCH  21  24
ENDBRANCH  20  21
BRANCH   1  27
ATOM     26  C   UNL     1      -2.141   2.626 -20.759  0.00  0.00    +0.276 C 
ATOM     27  O   UNL     1      -2.134   2.065 -21.885  0.00  0.00    -0.495 OA
ENDBRANCH   1  27
BRANCH   5  28
ATOM     28  O   UNL     1       3.733   0.111 -20.560  0.00  0.00    -0.491 OA
ATOM     29  C   UNL     1       4.919  -0.084 -20.192  0.00  0.00    +0.277 C 
ENDBRANCH   5  28
TORSDOF 4
ENDMDL
MODEL 8
REMARK VINA RESULT:    -7.162      2.309      4.051
REMARK INTER + INTRA:          -4.699
REMARK INTER:                  -8.836
REMARK INTRA:                   4.137
REMARK UNBOUND:                 4.137
REMARK  Name = COC1=C2Oc3c(OC)ccc4c3[C@@]23CCN(C)[C@H](C4)C3=C[C@@H]1C(C)(C)O       ZINC000096316419
REMARK  9 active torsions:
REMARK  status: ('A' for Active; 'I' for Inactive)
REMARK    1  A    between atoms: C_1  and  O_2
REMARK    2  A    between atoms: O_2  and  C_3
REMARK    3  A    between atoms: C_7  and  O_8
REMARK    4  A    between atoms: O_8  and  C_9
REMARK    5  A    between atoms: N_17  and  C_18
REMARK    6  A    between atoms: C_23  and  C_24
REMARK    7  A    between atoms: C_24  and  C_25
REMARK    8  A    between atoms: C_24  and  C_26
REMARK    9  A    between atoms: C_24  and  O_27
REMARK                            x       y       z     vdW  Elec       q    Type
REMARK                         _______ _______ _______ _____ _____    ______ ____
ROOT
ATOM      1  C   UNL     1       2.584   1.476 -21.425  0.00  0.00    +0.146 C 
ATOM      2  C   UNL     1       1.453   1.861 -21.815  0.00  0.00    +0.159 C 
ATOM      3  O   UNL     1      -0.044   1.620 -21.813  0.00  0.00    -0.452 OA
ATOM      4  C   UNL     1      -0.822   2.639 -22.603  0.00  0.00    +0.174 A 
ATOM      5  C   UNL     1      -1.968   3.029 -22.999  0.00  0.00    +0.162 A 
ATOM      6  C   UNL     1      -2.059   4.068 -23.727  0.00  0.00    +0.050 A 
ATOM      7  C   UNL     1      -1.030   4.708 -24.057  0.00  0.00    +0.008 A 
ATOM      8  C   UNL     1       0.100   4.319 -23.663  0.00  0.00    -0.034 A 
ATOM      9  C   UNL     1       1.154   4.970 -23.997  0.00  0.00    +0.094 C 
ATOM     10  C   UNL     1       2.284   4.582 -23.605  0.00  0.00    +0.096 C 
ATOM     11  C   UNL     1       2.380   3.544 -22.877  0.00  0.00    -0.007 C 
ATOM     12  C   UNL     1       3.522   3.153 -22.481  0.00  0.00    -0.007 C 
ATOM     13  N   UNL     1       3.615   4.227 -23.213  0.00  0.00    +0.239 N 
ATOM     14  H   UNL     1       4.432   4.768 -23.497  0.00  0.00    +0.204 HD
ATOM     15  C   UNL     1       4.609   4.905 -23.573  0.00  0.00    +0.191 C 
ATOM     16  C   UNL     1       3.757   3.074 -22.400  0.00  0.00    +0.133 C 
ATOM     17  C   UNL     1       2.578   2.372 -22.045  0.00  0.00    +0.075 C 
ATOM     18  C   UNL     1       0.217   3.289 -22.939  0.00  0.00    +0.020 A 
ATOM     19  C   UNL     1       1.347   2.906 -22.549  0.00  0.00    +0.091 C 
ATOM     20  C   UNL     1       3.623   2.127 -21.760  0.00  0.00    +0.112 C 
ENDROOT
BRANCH  20  21
ATOM     21  C   UNL     1       4.756   1.742 -21.370  0.00  0.00    +0.074 C 
ATOM     22  C   UNL     1       5.356   0.824 -21.985  0.00  0.00    +0.042 C 
ATOM     23  C   UNL     1       5.719   1.829 -20.564  0.00  0.00    +0.042 C 
BRANCH  21  24
ATOM     24  O   UNL     1       4.719   2.581 -20.433  0.00  0.00    -0.388 OA
ATOM     25  H   UNL     1       5.610   2.702 -20.072  0.00  0.00    +0.210 HD
ENDBRANCH  21  24
ENDBRANCH  20  21
BRANCH   1  27
ATOM     26  C   UNL     1       2.267   0.469 -19.518  0.00  0.00    +0.276 C 
ATOM     27  O   UNL     1       2.687   0.450 -20.704  0.00  0.00    -0.495 OA
ENDBRANCH   1  27
BRANCH   5  28
ATOM     28  O   UNL     1      -3.000   2.391 -22.672  0.00  0.00    -0.491 OA
ATOM     29  C   UNL     1      -3.918   2.964 -22.033  0.00  0.00    +0.277 C 
ENDBRANCH   5  28
TORSDOF 4
ENDMDL
MODEL 9
REMARK VINA RESULT:    -7.161      4.084      7.170
REMARK INTER + INTRA:          -4.699
REMARK INTER:                  -8.603
REMARK INTRA:                   3.904
REMARK UNBOUND:                 4.137
REMARK  Name = COC1=C2Oc3c(OC)ccc4c3[C@@]23CCN(C)[C@H](C4)C3=C[C@@H]1C(C)(C)O       ZINC000096316419
REMARK  9 active torsions:
REMARK  status: ('A' for Active; 'I' for Inactive)
REMARK    1  A    between atoms: C_1  and  O_2
REMARK    2  A    between atoms: O_2  and  C_3
REMARK    3  A    between atoms: C_7  and  O_8
REMARK    4  A    between atoms: O_8  and  C_9
REMARK    5  A    between atoms: N_17  and  C_18
REMARK    6  A    between atoms: C_23  and  C_24
REMARK    7  A    between atoms: C_24  and  C_25
REMARK    8  A    between atoms: C_24  and  C_26
REMARK    9  A    between atoms: C_24  and  O_27
REMARK                            x       y       z     vdW  Elec       q    Type
REMARK                         _______ _______ _______ _____ _____    ______ ____
ROOT
ATOM      1  C   UNL     1       3.072   3.921 -23.236  0.00  0.00    +0.146 C 
ATOM      2  C   UNL     1       3.464   5.060 -22.879  0.00  0.00    +0.159 C 
ATOM      3  O   UNL     1       3.082   6.480 -22.510  0.00  0.00    -0.452 OA
ATOM      4  C   UNL     1       4.259   7.351 -22.160  0.00  0.00    +0.174 A 
ATOM      5  C   UNL     1       4.658   8.505 -21.798  0.00  0.00    +0.162 A 
ATOM      6  C   UNL     1       5.901   8.715 -21.628  0.00  0.00    +0.050 A 
ATOM      7  C   UNL     1       6.734   7.794 -21.815  0.00  0.00    +0.008 A 
ATOM      8  C   UNL     1       6.335   6.655 -22.173  0.00  0.00    -0.034 A 
ATOM      9  C   UNL     1       7.183   5.711 -22.365  0.00  0.00    +0.094 C 
ATOM     10  C   UNL     1       6.786   4.572 -22.723  0.00  0.00    +0.096 C 
ATOM     11  C   UNL     1       5.545   4.359 -22.893  0.00  0.00    -0.007 C 
ATOM     12  C   UNL     1       5.145   3.208 -23.254  0.00  0.00    -0.007 C 
ATOM     13  N   UNL     1       6.442   3.243 -23.130  0.00  0.00    +0.239 N 
ATOM     14  H   UNL     1       7.142   2.516 -23.274  0.00  0.00    +0.204 HD
ATOM     15  C   UNL     1       7.318   2.360 -23.302  0.00  0.00    +0.191 C 
ATOM     16  C   UNL     1       5.064   2.971 -23.329  0.00  0.00    +0.133 C 
ATOM     17  C   UNL     1       4.148   4.031 -23.110  0.00  0.00    +0.075 C 
ATOM     18  C   UNL     1       5.105   6.422 -22.348  0.00  0.00    +0.020 A 
ATOM     19  C   UNL     1       4.714   5.284 -22.705  0.00  0.00    +0.091 C 
ATOM     20  C   UNL     1       3.918   2.991 -23.424  0.00  0.00    +0.112 C 
ENDROOT
BRANCH  20  21
ATOM     21  C   UNL     1       3.525   1.850 -23.782  0.00  0.00    +0.074 C 
ATOM     22  C   UNL     1       3.290   0.965 -22.920  0.00  0.00    +0.042 C 
ATOM     23  C   UNL     1       3.208   1.042 -24.694  0.00  0.00    +0.042 C 
BRANCH  21  24
ATOM     24  O   UNL     1       3.570   2.211 -24.986  0.00  0.00    -0.388 OA
ATOM     25  H   UNL     1       4.495   2.266 -25.273  0.00  0.00    +0.210 HD
ENDBRANCH  21  24
ENDBRANCH  20  21
BRANCH   1  27
ATOM     26  C   UNL     1       1.141   4.523 -24.050  0.00  0.00    +0.276 C 
ATOM     27  O   UNL     1       1.844   3.701 -23.407  0.00  0.00    -0.495 OA
ENDBRANCH   1  27
BRANCH   5  28
ATOM     28  O   UNL     1       3.827   9.430 -21.609  0.00  0.00    -0.491 OA
ATOM     29  C   UNL     1       3.777  10.403 -22.404  0.00  0.00    +0.277 C 
ENDBRANCH   5  28
TORSDOF 4
ENDMDL
