MODEL 1
REMARK VINA RESULT:    -9.967      0.000      0.000
REMARK INTER + INTRA:         -10.209
REMARK INTER:                 -11.155
REMARK INTRA:                   0.947
REMARK UNBOUND:                 0.924
REMARK  Name = COC1=C2Oc3c(OC)ccc4c3[C@@]23CCN(C=O)[C@@H](C4)[C@@H]3C=C1            ZINC000253505553
REMARK  4 active torsions:
REMARK  status: ('A' for Active; 'I' for Inactive)
REMARK    1  A    between atoms: C_1  and  O_2
REMARK    2  A    between atoms: O_2  and  C_3
REMARK    3  A    between atoms: C_7  and  O_8
REMARK    4  A    between atoms: O_8  and  C_9
REMARK                            x       y       z     vdW  Elec       q    Type
REMARK                         _______ _______ _______ _____ _____    ______ ____
ROOT
ATOM      1  C   UNL     1      -2.774   3.717 -25.310  0.00  0.00    +0.159 C 
ATOM      2  C   UNL     1      -1.637   3.363 -24.917  0.00  0.00    +0.158 C 
ATOM      3  O   UNL     1      -0.172   3.204 -25.261  0.00  0.00    -0.452 OA
ATOM      4  C   UNL     1       0.650   2.652 -24.131  0.00  0.00    +0.174 A 
ATOM      5  C   UNL     1       1.801   2.294 -23.737  0.00  0.00    +0.162 A 
ATOM      6  C   UNL     1       1.949   1.854 -22.558  0.00  0.00    +0.050 A 
ATOM      7  C   UNL     1       0.969   1.771 -21.785  0.00  0.00    +0.008 A 
ATOM      8  C   UNL     1      -0.167   2.126 -22.178  0.00  0.00    -0.038 A 
ATOM      9  C   UNL     1      -1.172   2.043 -21.393  0.00  0.00    +0.058 C 
ATOM     10  C   UNL     1      -2.307   2.397 -21.785  0.00  0.00    +0.088 C 
ATOM     11  C   UNL     1      -2.457   2.837 -22.963  0.00  0.00    +0.051 C 
ATOM     12  C   UNL     1      -3.607   3.194 -23.357  0.00  0.00    -0.017 C 
ATOM     13  N   UNL     1      -3.639   2.772 -22.133  0.00  0.00    -0.300 N 
ATOM     14  C   UNL     1      -4.599   2.670 -21.316  0.00  0.00    +0.328 C 
ATOM     15  O   UNL     1      -4.408   2.229 -20.156  0.00  0.00    -0.279 OA
ATOM     16  C   UNL     1      -3.842   3.268 -23.439  0.00  0.00    +0.109 C 
ATOM     17  C   UNL     1      -2.717   3.350 -24.289  0.00  0.00    +0.039 C 
ATOM     18  C   UNL     1      -0.339   2.567 -23.347  0.00  0.00    +0.016 A 
ATOM     19  C   UNL     1      -1.474   2.919 -23.734  0.00  0.00    +0.070 C 
ATOM     20  C   UNL     1      -3.759   3.630 -24.521  0.00  0.00    +0.045 C 
ENDROOT
BRANCH   1  22
ATOM     21  C   UNL     1      -3.334   3.389 -27.379  0.00  0.00    +0.277 C 
ATOM     22  O   UNL     1      -2.931   4.154 -26.473  0.00  0.00    -0.492 OA
ENDBRANCH   1  22
BRANCH   5  23
ATOM     23  O   UNL     1       2.785   2.376 -24.508  0.00  0.00    -0.491 OA
ATOM     24  C   UNL     1       3.949   2.313 -24.049  0.00  0.00    +0.277 C 
ENDBRANCH   5  23
TORSDOF 2
ENDMDL
MODEL 2
REMARK VINA RESULT:    -9.575      1.505      3.562
REMARK INTER + INTRA:          -9.770
REMARK INTER:                 -10.685
REMARK INTRA:                   0.915
REMARK UNBOUND:                 0.924
REMARK  Name = COC1=C2Oc3c(OC)ccc4c3[C@@]23CCN(C=O)[C@@H](C4)[C@@H]3C=C1            ZINC000253505553
REMARK  4 active torsions:
REMARK  status: ('A' for Active; 'I' for Inactive)
REMARK    1  A    between atoms: C_1  and  O_2
REMARK    2  A    between atoms: O_2  and  C_3
REMARK    3  A    between atoms: C_7  and  O_8
REMARK    4  A    between atoms: O_8  and  C_9
REMARK                            x       y       z     vdW  Elec       q    Type
REMARK                         _______ _______ _______ _____ _____    ______ ____
ROOT
ATOM      1  C   UNL     1      -2.910   2.878 -21.816  0.00  0.00    +0.159 C 
ATOM      2  C   UNL     1      -1.682   2.796 -22.053  0.00  0.00    +0.158 C 
ATOM      3  O   UNL     1      -0.299   2.549 -21.491  0.00  0.00    -0.452 OA
ATOM      4  C   UNL     1       0.789   2.631 -22.524  0.00  0.00    +0.174 A 
ATOM      5  C   UNL     1       2.032   2.548 -22.760  0.00  0.00    +0.162 A 
ATOM      6  C   UNL     1       2.457   2.726 -23.940  0.00  0.00    +0.050 A 
ATOM      7  C   UNL     1       1.660   2.982 -24.869  0.00  0.00    +0.008 A 
ATOM      8  C   UNL     1       0.432   3.064 -24.632  0.00  0.00    -0.038 A 
ATOM      9  C   UNL     1      -0.387   3.326 -25.577  0.00  0.00    +0.058 C 
ATOM     10  C   UNL     1      -1.614   3.407 -25.341  0.00  0.00    +0.088 C 
ATOM     11  C   UNL     1      -2.041   3.230 -24.162  0.00  0.00    +0.051 C 
ATOM     12  C   UNL     1      -3.283   3.313 -23.927  0.00  0.00    -0.017 C 
ATOM     13  N   UNL     1      -3.027   3.522 -25.179  0.00  0.00    -0.300 N 
ATOM     14  C   UNL     1      -3.794   3.783 -26.150  0.00  0.00    +0.328 C 
ATOM     15  O   UNL     1      -3.330   3.953 -27.304  0.00  0.00    -0.279 OA
ATOM     16  C   UNL     1      -3.538   3.330 -23.876  0.00  0.00    +0.109 C 
ATOM     17  C   UNL     1      -2.613   3.042 -22.848  0.00  0.00    +0.039 C 
ATOM     18  C   UNL     1      -0.015   2.891 -23.466  0.00  0.00    +0.016 A 
ATOM     19  C   UNL     1      -1.241   2.973 -23.235  0.00  0.00    +0.070 C 
ATOM     20  C   UNL     1      -3.710   3.138 -22.762  0.00  0.00    +0.045 C 
ENDROOT
BRANCH   1  22
ATOM     21  C   UNL     1      -3.265   3.628 -19.813  0.00  0.00    +0.277 C 
ATOM     22  O   UNL     1      -3.342   2.704 -20.654  0.00  0.00    -0.492 OA
ENDBRANCH   1  22
BRANCH   5  23
ATOM     23  O   UNL     1       2.834   2.291 -21.832  0.00  0.00    -0.491 OA
ATOM     24  C   UNL     1       2.963   1.115 -21.421  0.00  0.00    +0.277 C 
ENDBRANCH   5  23
TORSDOF 2
ENDMDL
MODEL 3
REMARK VINA RESULT:    -8.728      1.919      4.758
REMARK INTER + INTRA:          -8.825
REMARK INTER:                  -9.888
REMARK INTRA:                   1.063
REMARK UNBOUND:                 0.924
REMARK  Name = COC1=C2Oc3c(OC)ccc4c3[C@@]23CCN(C=O)[C@@H](C4)[C@@H]3C=C1            ZINC000253505553
REMARK  4 active torsions:
REMARK  status: ('A' for Active; 'I' for Inactive)
REMARK    1  A    between atoms: C_1  and  O_2
REMARK    2  A    between atoms: O_2  and  C_3
REMARK    3  A    between atoms: C_7  and  O_8
REMARK    4  A    between atoms: O_8  and  C_9
REMARK                            x       y       z     vdW  Elec       q    Type
REMARK                         _______ _______ _______ _____ _____    ______ ____
ROOT
ATOM      1  C   UNL     1       0.741   2.891 -24.709  0.00  0.00    +0.159 C 
ATOM      2  C   UNL     1      -0.449   2.975 -24.322  0.00  0.00    +0.158 C 
ATOM      3  O   UNL     1      -1.874   3.327 -24.687  0.00  0.00    -0.452 OA
ATOM      4  C   UNL     1      -2.843   3.147 -23.551  0.00  0.00    +0.174 A 
ATOM      5  C   UNL     1      -4.046   3.233 -23.164  0.00  0.00    +0.162 A 
ATOM      6  C   UNL     1      -4.344   2.922 -21.973  0.00  0.00    +0.050 A 
ATOM      7  C   UNL     1      -3.459   2.531 -21.180  0.00  0.00    +0.008 A 
ATOM      8  C   UNL     1      -2.269   2.446 -21.566  0.00  0.00    -0.038 A 
ATOM      9  C   UNL     1      -1.361   2.048 -20.761  0.00  0.00    +0.058 C 
ATOM     10  C   UNL     1      -0.173   1.963 -21.146  0.00  0.00    +0.088 C 
ATOM     11  C   UNL     1       0.127   2.274 -22.337  0.00  0.00    +0.051 C 
ATOM     12  C   UNL     1       1.330   2.188 -22.723  0.00  0.00    -0.017 C 
ATOM     13  N   UNL     1       1.208   1.832 -21.484  0.00  0.00    -0.300 N 
ATOM     14  C   UNL     1       2.067   1.432 -20.647  0.00  0.00    +0.328 C 
ATOM     15  O   UNL     1       1.729   1.134 -19.476  0.00  0.00    -0.279 OA
ATOM     16  C   UNL     1       1.576   2.171 -22.804  0.00  0.00    +0.109 C 
ATOM     17  C   UNL     1       0.555   2.609 -23.676  0.00  0.00    +0.039 C 
ATOM     18  C   UNL     1      -1.950   2.751 -22.747  0.00  0.00    +0.016 A 
ATOM     19  C   UNL     1      -0.762   2.665 -23.127  0.00  0.00    +0.070 C 
ATOM     20  C   UNL     1       1.630   2.494 -23.900  0.00  0.00    +0.045 C 
ENDROOT
BRANCH   1  22
ATOM     21  C   UNL     1       1.199   4.398 -26.198  0.00  0.00    +0.277 C 
ATOM     22  O   UNL     1       1.046   3.196 -25.884  0.00  0.00    -0.492 OA
ENDBRANCH   1  22
BRANCH   5  23
ATOM     23  O   UNL     1      -4.936   3.624 -23.955  0.00  0.00    -0.491 OA
ATOM     24  C   UNL     1      -4.774   4.679 -24.610  0.00  0.00    +0.277 C 
ENDBRANCH   5  23
TORSDOF 2
ENDMDL
MODEL 4
REMARK VINA RESULT:    -8.083      2.714      6.186
REMARK INTER + INTRA:          -8.104
REMARK INTER:                  -9.030
REMARK INTRA:                   0.926
REMARK UNBOUND:                 0.924
REMARK  Name = COC1=C2Oc3c(OC)ccc4c3[C@@]23CCN(C=O)[C@@H](C4)[C@@H]3C=C1            ZINC000253505553
REMARK  4 active torsions:
REMARK  status: ('A' for Active; 'I' for Inactive)
REMARK    1  A    between atoms: C_1  and  O_2
REMARK    2  A    between atoms: O_2  and  C_3
REMARK    3  A    between atoms: C_7  and  O_8
REMARK    4  A    between atoms: O_8  and  C_9
REMARK                            x       y       z     vdW  Elec       q    Type
REMARK                         _______ _______ _______ _____ _____    ______ ____
ROOT
ATOM      1  C   UNL     1       3.063   1.429 -24.300  0.00  0.00    +0.159 C 
ATOM      2  C   UNL     1       1.956   2.008 -24.200  0.00  0.00    +0.158 C 
ATOM      3  O   UNL     1       0.456   1.908 -24.376  0.00  0.00    -0.452 OA
ATOM      4  C   UNL     1      -0.274   3.167 -24.000  0.00  0.00    +0.174 A 
ATOM      5  C   UNL     1      -1.395   3.750 -23.899  0.00  0.00    +0.162 A 
ATOM      6  C   UNL     1      -1.444   4.945 -23.483  0.00  0.00    +0.050 A 
ATOM      7  C   UNL     1      -0.394   5.551 -23.171  0.00  0.00    +0.008 A 
ATOM      8  C   UNL     1       0.713   4.971 -23.271  0.00  0.00    -0.038 A 
ATOM      9  C   UNL     1       1.788   5.585 -22.954  0.00  0.00    +0.058 C 
ATOM     10  C   UNL     1       2.894   5.007 -23.054  0.00  0.00    +0.088 C 
ATOM     11  C   UNL     1       2.945   3.812 -23.471  0.00  0.00    +0.051 C 
ATOM     12  C   UNL     1       4.065   3.230 -23.571  0.00  0.00    -0.017 C 
ATOM     13  N   UNL     1       4.202   4.441 -23.131  0.00  0.00    -0.300 N 
ATOM     14  C   UNL     1       5.235   5.093 -22.804  0.00  0.00    +0.328 C 
ATOM     15  O   UNL     1       5.142   6.276 -22.396  0.00  0.00    -0.279 OA
ATOM     16  C   UNL     1       4.294   3.109 -23.592  0.00  0.00    +0.109 C 
ATOM     17  C   UNL     1       3.093   2.452 -23.937  0.00  0.00    +0.039 C 
ATOM     18  C   UNL     1       0.786   3.782 -23.684  0.00  0.00    +0.016 A 
ATOM     19  C   UNL     1       1.892   3.209 -23.782  0.00  0.00    +0.070 C 
ATOM     20  C   UNL     1       4.119   2.048 -23.983  0.00  0.00    +0.045 C 
ENDROOT
BRANCH   1  22
ATOM     21  C   UNL     1       2.989   0.003 -25.932  0.00  0.00    +0.277 C 
ATOM     22  O   UNL     1       3.122   0.247 -24.711  0.00  0.00    -0.492 OA
ENDBRANCH   1  22
BRANCH   5  23
ATOM     23  O   UNL     1      -2.449   3.148 -24.211  0.00  0.00    -0.491 OA
ATOM     24  C   UNL     1      -2.836   3.136 -25.401  0.00  0.00    +0.277 C 
ENDBRANCH   5  23
TORSDOF 2
ENDMDL
MODEL 5
REMARK VINA RESULT:    -8.007      3.394      7.442
REMARK INTER + INTRA:          -8.019
REMARK INTER:                  -8.955
REMARK INTRA:                   0.936
REMARK UNBOUND:                 0.924
REMARK  Name = COC1=C2Oc3c(OC)ccc4c3[C@@]23CCN(C=O)[C@@H](C4)[C@@H]3C=C1            ZINC000253505553
REMARK  4 active torsions:
REMARK  status: ('A' for Active; 'I' for Inactive)
REMARK    1  A    between atoms: C_1  and  O_2
REMARK    2  A    between atoms: O_2  and  C_3
REMARK    3  A    between atoms: C_7  and  O_8
REMARK    4  A    between atoms: O_8  and  C_9
REMARK                            x       y       z     vdW  Elec       q    Type
REMARK                         _______ _______ _______ _____ _____    ______ ____
ROOT
ATOM      1  C   UNL     1       5.031   1.567 -22.107  0.00  0.00    +0.159 C 
ATOM      2  C   UNL     1       3.877   1.901 -22.469  0.00  0.00    +0.158 C 
ATOM      3  O   UNL     1       2.472   1.444 -22.793  0.00  0.00    -0.452 OA
ATOM      4  C   UNL     1       1.557   2.566 -23.195  0.00  0.00    +0.174 A 
ATOM      5  C   UNL     1       0.390   2.900 -23.561  0.00  0.00    +0.162 A 
ATOM      6  C   UNL     1       0.133   4.118 -23.795  0.00  0.00    +0.050 A 
ATOM      7  C   UNL     1       1.021   4.989 -23.667  0.00  0.00    +0.008 A 
ATOM      8  C   UNL     1       2.174   4.656 -23.306  0.00  0.00    -0.038 A 
ATOM      9  C   UNL     1       3.086   5.542 -23.174  0.00  0.00    +0.058 C 
ATOM     10  C   UNL     1       4.237   5.209 -22.813  0.00  0.00    +0.088 C 
ATOM     11  C   UNL     1       4.497   3.991 -22.579  0.00  0.00    +0.051 C 
ATOM     12  C   UNL     1       5.663   3.658 -22.213  0.00  0.00    -0.017 C 
ATOM     13  N   UNL     1       5.578   4.936 -22.408  0.00  0.00    -0.300 N 
ATOM     14  C   UNL     1       6.443   5.851 -22.293  0.00  0.00    +0.328 C 
ATOM     15  O   UNL     1       6.145   7.047 -22.535  0.00  0.00    -0.279 OA
ATOM     16  C   UNL     1       5.902   3.588 -22.138  0.00  0.00    +0.109 C 
ATOM     17  C   UNL     1       4.878   2.627 -22.291  0.00  0.00    +0.039 C 
ATOM     18  C   UNL     1       2.453   3.449 -23.067  0.00  0.00    +0.016 A 
ATOM     19  C   UNL     1       3.605   3.122 -22.707  0.00  0.00    +0.070 C 
ATOM     20  C   UNL     1       5.923   2.455 -21.981  0.00  0.00    +0.045 C 
ENDROOT
BRANCH   1  22
ATOM     21  C   UNL     1       5.178  -0.086 -20.711  0.00  0.00    +0.277 C 
ATOM     22  O   UNL     1       5.296   0.366 -21.873  0.00  0.00    -0.492 OA
ENDBRANCH   1  22
BRANCH   5  23
ATOM     23  O   UNL     1      -0.503   2.031 -23.690  0.00  0.00    -0.491 OA
ATOM     24  C   UNL     1      -1.710   2.365 -23.690  0.00  0.00    +0.277 C 
ENDBRANCH   5  23
TORSDOF 2
ENDMDL
MODEL 6
REMARK VINA RESULT:    -7.373      1.609      5.375
REMARK INTER + INTRA:          -7.311
REMARK INTER:                  -8.383
REMARK INTRA:                   1.073
REMARK UNBOUND:                 0.924
REMARK  Name = COC1=C2Oc3c(OC)ccc4c3[C@@]23CCN(C=O)[C@@H](C4)[C@@H]3C=C1            ZINC000253505553
REMARK  4 active torsions:
REMARK  status: ('A' for Active; 'I' for Inactive)
REMARK    1  A    between atoms: C_1  and  O_2
REMARK    2  A    between atoms: O_2  and  C_3
REMARK    3  A    between atoms: C_7  and  O_8
REMARK    4  A    between atoms: O_8  and  C_9
REMARK                            x       y       z     vdW  Elec       q    Type
REMARK                         _______ _______ _______ _____ _____    ______ ____
ROOT
ATOM      1  C   UNL     1      -2.122   2.622 -21.165  0.00  0.00    +0.159 C 
ATOM      2  C   UNL     1      -2.534   2.947 -22.303  0.00  0.00    +0.158 C 
ATOM      3  O   UNL     1      -3.711   3.396 -23.141  0.00  0.00    -0.452 OA
ATOM      4  C   UNL     1      -3.368   3.601 -24.590  0.00  0.00    +0.174 A 
ATOM      5  C   UNL     1      -3.788   3.930 -25.740  0.00  0.00    +0.162 A 
ATOM      6  C   UNL     1      -2.987   3.932 -26.721  0.00  0.00    +0.050 A 
ATOM      7  C   UNL     1      -1.789   3.612 -26.562  0.00  0.00    +0.008 A 
ATOM      8  C   UNL     1      -1.377   3.287 -25.423  0.00  0.00    -0.038 A 
ATOM      9  C   UNL     1      -0.153   2.958 -25.254  0.00  0.00    +0.058 C 
ATOM     10  C   UNL     1       0.258   2.634 -24.117  0.00  0.00    +0.088 C 
ATOM     11  C   UNL     1      -0.541   2.631 -23.135  0.00  0.00    +0.051 C 
ATOM     12  C   UNL     1      -0.121   2.302 -21.986  0.00  0.00    -0.017 C 
ATOM     13  N   UNL     1       0.827   2.248 -22.866  0.00  0.00    -0.300 N 
ATOM     14  C   UNL     1       2.046   1.932 -22.754  0.00  0.00    +0.328 C 
ATOM     15  O   UNL     1       2.806   1.947 -23.753  0.00  0.00    -0.279 OA
ATOM     16  C   UNL     1      -0.037   2.235 -21.749  0.00  0.00    +0.109 C 
ATOM     17  C   UNL     1      -1.384   2.602 -21.961  0.00  0.00    +0.039 C 
ATOM     18  C   UNL     1      -2.156   3.278 -24.432  0.00  0.00    +0.016 A 
ATOM     19  C   UNL     1      -1.740   2.953 -23.298  0.00  0.00    +0.070 C 
ATOM     20  C   UNL     1      -0.909   2.299 -21.012  0.00  0.00    +0.045 C 
ENDROOT
BRANCH   1  22
ATOM     21  C   UNL     1      -3.274   3.698 -19.675  0.00  0.00    +0.277 C 
ATOM     22  O   UNL     1      -2.906   2.617 -20.188  0.00  0.00    -0.492 OA
ENDBRANCH   1  22
BRANCH   5  23
ATOM     23  O   UNL     1      -4.988   4.252 -25.905  0.00  0.00    -0.491 OA
ATOM     24  C   UNL     1      -5.901   3.494 -25.506  0.00  0.00    +0.277 C 
ENDBRANCH   5  23
TORSDOF 2
ENDMDL
MODEL 7
REMARK VINA RESULT:    -7.217      1.712      5.226
REMARK INTER + INTRA:          -7.137
REMARK INTER:                  -8.489
REMARK INTRA:                   1.352
REMARK UNBOUND:                 0.924
REMARK  Name = COC1=C2Oc3c(OC)ccc4c3[C@@]23CCN(C=O)[C@@H](C4)[C@@H]3C=C1            ZINC000253505553
REMARK  4 active torsions:
REMARK  status: ('A' for Active; 'I' for Inactive)
REMARK    1  A    between atoms: C_1  and  O_2
REMARK    2  A    between atoms: O_2  and  C_3
REMARK    3  A    between atoms: C_7  and  O_8
REMARK    4  A    between atoms: O_8  and  C_9
REMARK                            x       y       z     vdW  Elec       q    Type
REMARK                         _______ _______ _______ _____ _____    ______ ____
ROOT
ATOM      1  C   UNL     1      -0.217   3.567 -24.186  0.00  0.00    +0.159 C 
ATOM      2  C   UNL     1      -1.215   3.541 -23.428  0.00  0.00    +0.158 C 
ATOM      3  O   UNL     1      -1.720   3.536 -22.002  0.00  0.00    -0.452 OA
ATOM      4  C   UNL     1      -3.219   3.490 -21.899  0.00  0.00    +0.174 A 
ATOM      5  C   UNL     1      -4.226   3.465 -21.130  0.00  0.00    +0.162 A 
ATOM      6  C   UNL     1      -5.391   3.424 -21.626  0.00  0.00    +0.050 A 
ATOM      7  C   UNL     1      -5.551   3.410 -22.867  0.00  0.00    +0.008 A 
ATOM      8  C   UNL     1      -4.553   3.435 -23.625  0.00  0.00    -0.038 A 
ATOM      9  C   UNL     1      -4.711   3.421 -24.893  0.00  0.00    +0.058 C 
ATOM     10  C   UNL     1      -3.714   3.446 -25.650  0.00  0.00    +0.088 C 
ATOM     11  C   UNL     1      -2.548   3.486 -25.156  0.00  0.00    +0.051 C 
ATOM     12  C   UNL     1      -1.542   3.512 -25.925  0.00  0.00    -0.017 C 
ATOM     13  N   UNL     1      -2.648   3.472 -26.598  0.00  0.00    -0.300 N 
ATOM     14  C   UNL     1      -2.859   3.456 -27.845  0.00  0.00    +0.328 C 
ATOM     15  O   UNL     1      -4.030   3.416 -28.295  0.00  0.00    -0.279 OA
ATOM     16  C   UNL     1      -1.334   3.517 -26.081  0.00  0.00    +0.109 C 
ATOM     17  C   UNL     1      -1.185   3.533 -24.677  0.00  0.00    +0.039 C 
ATOM     18  C   UNL     1      -3.384   3.476 -23.154  0.00  0.00    +0.016 A 
ATOM     19  C   UNL     1      -2.392   3.501 -23.914  0.00  0.00    +0.070 C 
ATOM     20  C   UNL     1      -0.388   3.552 -25.440  0.00  0.00    +0.045 C 
ENDROOT
BRANCH   1  22
ATOM     21  C   UNL     1       1.486   2.554 -23.305  0.00  0.00    +0.277 C 
ATOM     22  O   UNL     1       0.939   3.606 -23.706  0.00  0.00    -0.492 OA
ENDBRANCH   1  22
BRANCH   5  23
ATOM     23  O   UNL     1      -4.071   3.479 -19.887  0.00  0.00    -0.491 OA
ATOM     24  C   UNL     1      -2.955   3.770 -19.397  0.00  0.00    +0.277 C 
ENDBRANCH   5  23
TORSDOF 2
ENDMDL
