MODEL 1
REMARK VINA RESULT:   -10.398      0.000      0.000
REMARK INTER + INTRA:         -14.157
REMARK INTER:                 -13.346
REMARK INTRA:                  -0.811
REMARK UNBOUND:                -0.416
REMARK  Name = ZINC000003894276
REMARK  8 active torsions:
REMARK  status: ('A' for Active; 'I' for Inactive)
REMARK    1  A    between atoms: C_7  and  O_8
REMARK    2  A    between atoms: O_8  and  C_9
REMARK    3  A    between atoms: C_11  and  C_12
REMARK    4  A    between atoms: C_12  and  O_13
REMARK    5  A    between atoms: C_14  and  O_15
REMARK    6  A    between atoms: C_16  and  O_17
REMARK    7  A    between atoms: C_18  and  O_19
REMARK    8  A    between atoms: C_20  and  O_21
REMARK                            x       y       z     vdW  Elec       q    Type
REMARK                         _______ _______ _______ _____ _____    ______ ____
ROOT
ATOM      1  C   UNL     1       1.465   2.926 -23.960  0.00  0.00    +0.339 C 
ATOM      2  O   UNL     1       1.749   2.807 -22.698  0.00  0.00    -0.331 OA
ATOM      3  C   UNL     1       2.591   1.897 -22.304  0.00  0.00    +0.179 C 
ATOM      4  C   UNL     1       3.148   1.108 -23.174  0.00  0.00    +0.177 C 
ATOM      5  C   UNL     1       2.864   1.227 -24.437  0.00  0.00    +0.180 C 
ATOM      6  C   UNL     1       2.022   2.136 -24.830  0.00  0.00    +0.214 C 
ENDROOT
BRANCH   5   7
ATOM      7  O   UNL     1       3.421   0.437 -25.306  0.00  0.00    -0.386 OA
ATOM      8  H   UNL     1       2.800   0.265 -26.032  0.00  0.00    +0.210 HD
ENDBRANCH   5   7
BRANCH   4   9
ATOM      9  O   UNL     1       3.990   0.198 -22.780  0.00  0.00    -0.386 OA
ATOM     10  H   UNL     1       3.730  -0.662 -23.147  0.00  0.00    +0.210 HD
ENDBRANCH   4   9
BRANCH   6  11
ATOM     11  O   UNL     1       1.737   2.256 -26.093  0.00  0.00    -0.383 OA
ATOM     12  H   UNL     1       2.305   1.662 -26.610  0.00  0.00    +0.210 HD
ENDBRANCH   6  11
BRANCH   1  13
ATOM     13  O   UNL     1       0.623   3.836 -24.354  0.00  0.00    -0.457 OA
BRANCH  13  20
ATOM     14  O   UNL     1      -6.122   3.288 -21.786  0.00  0.00    -0.245 OA
ATOM     15  C   UNL     1      -4.856   3.415 -22.053  0.00  0.00    +0.337 A 
ATOM     16  C   UNL     1      -4.007   3.628 -21.092  0.00  0.00    +0.092 A 
ATOM     17  C   UNL     1      -2.742   3.755 -21.360  0.00  0.00    +0.018 A 
ATOM     18  C   UNL     1      -2.325   3.669 -22.589  0.00  0.00    +0.021 A 
ATOM     19  C   UNL     1      -1.059   3.795 -22.857  0.00  0.00    +0.061 A 
ATOM     20  C   UNL     1      -0.643   3.709 -24.085  0.00  0.00    +0.166 A 
ATOM     21  C   UNL     1      -1.493   3.495 -25.046  0.00  0.00    +0.162 A 
ATOM     22  C   UNL     1      -2.758   3.368 -24.778  0.00  0.00    +0.096 A 
ATOM     23  C   UNL     1      -3.174   3.455 -23.550  0.00  0.00    +0.143 A 
ATOM     24  O   UNL     1      -4.440   3.328 -23.281  0.00  0.00    -0.422 OA
BRANCH  21  25
ATOM     25  O   UNL     1      -1.077   3.408 -26.274  0.00  0.00    -0.503 OA
ATOM     26  H   UNL     1      -0.195   3.643 -26.488  0.00  0.00    +0.292 HD
ENDBRANCH  21  25
ENDBRANCH  13  20
ENDBRANCH   1  13
BRANCH   3  27
ATOM     27  C   UNL     1       2.876   1.777 -21.042  0.00  0.00    +0.190 C 
BRANCH  27  28
ATOM     28  O   UNL     1       4.025   2.184 -20.593  0.00  0.00    -0.392 OA
ATOM     29  H   UNL     1       4.419   1.493 -20.038  0.00  0.00    +0.210 HD
ENDBRANCH  27  28
ENDBRANCH   3  27
TORSDOF 8
ENDMDL
MODEL 2
REMARK VINA RESULT:    -9.883      1.484      2.259
REMARK INTER + INTRA:         -13.476
REMARK INTER:                 -12.637
REMARK INTRA:                  -0.839
REMARK UNBOUND:                -0.416
REMARK  Name = ZINC000003894276
REMARK  8 active torsions:
REMARK  status: ('A' for Active; 'I' for Inactive)
REMARK    1  A    between atoms: C_7  and  O_8
REMARK    2  A    between atoms: O_8  and  C_9
REMARK    3  A    between atoms: C_11  and  C_12
REMARK    4  A    between atoms: C_12  and  O_13
REMARK    5  A    between atoms: C_14  and  O_15
REMARK    6  A    between atoms: C_16  and  O_17
REMARK    7  A    between atoms: C_18  and  O_19
REMARK    8  A    between atoms: C_20  and  O_21
REMARK                            x       y       z     vdW  Elec       q    Type
REMARK                         _______ _______ _______ _____ _____    ______ ____
ROOT
ATOM      1  C   UNL     1       1.608   4.130 -24.250  0.00  0.00    +0.339 C 
ATOM      2  O   UNL     1       1.795   2.893 -24.600  0.00  0.00    -0.331 OA
ATOM      3  C   UNL     1       2.901   2.287 -24.283  0.00  0.00    +0.179 C 
ATOM      4  C   UNL     1       3.819   2.919 -23.614  0.00  0.00    +0.177 C 
ATOM      5  C   UNL     1       3.632   4.157 -23.263  0.00  0.00    +0.180 C 
ATOM      6  C   UNL     1       2.527   4.763 -23.581  0.00  0.00    +0.214 C 
ENDROOT
BRANCH   5   7
ATOM      7  O   UNL     1       4.551   4.788 -22.595  0.00  0.00    -0.386 OA
ATOM      8  H   UNL     1       5.242   4.163 -22.325  0.00  0.00    +0.210 HD
ENDBRANCH   5   7
BRANCH   4   9
ATOM      9  O   UNL     1       4.925   2.313 -23.297  0.00  0.00    -0.386 OA
ATOM     10  H   UNL     1       4.941   2.150 -22.340  0.00  0.00    +0.210 HD
ENDBRANCH   4   9
BRANCH   6  11
ATOM     11  O   UNL     1       2.340   6.000 -23.230  0.00  0.00    -0.383 OA
ATOM     12  H   UNL     1       2.530   6.581 -23.983  0.00  0.00    +0.210 HD
ENDBRANCH   6  11
BRANCH   1  13
ATOM     13  O   UNL     1       0.503   4.736 -24.567  0.00  0.00    -0.457 OA
BRANCH  13  20
ATOM     14  O   UNL     1      -5.584   2.507 -21.346  0.00  0.00    -0.245 OA
ATOM     15  C   UNL     1      -4.442   2.986 -21.743  0.00  0.00    +0.337 A 
ATOM     16  C   UNL     1      -3.683   3.633 -20.909  0.00  0.00    +0.092 A 
ATOM     17  C   UNL     1      -2.542   4.112 -21.307  0.00  0.00    +0.018 A 
ATOM     18  C   UNL     1      -2.160   3.945 -22.539  0.00  0.00    +0.021 A 
ATOM     19  C   UNL     1      -1.020   4.424 -22.937  0.00  0.00    +0.061 A 
ATOM     20  C   UNL     1      -0.639   4.257 -24.169  0.00  0.00    +0.166 A 
ATOM     21  C   UNL     1      -1.399   3.610 -25.002  0.00  0.00    +0.162 A 
ATOM     22  C   UNL     1      -2.539   3.131 -24.604  0.00  0.00    +0.096 A 
ATOM     23  C   UNL     1      -2.920   3.298 -23.373  0.00  0.00    +0.143 A 
ATOM     24  O   UNL     1      -4.062   2.819 -22.974  0.00  0.00    -0.422 OA
BRANCH  21  25
ATOM     25  O   UNL     1      -1.018   3.442 -26.234  0.00  0.00    -0.503 OA
ATOM     26  H   UNL     1      -0.877   4.187 -26.785  0.00  0.00    +0.292 HD
ENDBRANCH  21  25
ENDBRANCH  13  20
ENDBRANCH   1  13
BRANCH   3  27
ATOM     27  C   UNL     1       3.088   1.049 -24.633  0.00  0.00    +0.190 C 
BRANCH  27  28
ATOM     28  O   UNL     1       2.761   0.087 -23.824  0.00  0.00    -0.392 OA
ATOM     29  H   UNL     1       3.051  -0.761 -24.195  0.00  0.00    +0.210 HD
ENDBRANCH  27  28
ENDBRANCH   3  27
TORSDOF 8
ENDMDL
MODEL 3
REMARK VINA RESULT:    -9.625      1.552      2.142
REMARK INTER + INTRA:         -13.136
REMARK INTER:                 -12.726
REMARK INTRA:                  -0.410
REMARK UNBOUND:                -0.416
REMARK  Name = ZINC000003894276
REMARK  8 active torsions:
REMARK  status: ('A' for Active; 'I' for Inactive)
REMARK    1  A    between atoms: C_7  and  O_8
REMARK    2  A    between atoms: O_8  and  C_9
REMARK    3  A    between atoms: C_11  and  C_12
REMARK    4  A    between atoms: C_12  and  O_13
REMARK    5  A    between atoms: C_14  and  O_15
REMARK    6  A    between atoms: C_16  and  O_17
REMARK    7  A    between atoms: C_18  and  O_19
REMARK    8  A    between atoms: C_20  and  O_21
REMARK                            x       y       z     vdW  Elec       q    Type
REMARK                         _______ _______ _______ _____ _____    ______ ____
ROOT
ATOM      1  C   UNL     1       2.195   3.199 -24.624  0.00  0.00    +0.339 C 
ATOM      2  O   UNL     1       2.819   3.391 -23.500  0.00  0.00    -0.331 OA
ATOM      3  C   UNL     1       3.594   2.464 -23.020  0.00  0.00    +0.179 C 
ATOM      4  C   UNL     1       3.746   1.346 -23.664  0.00  0.00    +0.177 C 
ATOM      5  C   UNL     1       3.122   1.153 -24.789  0.00  0.00    +0.180 C 
ATOM      6  C   UNL     1       2.347   2.079 -25.269  0.00  0.00    +0.214 C 
ENDROOT
BRANCH   5   7
ATOM      7  O   UNL     1       3.274   0.034 -25.433  0.00  0.00    -0.386 OA
ATOM      8  H   UNL     1       4.212  -0.091 -25.647  0.00  0.00    +0.210 HD
ENDBRANCH   5   7
BRANCH   4   9
ATOM      9  O   UNL     1       4.521   0.419 -23.184  0.00  0.00    -0.386 OA
ATOM     10  H   UNL     1       5.406   0.786 -23.029  0.00  0.00    +0.210 HD
ENDBRANCH   4   9
BRANCH   6  11
ATOM     11  O   UNL     1       1.724   1.887 -26.393  0.00  0.00    -0.383 OA
ATOM     12  H   UNL     1       1.299   1.015 -26.382  0.00  0.00    +0.210 HD
ENDBRANCH   6  11
BRANCH   1  13
ATOM     13  O   UNL     1       1.420   4.125 -25.104  0.00  0.00    -0.457 OA
BRANCH  13  20
ATOM     14  O   UNL     1      -5.719   3.912 -23.933  0.00  0.00    -0.245 OA
ATOM     15  C   UNL     1      -4.478   3.843 -24.312  0.00  0.00    +0.337 A 
ATOM     16  C   UNL     1      -4.166   3.220 -25.409  0.00  0.00    +0.092 A 
ATOM     17  C   UNL     1      -2.924   3.152 -25.787  0.00  0.00    +0.018 A 
ATOM     18  C   UNL     1      -1.993   3.707 -25.068  0.00  0.00    +0.021 A 
ATOM     19  C   UNL     1      -0.752   3.639 -25.446  0.00  0.00    +0.061 A 
ATOM     20  C   UNL     1       0.178   4.193 -24.726  0.00  0.00    +0.166 A 
ATOM     21  C   UNL     1      -0.134   4.817 -23.629  0.00  0.00    +0.162 A 
ATOM     22  C   UNL     1      -1.376   4.885 -23.251  0.00  0.00    +0.096 A 
ATOM     23  C   UNL     1      -2.305   4.330 -23.970  0.00  0.00    +0.143 A 
ATOM     24  O   UNL     1      -3.548   4.398 -23.592  0.00  0.00    -0.422 OA
BRANCH  21  25
ATOM     25  O   UNL     1       0.795   5.372 -22.910  0.00  0.00    -0.503 OA
ATOM     26  H   UNL     1       1.201   6.165 -23.200  0.00  0.00    +0.292 HD
ENDBRANCH  21  25
ENDBRANCH  13  20
ENDBRANCH   1  13
BRANCH   3  27
ATOM     27  C   UNL     1       4.217   2.656 -21.895  0.00  0.00    +0.190 C 
BRANCH  27  28
ATOM     28  O   UNL     1       3.724   2.185 -20.790  0.00  0.00    -0.392 OA
ATOM     29  H   UNL     1       2.756   2.238 -20.819  0.00  0.00    +0.210 HD
ENDBRANCH  27  28
ENDBRANCH   3  27
TORSDOF 8
ENDMDL
MODEL 4
REMARK VINA RESULT:    -9.090      2.081      2.489
REMARK INTER + INTRA:         -12.428
REMARK INTER:                 -12.182
REMARK INTRA:                  -0.246
REMARK UNBOUND:                -0.416
REMARK  Name = ZINC000003894276
REMARK  8 active torsions:
REMARK  status: ('A' for Active; 'I' for Inactive)
REMARK    1  A    between atoms: C_7  and  O_8
REMARK    2  A    between atoms: O_8  and  C_9
REMARK    3  A    between atoms: C_11  and  C_12
REMARK    4  A    between atoms: C_12  and  O_13
REMARK    5  A    between atoms: C_14  and  O_15
REMARK    6  A    between atoms: C_16  and  O_17
REMARK    7  A    between atoms: C_18  and  O_19
REMARK    8  A    between atoms: C_20  and  O_21
REMARK                            x       y       z     vdW  Elec       q    Type
REMARK                         _______ _______ _______ _____ _____    ______ ____
ROOT
ATOM      1  C   UNL     1       2.221   2.681 -23.604  0.00  0.00    +0.339 C 
ATOM      2  O   UNL     1       1.981   3.934 -23.353  0.00  0.00    -0.331 OA
ATOM      3  C   UNL     1       2.966   4.773 -23.228  0.00  0.00    +0.179 C 
ATOM      4  C   UNL     1       4.192   4.359 -23.353  0.00  0.00    +0.177 C 
ATOM      5  C   UNL     1       4.433   3.106 -23.603  0.00  0.00    +0.180 C 
ATOM      6  C   UNL     1       3.448   2.267 -23.729  0.00  0.00    +0.214 C 
ENDROOT
BRANCH   5   7
ATOM      7  O   UNL     1       5.659   2.693 -23.728  0.00  0.00    -0.386 OA
ATOM      8  H   UNL     1       6.116   2.773 -22.876  0.00  0.00    +0.210 HD
ENDBRANCH   5   7
BRANCH   4   9
ATOM      9  O   UNL     1       5.177   5.198 -23.228  0.00  0.00    -0.386 OA
ATOM     10  H   UNL     1       4.861   6.097 -23.411  0.00  0.00    +0.210 HD
ENDBRANCH   4   9
BRANCH   6  11
ATOM     11  O   UNL     1       3.689   1.015 -23.979  0.00  0.00    -0.383 OA
ATOM     12  H   UNL     1       4.403   0.947 -24.633  0.00  0.00    +0.210 HD
ENDBRANCH   6  11
BRANCH   1  13
ATOM     13  O   UNL     1       1.236   1.842 -23.729  0.00  0.00    -0.457 OA
BRANCH  13  20
ATOM     14  O   UNL     1      -5.544   3.736 -22.045  0.00  0.00    -0.245 OA
ATOM     15  C   UNL     1      -4.317   3.320 -22.159  0.00  0.00    +0.337 A 
ATOM     16  C   UNL     1      -3.740   2.716 -21.162  0.00  0.00    +0.092 A 
ATOM     17  C   UNL     1      -2.514   2.300 -21.277  0.00  0.00    +0.018 A 
ATOM     18  C   UNL     1      -1.865   2.487 -22.388  0.00  0.00    +0.021 A 
ATOM     19  C   UNL     1      -0.639   2.071 -22.503  0.00  0.00    +0.061 A 
ATOM     20  C   UNL     1       0.010   2.258 -23.614  0.00  0.00    +0.166 A 
ATOM     21  C   UNL     1      -0.568   2.862 -24.610  0.00  0.00    +0.162 A 
ATOM     22  C   UNL     1      -1.794   3.278 -24.495  0.00  0.00    +0.096 A 
ATOM     23  C   UNL     1      -2.442   3.091 -23.385  0.00  0.00    +0.143 A 
ATOM     24  O   UNL     1      -3.669   3.507 -23.269  0.00  0.00    -0.422 OA
BRANCH  21  25
ATOM     25  O   UNL     1       0.080   3.049 -25.721  0.00  0.00    -0.503 OA
ATOM     26  H   UNL     1       0.864   3.562 -25.725  0.00  0.00    +0.292 HD
ENDBRANCH  21  25
ENDBRANCH  13  20
ENDBRANCH   1  13
BRANCH   3  27
ATOM     27  C   UNL     1       2.726   6.026 -22.978  0.00  0.00    +0.190 C 
BRANCH  27  28
ATOM     28  O   UNL     1       3.405   6.648 -22.063  0.00  0.00    -0.392 OA
ATOM     29  H   UNL     1       2.798   7.130 -21.480  0.00  0.00    +0.210 HD
ENDBRANCH  27  28
ENDBRANCH   3  27
TORSDOF 8
ENDMDL
MODEL 5
REMARK VINA RESULT:    -8.996      2.084      3.107
REMARK INTER + INTRA:         -12.304
REMARK INTER:                 -11.849
REMARK INTRA:                  -0.455
REMARK UNBOUND:                -0.416
REMARK  Name = ZINC000003894276
REMARK  8 active torsions:
REMARK  status: ('A' for Active; 'I' for Inactive)
REMARK    1  A    between atoms: C_7  and  O_8
REMARK    2  A    between atoms: O_8  and  C_9
REMARK    3  A    between atoms: C_11  and  C_12
REMARK    4  A    between atoms: C_12  and  O_13
REMARK    5  A    between atoms: C_14  and  O_15
REMARK    6  A    between atoms: C_16  and  O_17
REMARK    7  A    between atoms: C_18  and  O_19
REMARK    8  A    between atoms: C_20  and  O_21
REMARK                            x       y       z     vdW  Elec       q    Type
REMARK                         _______ _______ _______ _____ _____    ______ ____
ROOT
ATOM      1  C   UNL     1       2.128   2.252 -23.224  0.00  0.00    +0.339 C 
ATOM      2  O   UNL     1       1.880   3.528 -23.204  0.00  0.00    -0.331 OA
ATOM      3  C   UNL     1       2.860   4.381 -23.237  0.00  0.00    +0.179 C 
ATOM      4  C   UNL     1       4.088   3.959 -23.289  0.00  0.00    +0.177 C 
ATOM      5  C   UNL     1       4.337   2.682 -23.309  0.00  0.00    +0.180 C 
ATOM      6  C   UNL     1       3.356   1.829 -23.276  0.00  0.00    +0.214 C 
ENDROOT
BRANCH   5   7
ATOM      7  O   UNL     1       5.565   2.260 -23.361  0.00  0.00    -0.386 OA
ATOM      8  H   UNL     1       5.947   2.484 -24.224  0.00  0.00    +0.210 HD
ENDBRANCH   5   7
BRANCH   4   9
ATOM      9  O   UNL     1       5.068   4.812 -23.321  0.00  0.00    -0.386 OA
ATOM     10  H   UNL     1       4.941   5.478 -22.626  0.00  0.00    +0.210 HD
ENDBRANCH   4   9
BRANCH   6  11
ATOM     11  O   UNL     1       3.604   0.554 -23.296  0.00  0.00    -0.383 OA
ATOM     12  H   UNL     1       4.563   0.411 -23.342  0.00  0.00    +0.210 HD
ENDBRANCH   6  11
BRANCH   1  13
ATOM     13  O   UNL     1       1.147   1.399 -23.192  0.00  0.00    -0.457 OA
BRANCH  13  20
ATOM     14  O   UNL     1      -5.602   3.759 -22.069  0.00  0.00    -0.245 OA
ATOM     15  C   UNL     1      -4.424   3.380 -22.466  0.00  0.00    +0.337 A 
ATOM     16  C   UNL     1      -4.103   3.465 -23.723  0.00  0.00    +0.092 A 
ATOM     17  C   UNL     1      -2.924   3.086 -24.120  0.00  0.00    +0.018 A 
ATOM     18  C   UNL     1      -2.067   2.621 -23.259  0.00  0.00    +0.021 A 
ATOM     19  C   UNL     1      -0.888   2.242 -23.656  0.00  0.00    +0.061 A 
ATOM     20  C   UNL     1      -0.032   1.778 -22.795  0.00  0.00    +0.166 A 
ATOM     21  C   UNL     1      -0.353   1.693 -21.539  0.00  0.00    +0.162 A 
ATOM     22  C   UNL     1      -1.531   2.072 -21.142  0.00  0.00    +0.096 A 
ATOM     23  C   UNL     1      -2.388   2.536 -22.002  0.00  0.00    +0.143 A 
ATOM     24  O   UNL     1      -3.567   2.915 -21.606  0.00  0.00    -0.422 OA
BRANCH  21  25
ATOM     25  O   UNL     1       0.504   1.229 -20.679  0.00  0.00    -0.503 OA
ATOM     26  H   UNL     1       0.216   0.662 -19.990  0.00  0.00    +0.292 HD
ENDBRANCH  21  25
ENDBRANCH  13  20
ENDBRANCH   1  13
BRANCH   3  27
ATOM     27  C   UNL     1       2.613   5.657 -23.217  0.00  0.00    +0.190 C 
BRANCH  27  28
ATOM     28  O   UNL     1       3.126   6.405 -22.287  0.00  0.00    -0.392 OA
ATOM     29  H   UNL     1       2.700   7.277 -22.300  0.00  0.00    +0.210 HD
ENDBRANCH  27  28
ENDBRANCH   3  27
TORSDOF 8
ENDMDL
MODEL 6
REMARK VINA RESULT:    -8.917      2.153      3.511
REMARK INTER + INTRA:         -12.200
REMARK INTER:                 -11.365
REMARK INTRA:                  -0.835
REMARK UNBOUND:                -0.416
REMARK  Name = ZINC000003894276
REMARK  8 active torsions:
REMARK  status: ('A' for Active; 'I' for Inactive)
REMARK    1  A    between atoms: C_7  and  O_8
REMARK    2  A    between atoms: O_8  and  C_9
REMARK    3  A    between atoms: C_11  and  C_12
REMARK    4  A    between atoms: C_12  and  O_13
REMARK    5  A    between atoms: C_14  and  O_15
REMARK    6  A    between atoms: C_16  and  O_17
REMARK    7  A    between atoms: C_18  and  O_19
REMARK    8  A    between atoms: C_20  and  O_21
REMARK                            x       y       z     vdW  Elec       q    Type
REMARK                         _______ _______ _______ _____ _____    ______ ____
ROOT
ATOM      1  C   UNL     1       3.728   1.688 -22.585  0.00  0.00    +0.339 C 
ATOM      2  O   UNL     1       4.259   2.798 -23.005  0.00  0.00    -0.331 OA
ATOM      3  C   UNL     1       5.237   3.341 -22.344  0.00  0.00    +0.179 C 
ATOM      4  C   UNL     1       5.685   2.775 -21.263  0.00  0.00    +0.177 C 
ATOM      5  C   UNL     1       5.154   1.664 -20.842  0.00  0.00    +0.180 C 
ATOM      6  C   UNL     1       4.176   1.121 -21.503  0.00  0.00    +0.214 C 
ENDROOT
BRANCH   5   7
ATOM      7  O   UNL     1       5.602   1.098 -19.761  0.00  0.00    -0.386 OA
ATOM      8  H   UNL     1       6.428   0.629 -19.960  0.00  0.00    +0.210 HD
ENDBRANCH   5   7
BRANCH   4   9
ATOM      9  O   UNL     1       6.664   3.318 -20.602  0.00  0.00    -0.386 OA
ATOM     10  H   UNL     1       6.778   4.238 -20.890  0.00  0.00    +0.210 HD
ENDBRANCH   4   9
BRANCH   6  11
ATOM     11  O   UNL     1       3.645   0.012 -21.083  0.00  0.00    -0.383 OA
ATOM     12  H   UNL     1       4.344  -0.642 -20.926  0.00  0.00    +0.210 HD
ENDBRANCH   6  11
BRANCH   1  13
ATOM     13  O   UNL     1       2.749   1.145 -23.246  0.00  0.00    -0.457 OA
BRANCH  13  20
ATOM     14  O   UNL     1      -3.890   3.888 -22.355  0.00  0.00    -0.245 OA
ATOM     15  C   UNL     1      -2.724   3.313 -22.330  0.00  0.00    +0.337 A 
ATOM     16  C   UNL     1      -2.367   2.609 -21.297  0.00  0.00    +0.092 A 
ATOM     17  C   UNL     1      -1.201   2.035 -21.274  0.00  0.00    +0.018 A 
ATOM     18  C   UNL     1      -0.392   2.164 -22.283  0.00  0.00    +0.021 A 
ATOM     19  C   UNL     1       0.774   1.590 -22.260  0.00  0.00    +0.061 A 
ATOM     20  C   UNL     1       1.583   1.719 -23.269  0.00  0.00    +0.166 A 
ATOM     21  C   UNL     1       1.226   2.423 -24.302  0.00  0.00    +0.162 A 
ATOM     22  C   UNL     1       0.060   2.998 -24.326  0.00  0.00    +0.096 A 
ATOM     23  C   UNL     1      -0.749   2.868 -23.316  0.00  0.00    +0.143 A 
ATOM     24  O   UNL     1      -1.915   3.443 -23.340  0.00  0.00    -0.422 OA
BRANCH  21  25
ATOM     25  O   UNL     1       2.034   2.553 -25.311  0.00  0.00    -0.503 OA
ATOM     26  H   UNL     1       1.934   3.273 -25.902  0.00  0.00    +0.292 HD
ENDBRANCH  21  25
ENDBRANCH  13  20
ENDBRANCH   1  13
BRANCH   3  27
ATOM     27  C   UNL     1       5.769   4.451 -22.763  0.00  0.00    +0.190 C 
BRANCH  27  28
ATOM     28  O   UNL     1       5.623   5.543 -22.075  0.00  0.00    -0.392 OA
ATOM     29  H   UNL     1       4.853   6.032 -22.404  0.00  0.00    +0.210 HD
ENDBRANCH  27  28
ENDBRANCH   3  27
TORSDOF 8
ENDMDL
MODEL 7
REMARK VINA RESULT:    -8.715      1.655      6.415
REMARK INTER + INTRA:         -11.933
REMARK INTER:                 -11.363
REMARK INTRA:                  -0.571
REMARK UNBOUND:                -0.416
REMARK  Name = ZINC000003894276
REMARK  8 active torsions:
REMARK  status: ('A' for Active; 'I' for Inactive)
REMARK    1  A    between atoms: C_7  and  O_8
REMARK    2  A    between atoms: O_8  and  C_9
REMARK    3  A    between atoms: C_11  and  C_12
REMARK    4  A    between atoms: C_12  and  O_13
REMARK    5  A    between atoms: C_14  and  O_15
REMARK    6  A    between atoms: C_16  and  O_17
REMARK    7  A    between atoms: C_18  and  O_19
REMARK    8  A    between atoms: C_20  and  O_21
REMARK                            x       y       z     vdW  Elec       q    Type
REMARK                         _______ _______ _______ _____ _____    ______ ____
ROOT
ATOM      1  C   UNL     1      -1.488   3.594 -24.036  0.00  0.00    +0.339 C 
ATOM      2  O   UNL     1      -1.602   3.544 -22.742  0.00  0.00    -0.331 OA
ATOM      3  C   UNL     1      -2.779   3.474 -22.196  0.00  0.00    +0.179 C 
ATOM      4  C   UNL     1      -3.843   3.453 -22.943  0.00  0.00    +0.177 C 
ATOM      5  C   UNL     1      -3.729   3.503 -24.237  0.00  0.00    +0.180 C 
ATOM      6  C   UNL     1      -2.552   3.574 -24.784  0.00  0.00    +0.214 C 
ENDROOT
BRANCH   5   7
ATOM      7  O   UNL     1      -4.793   3.483 -24.984  0.00  0.00    -0.386 OA
ATOM      8  H   UNL     1      -5.333   2.710 -24.756  0.00  0.00    +0.210 HD
ENDBRANCH   5   7
BRANCH   4   9
ATOM      9  O   UNL     1      -5.020   3.382 -22.396  0.00  0.00    -0.386 OA
ATOM     10  H   UNL     1      -4.925   3.275 -21.436  0.00  0.00    +0.210 HD
ENDBRANCH   4   9
BRANCH   6  11
ATOM     11  O   UNL     1      -2.438   3.624 -26.078  0.00  0.00    -0.383 OA
ATOM     12  H   UNL     1      -2.696   2.770 -26.458  0.00  0.00    +0.210 HD
ENDBRANCH   6  11
BRANCH   1  13
ATOM     13  O   UNL     1      -0.311   3.665 -24.583  0.00  0.00    -0.457 OA
BRANCH  13  20
ATOM     14  O   UNL     1       5.244   1.188 -20.658  0.00  0.00    -0.245 OA
ATOM     15  C   UNL     1       4.183   1.440 -21.366  0.00  0.00    +0.337 A 
ATOM     16  C   UNL     1       3.371   0.476 -21.686  0.00  0.00    +0.092 A 
ATOM     17  C   UNL     1       2.310   0.728 -22.394  0.00  0.00    +0.018 A 
ATOM     18  C   UNL     1       2.060   1.945 -22.781  0.00  0.00    +0.021 A 
ATOM     19  C   UNL     1       1.000   2.197 -23.488  0.00  0.00    +0.061 A 
ATOM     20  C   UNL     1       0.751   3.412 -23.875  0.00  0.00    +0.166 A 
ATOM     21  C   UNL     1       1.562   4.376 -23.555  0.00  0.00    +0.162 A 
ATOM     22  C   UNL     1       2.623   4.124 -22.847  0.00  0.00    +0.096 A 
ATOM     23  C   UNL     1       2.872   2.908 -22.461  0.00  0.00    +0.143 A 
ATOM     24  O   UNL     1       3.934   2.655 -21.753  0.00  0.00    -0.422 OA
BRANCH  21  25
ATOM     25  O   UNL     1       1.313   5.592 -23.942  0.00  0.00    -0.503 OA
ATOM     26  H   UNL     1       0.861   5.743 -24.748  0.00  0.00    +0.292 HD
ENDBRANCH  21  25
ENDBRANCH  13  20
ENDBRANCH   1  13
BRANCH   3  27
ATOM     27  C   UNL     1      -2.894   3.423 -20.902  0.00  0.00    +0.190 C 
BRANCH  27  28
ATOM     28  O   UNL     1      -3.333   4.456 -20.247  0.00  0.00    -0.392 OA
ATOM     29  H   UNL     1      -2.612   4.836 -19.720  0.00  0.00    +0.210 HD
ENDBRANCH  27  28
ENDBRANCH   3  27
TORSDOF 8
ENDMDL
MODEL 8
REMARK VINA RESULT:    -8.681      2.262      3.918
REMARK INTER + INTRA:         -11.888
REMARK INTER:                 -11.166
REMARK INTRA:                  -0.722
REMARK UNBOUND:                -0.416
REMARK  Name = ZINC000003894276
REMARK  8 active torsions:
REMARK  status: ('A' for Active; 'I' for Inactive)
REMARK    1  A    between atoms: C_7  and  O_8
REMARK    2  A    between atoms: O_8  and  C_9
REMARK    3  A    between atoms: C_11  and  C_12
REMARK    4  A    between atoms: C_12  and  O_13
REMARK    5  A    between atoms: C_14  and  O_15
REMARK    6  A    between atoms: C_16  and  O_17
REMARK    7  A    between atoms: C_18  and  O_19
REMARK    8  A    between atoms: C_20  and  O_21
REMARK                            x       y       z     vdW  Elec       q    Type
REMARK                         _______ _______ _______ _____ _____    ______ ____
ROOT
ATOM      1  C   UNL     1       3.194   1.443 -22.215  0.00  0.00    +0.339 C 
ATOM      2  O   UNL     1       3.607   2.483 -22.875  0.00  0.00    -0.331 OA
ATOM      3  C   UNL     1       4.716   3.071 -22.536  0.00  0.00    +0.179 C 
ATOM      4  C   UNL     1       5.412   2.619 -21.536  0.00  0.00    +0.177 C 
ATOM      5  C   UNL     1       4.999   1.577 -20.874  0.00  0.00    +0.180 C 
ATOM      6  C   UNL     1       3.891   0.990 -21.214  0.00  0.00    +0.214 C 
ENDROOT
BRANCH   5   7
ATOM      7  O   UNL     1       5.695   1.125 -19.874  0.00  0.00    -0.386 OA
ATOM      8  H   UNL     1       6.182   0.332 -20.151  0.00  0.00    +0.210 HD
ENDBRANCH   5   7
BRANCH   4   9
ATOM      9  O   UNL     1       6.520   3.206 -21.196  0.00  0.00    -0.386 OA
ATOM     10  H   UNL     1       7.269   2.619 -21.388  0.00  0.00    +0.210 HD
ENDBRANCH   4   9
BRANCH   6  11
ATOM     11  O   UNL     1       3.478  -0.051 -20.553  0.00  0.00    -0.383 OA
ATOM     12  H   UNL     1       3.956  -0.109 -19.711  0.00  0.00    +0.210 HD
ENDBRANCH   6  11
BRANCH   1  13
ATOM     13  O   UNL     1       2.086   0.855 -22.554  0.00  0.00    -0.457 OA
BRANCH  13  20
ATOM     14  O   UNL     1      -3.675   4.884 -24.279  0.00  0.00    -0.245 OA
ATOM     15  C   UNL     1      -2.581   4.190 -24.162  0.00  0.00    +0.337 A 
ATOM     16  C   UNL     1      -1.782   4.058 -25.179  0.00  0.00    +0.092 A 
ATOM     17  C   UNL     1      -0.689   3.365 -25.061  0.00  0.00    +0.018 A 
ATOM     18  C   UNL     1      -0.395   2.803 -23.925  0.00  0.00    +0.021 A 
ATOM     19  C   UNL     1       0.698   2.110 -23.807  0.00  0.00    +0.061 A 
ATOM     20  C   UNL     1       0.992   1.549 -22.673  0.00  0.00    +0.166 A 
ATOM     21  C   UNL     1       0.193   1.681 -21.656  0.00  0.00    +0.162 A 
ATOM     22  C   UNL     1      -0.900   2.374 -21.774  0.00  0.00    +0.096 A 
ATOM     23  C   UNL     1      -1.194   2.935 -22.909  0.00  0.00    +0.143 A 
ATOM     24  O   UNL     1      -2.287   3.629 -23.027  0.00  0.00    -0.422 OA
BRANCH  21  25
ATOM     25  O   UNL     1       0.487   1.120 -20.521  0.00  0.00    -0.503 OA
ATOM     26  H   UNL     1       0.418   0.190 -20.426  0.00  0.00    +0.292 HD
ENDBRANCH  21  25
ENDBRANCH  13  20
ENDBRANCH   1  13
BRANCH   3  27
ATOM     27  C   UNL     1       5.129   4.112 -23.196  0.00  0.00    +0.190 C 
BRANCH  27  28
ATOM     28  O   UNL     1       4.948   5.304 -22.711  0.00  0.00    -0.392 OA
ATOM     29  H   UNL     1       4.005   5.528 -22.747  0.00  0.00    +0.210 HD
ENDBRANCH  27  28
ENDBRANCH   3  27
TORSDOF 8
ENDMDL
MODEL 9
REMARK VINA RESULT:    -8.546      2.119      6.957
REMARK INTER + INTRA:         -11.709
REMARK INTER:                 -11.294
REMARK INTRA:                  -0.416
REMARK UNBOUND:                -0.416
REMARK  Name = ZINC000003894276
REMARK  8 active torsions:
REMARK  status: ('A' for Active; 'I' for Inactive)
REMARK    1  A    between atoms: C_7  and  O_8
REMARK    2  A    between atoms: O_8  and  C_9
REMARK    3  A    between atoms: C_11  and  C_12
REMARK    4  A    between atoms: C_12  and  O_13
REMARK    5  A    between atoms: C_14  and  O_15
REMARK    6  A    between atoms: C_16  and  O_17
REMARK    7  A    between atoms: C_18  and  O_19
REMARK    8  A    between atoms: C_20  and  O_21
REMARK                            x       y       z     vdW  Elec       q    Type
REMARK                         _______ _______ _______ _____ _____    ______ ____
ROOT
ATOM      1  C   UNL     1      -2.681   2.800 -23.318  0.00  0.00    +0.339 C 
ATOM      2  O   UNL     1      -2.357   2.956 -24.567  0.00  0.00    -0.331 OA
ATOM      3  C   UNL     1      -3.198   3.504 -25.393  0.00  0.00    +0.179 C 
ATOM      4  C   UNL     1      -4.363   3.896 -24.970  0.00  0.00    +0.177 C 
ATOM      5  C   UNL     1      -4.687   3.740 -23.720  0.00  0.00    +0.180 C 
ATOM      6  C   UNL     1      -3.846   3.191 -22.894  0.00  0.00    +0.214 C 
ENDROOT
BRANCH   5   7
ATOM      7  O   UNL     1      -5.852   4.132 -23.297  0.00  0.00    -0.386 OA
ATOM      8  H   UNL     1      -5.948   5.085 -23.450  0.00  0.00    +0.210 HD
ENDBRANCH   5   7
BRANCH   4   9
ATOM      9  O   UNL     1      -5.204   4.444 -25.796  0.00  0.00    -0.386 OA
ATOM     10  H   UNL     1      -6.012   3.908 -25.838  0.00  0.00    +0.210 HD
ENDBRANCH   4   9
BRANCH   6  11
ATOM     11  O   UNL     1      -4.170   3.035 -21.646  0.00  0.00    -0.383 OA
ATOM     12  H   UNL     1      -4.870   2.366 -21.574  0.00  0.00    +0.210 HD
ENDBRANCH   6  11
BRANCH   1  13
ATOM     13  O   UNL     1      -1.840   2.251 -22.492  0.00  0.00    -0.457 OA
BRANCH  13  20
ATOM     14  O   UNL     1       4.883   4.831 -23.227  0.00  0.00    -0.245 OA
ATOM     15  C   UNL     1       3.615   4.556 -23.142  0.00  0.00    +0.337 A 
ATOM     16  C   UNL     1       2.732   5.484 -23.364  0.00  0.00    +0.092 A 
ATOM     17  C   UNL     1       1.465   5.209 -23.279  0.00  0.00    +0.018 A 
ATOM     18  C   UNL     1       1.080   4.005 -22.971  0.00  0.00    +0.021 A 
ATOM     19  C   UNL     1      -0.187   3.730 -22.886  0.00  0.00    +0.061 A 
ATOM     20  C   UNL     1      -0.572   2.527 -22.578  0.00  0.00    +0.166 A 
ATOM     21  C   UNL     1       0.311   1.599 -22.355  0.00  0.00    +0.162 A 
ATOM     22  C   UNL     1       1.579   1.874 -22.441  0.00  0.00    +0.096 A 
ATOM     23  C   UNL     1       1.963   3.077 -22.748  0.00  0.00    +0.143 A 
ATOM     24  O   UNL     1       3.231   3.353 -22.834  0.00  0.00    -0.422 OA
BRANCH  21  25
ATOM     25  O   UNL     1      -0.073   0.396 -22.048  0.00  0.00    -0.503 OA
ATOM     26  H   UNL     1      -0.803   0.010 -22.491  0.00  0.00    +0.292 HD
ENDBRANCH  21  25
ENDBRANCH  13  20
ENDBRANCH   1  13
BRANCH   3  27
ATOM     27  C   UNL     1      -2.875   3.661 -26.643  0.00  0.00    +0.190 C 
BRANCH  27  28
ATOM     28  O   UNL     1      -3.634   3.173 -27.577  0.00  0.00    -0.392 OA
ATOM     29  H   UNL     1      -3.125   2.543 -28.111  0.00  0.00    +0.210 HD
ENDBRANCH  27  28
ENDBRANCH   3  27
TORSDOF 8
ENDMDL
