MODEL 1
REMARK VINA RESULT:   -10.952      0.000      0.000
REMARK INTER + INTRA:         -10.906
REMARK INTER:                 -11.753
REMARK INTRA:                   0.847
REMARK UNBOUND:                 1.006
REMARK  Name = ZINC000005510156
REMARK  6 active torsions:
REMARK  status: ('A' for Active; 'I' for Inactive)
REMARK    1  A    between atoms: C_1  and  O_2
REMARK    2  A    between atoms: O_2  and  C_3
REMARK    3  A    between atoms: C_11  and  O_12
REMARK    4  A    between atoms: O_12  and  C_13
REMARK    5  A    between atoms: C_14  and  O_15
REMARK    6  A    between atoms: N_20  and  C_21
REMARK                            x       y       z     vdW  Elec       q    Type
REMARK                         _______ _______ _______ _____ _____    ______ ____
ROOT
ATOM      1  C   UNL     1      -2.358   3.514 -25.089  0.00  0.00    +0.159 C 
ATOM      2  C   UNL     1      -3.070   3.446 -24.443  0.00  0.00    +0.032 C 
ATOM      3  C   UNL     1      -2.902   3.127 -22.975  0.00  0.00    +0.075 C 
ATOM      4  C   UNL     1      -3.793   3.228 -23.068  0.00  0.00    +0.076 C 
ATOM      5  C   UNL     1      -3.671   3.411 -24.008  0.00  0.00    +0.090 C 
ATOM      6  C   UNL     1      -2.036   3.290 -24.146  0.00  0.00    -0.035 A 
ATOM      7  C   UNL     1      -0.860   3.415 -25.276  0.00  0.00    +0.008 A 
ATOM      8  C   UNL     1       0.307   3.242 -24.955  0.00  0.00    +0.049 A 
ATOM      9  C   UNL     1       0.587   2.969 -23.756  0.00  0.00    +0.162 A 
ATOM     10  C   UNL     1      -0.348   2.867 -22.852  0.00  0.00    +0.163 A 
ATOM     11  C   UNL     1      -1.616   3.044 -23.146  0.00  0.00    +0.009 A 
ATOM     12  N   UNL     1      -4.417   3.061 -21.981  0.00  0.00    +0.236 N 
ATOM     13  H   UNL     1      -5.432   3.149 -21.956  0.00  0.00    +0.203 HD
ATOM     14  C   UNL     1      -5.672   3.159 -21.898  0.00  0.00    +0.190 C 
ATOM     15  C   UNL     1      -3.661   2.775 -20.934  0.00  0.00    +0.132 C 
ATOM     16  C   UNL     1      -2.373   2.705 -21.167  0.00  0.00    +0.064 C 
ATOM     17  C   UNL     1      -2.051   2.919 -22.346  0.00  0.00    +0.023 C 
ATOM     18  C   UNL     1      -0.947   3.034 -23.390  0.00  0.00    +0.095 C 
ATOM     19  C   UNL     1      -1.369   3.365 -24.806  0.00  0.00    +0.198 C 
ATOM     20  O   UNL     1      -2.412   3.794 -26.420  0.00  0.00    -0.289 OA
ENDROOT
BRANCH   1  22
ATOM     21  C   UNL     1      -3.290   3.475 -27.557  0.00  0.00    +0.277 C 
ATOM     22  O   UNL     1      -3.514   3.842 -26.163  0.00  0.00    -0.492 OA
ENDBRANCH   1  22
BRANCH  10  23
ATOM     23  O   UNL     1       0.564   2.628 -22.095  0.00  0.00    -0.503 OA
ATOM     24  H   UNL     1       0.421   2.076 -21.351  0.00  0.00    +0.292 HD
ENDBRANCH  10  23
BRANCH   9  25
ATOM     25  O   UNL     1       1.792   2.764 -23.302  0.00  0.00    -0.491 OA
ATOM     26  C   UNL     1       2.830   2.856 -23.969  0.00  0.00    +0.277 C 
ENDBRANCH   9  25
TORSDOF 3
ENDMDL
MODEL 2
REMARK VINA RESULT:   -10.726      1.695      3.363
REMARK INTER + INTRA:         -10.660
REMARK INTER:                 -11.561
REMARK INTRA:                   0.901
REMARK UNBOUND:                 1.006
REMARK  Name = ZINC000005510156
REMARK  6 active torsions:
REMARK  status: ('A' for Active; 'I' for Inactive)
REMARK    1  A    between atoms: C_1  and  O_2
REMARK    2  A    between atoms: O_2  and  C_3
REMARK    3  A    between atoms: C_11  and  O_12
REMARK    4  A    between atoms: O_12  and  C_13
REMARK    5  A    between atoms: C_14  and  O_15
REMARK    6  A    between atoms: N_20  and  C_21
REMARK                            x       y       z     vdW  Elec       q    Type
REMARK                         _______ _______ _______ _____ _____    ______ ____
ROOT
ATOM      1  C   UNL     1      -2.446   2.860 -21.905  0.00  0.00    +0.159 C 
ATOM      2  C   UNL     1      -3.102   3.141 -22.552  0.00  0.00    +0.032 C 
ATOM      3  C   UNL     1      -2.875   3.266 -24.041  0.00  0.00    +0.075 C 
ATOM      4  C   UNL     1      -3.736   3.511 -23.938  0.00  0.00    +0.076 C 
ATOM      5  C   UNL     1      -3.661   3.365 -22.987  0.00  0.00    +0.090 C 
ATOM      6  C   UNL     1      -2.094   2.879 -22.863  0.00  0.00    -0.035 A 
ATOM      7  C   UNL     1      -1.012   2.408 -21.731  0.00  0.00    +0.008 A 
ATOM      8  C   UNL     1       0.124   2.111 -22.068  0.00  0.00    +0.049 A 
ATOM      9  C   UNL     1       0.447   2.172 -23.286  0.00  0.00    +0.162 A 
ATOM     10  C   UNL     1      -0.412   2.547 -24.192  0.00  0.00    +0.163 A 
ATOM     11  C   UNL     1      -1.645   2.877 -23.882  0.00  0.00    +0.009 A 
ATOM     12  N   UNL     1      -4.288   3.819 -25.033  0.00  0.00    +0.236 N 
ATOM     13  H   UNL     1      -5.264   4.113 -25.048  0.00  0.00    +0.203 HD
ATOM     14  C   UNL     1      -5.492   4.189 -25.105  0.00  0.00    +0.190 C 
ATOM     15  C   UNL     1      -3.515   3.725 -26.101  0.00  0.00    +0.132 C 
ATOM     16  C   UNL     1      -2.286   3.328 -25.879  0.00  0.00    +0.064 C 
ATOM     17  C   UNL     1      -2.029   3.096 -24.688  0.00  0.00    +0.023 C 
ATOM     18  C   UNL     1      -1.012   2.656 -23.640  0.00  0.00    +0.095 C 
ATOM     19  C   UNL     1      -1.481   2.609 -22.202  0.00  0.00    +0.198 C 
ATOM     20  O   UNL     1      -2.556   2.718 -20.556  0.00  0.00    -0.289 OA
ENDROOT
BRANCH   1  22
ATOM     21  C   UNL     1      -3.265   3.734 -19.554  0.00  0.00    +0.277 C 
ATOM     22  O   UNL     1      -3.605   3.065 -20.805  0.00  0.00    -0.492 OA
ENDBRANCH   1  22
BRANCH  10  23
ATOM     23  O   UNL     1       0.499   2.375 -24.968  0.00  0.00    -0.503 OA
ATOM     24  H   UNL     1       0.675   1.516 -25.298  0.00  0.00    +0.292 HD
ENDBRANCH  10  23
BRANCH   9  25
ATOM     25  O   UNL     1       1.627   1.880 -23.758  0.00  0.00    -0.491 OA
ATOM     26  C   UNL     1       2.580   1.462 -23.088  0.00  0.00    +0.277 C 
ENDBRANCH   9  25
TORSDOF 3
ENDMDL
MODEL 3
REMARK VINA RESULT:   -10.324      1.982      4.353
REMARK INTER + INTRA:         -10.223
REMARK INTER:                 -11.102
REMARK INTRA:                   0.879
REMARK UNBOUND:                 1.006
REMARK  Name = ZINC000005510156
REMARK  6 active torsions:
REMARK  status: ('A' for Active; 'I' for Inactive)
REMARK    1  A    between atoms: C_1  and  O_2
REMARK    2  A    between atoms: O_2  and  C_3
REMARK    3  A    between atoms: C_11  and  O_12
REMARK    4  A    between atoms: O_12  and  C_13
REMARK    5  A    between atoms: C_14  and  O_15
REMARK    6  A    between atoms: N_20  and  C_21
REMARK                            x       y       z     vdW  Elec       q    Type
REMARK                         _______ _______ _______ _____ _____    ______ ____
ROOT
ATOM      1  C   UNL     1      -2.625   2.624 -22.208  0.00  0.00    +0.159 C 
ATOM      2  C   UNL     1      -1.775   2.390 -21.820  0.00  0.00    +0.032 C 
ATOM      3  C   UNL     1      -0.454   2.341 -22.553  0.00  0.00    +0.075 C 
ATOM      4  C   UNL     1      -0.236   2.106 -21.710  0.00  0.00    +0.076 C 
ATOM      5  C   UNL     1      -1.161   2.200 -21.448  0.00  0.00    +0.090 C 
ATOM      6  C   UNL     1      -1.850   2.651 -22.872  0.00  0.00    -0.035 A 
ATOM      7  C   UNL     1      -3.314   3.041 -23.490  0.00  0.00    +0.008 A 
ATOM      8  C   UNL     1      -3.411   3.336 -24.672  0.00  0.00    +0.049 A 
ATOM      9  C   UNL     1      -2.381   3.335 -25.399  0.00  0.00    +0.162 A 
ATOM     10  C   UNL     1      -1.212   3.024 -24.911  0.00  0.00    +0.163 A 
ATOM     11  C   UNL     1      -1.054   2.700 -23.648  0.00  0.00    +0.009 A 
ATOM     12  N   UNL     1       0.998   1.868 -21.576  0.00  0.00    +0.236 N 
ATOM     13  H   UNL     1       1.369   1.592 -20.667  0.00  0.00    +0.203 HD
ATOM     14  C   UNL     1       1.506   1.523 -20.473  0.00  0.00    +0.190 C 
ATOM     15  C   UNL     1       1.723   2.004 -22.673  0.00  0.00    +0.132 C 
ATOM     16  C   UNL     1       1.064   2.368 -23.746  0.00  0.00    +0.064 C 
ATOM     17  C   UNL     1      -0.154   2.530 -23.571  0.00  0.00    +0.023 C 
ATOM     18  C   UNL     1      -1.513   2.896 -24.157  0.00  0.00    +0.095 C 
ATOM     19  C   UNL     1      -2.698   2.874 -23.215  0.00  0.00    +0.198 C 
ATOM     20  O   UNL     1      -3.857   2.696 -21.633  0.00  0.00    -0.289 OA
ENDROOT
BRANCH   1  22
ATOM     21  C   UNL     1      -4.685   2.255 -20.602  0.00  0.00    +0.277 C 
ATOM     22  O   UNL     1      -3.239   2.381 -20.738  0.00  0.00    -0.492 OA
ENDBRANCH   1  22
BRANCH  10  23
ATOM     23  O   UNL     1      -0.813   3.221 -26.035  0.00  0.00    -0.503 OA
ATOM     24  H   UNL     1      -0.905   4.070 -26.421  0.00  0.00    +0.292 HD
ENDBRANCH  10  23
BRANCH   9  25
ATOM     25  O   UNL     1      -2.367   3.631 -26.669  0.00  0.00    -0.491 OA
ATOM     26  C   UNL     1      -3.344   3.570 -27.426  0.00  0.00    +0.277 C 
ENDBRANCH   9  25
TORSDOF 3
ENDMDL
MODEL 4
REMARK VINA RESULT:   -10.204      1.263      3.716
REMARK INTER + INTRA:         -10.092
REMARK INTER:                 -10.946
REMARK INTRA:                   0.853
REMARK UNBOUND:                 1.006
REMARK  Name = ZINC000005510156
REMARK  6 active torsions:
REMARK  status: ('A' for Active; 'I' for Inactive)
REMARK    1  A    between atoms: C_1  and  O_2
REMARK    2  A    between atoms: O_2  and  C_3
REMARK    3  A    between atoms: C_11  and  O_12
REMARK    4  A    between atoms: O_12  and  C_13
REMARK    5  A    between atoms: C_14  and  O_15
REMARK    6  A    between atoms: N_20  and  C_21
REMARK                            x       y       z     vdW  Elec       q    Type
REMARK                         _______ _______ _______ _____ _____    ______ ____
ROOT
ATOM      1  C   UNL     1      -1.051   3.828 -23.703  0.00  0.00    +0.159 C 
ATOM      2  C   UNL     1      -1.492   3.811 -22.848  0.00  0.00    +0.032 C 
ATOM      3  C   UNL     1      -2.975   3.618 -22.624  0.00  0.00    +0.075 C 
ATOM      4  C   UNL     1      -2.645   3.706 -21.789  0.00  0.00    +0.076 C 
ATOM      5  C   UNL     1      -1.758   3.810 -22.154  0.00  0.00    +0.090 C 
ATOM      6  C   UNL     1      -2.059   3.686 -23.766  0.00  0.00    -0.035 A 
ATOM      7  C   UNL     1      -1.268   3.721 -25.197  0.00  0.00    +0.008 A 
ATOM      8  C   UNL     1      -1.894   3.581 -26.237  0.00  0.00    +0.049 A 
ATOM      9  C   UNL     1      -3.143   3.411 -26.192  0.00  0.00    +0.162 A 
ATOM     10  C   UNL     1      -3.779   3.382 -25.053  0.00  0.00    +0.163 A 
ATOM     11  C   UNL     1      -3.152   3.527 -23.908  0.00  0.00    +0.009 A 
ATOM     12  N   UNL     1      -3.543   3.628 -20.902  0.00  0.00    +0.236 N 
ATOM     13  H   UNL     1      -3.296   3.713 -19.917  0.00  0.00    +0.203 HD
ATOM     14  C   UNL     1      -3.289   3.727 -19.670  0.00  0.00    +0.190 C 
ATOM     15  C   UNL     1      -4.770   3.435 -21.356  0.00  0.00    +0.132 C 
ATOM     16  C   UNL     1      -4.887   3.352 -22.658  0.00  0.00    +0.064 C 
ATOM     17  C   UNL     1      -3.818   3.467 -23.278  0.00  0.00    +0.023 C 
ATOM     18  C   UNL     1      -3.091   3.499 -24.618  0.00  0.00    +0.095 C 
ATOM     19  C   UNL     1      -1.592   3.708 -24.583  0.00  0.00    +0.198 C 
ATOM     20  O   UNL     1       0.267   3.995 -24.002  0.00  0.00    -0.289 OA
ENDROOT
BRANCH   1  22
ATOM     21  C   UNL     1       1.391   4.809 -23.503  0.00  0.00    +0.277 C 
ATOM     22  O   UNL     1       0.310   4.059 -22.872  0.00  0.00    -0.492 OA
ENDBRANCH   1  22
BRANCH  10  23
ATOM     23  O   UNL     1      -4.763   3.210 -25.733  0.00  0.00    -0.503 OA
ATOM     24  H   UNL     1      -4.935   2.367 -26.103  0.00  0.00    +0.292 HD
ENDBRANCH  10  23
BRANCH   9  25
ATOM     25  O   UNL     1      -3.910   3.251 -27.235  0.00  0.00    -0.491 OA
ATOM     26  C   UNL     1      -3.547   3.372 -28.412  0.00  0.00    +0.277 C 
ENDBRANCH   9  25
TORSDOF 3
ENDMDL
MODEL 5
REMARK VINA RESULT:   -10.053      2.818      5.824
REMARK INTER + INTRA:          -9.928
REMARK INTER:                 -10.779
REMARK INTRA:                   0.851
REMARK UNBOUND:                 1.006
REMARK  Name = ZINC000005510156
REMARK  6 active torsions:
REMARK  status: ('A' for Active; 'I' for Inactive)
REMARK    1  A    between atoms: C_1  and  O_2
REMARK    2  A    between atoms: O_2  and  C_3
REMARK    3  A    between atoms: C_11  and  O_12
REMARK    4  A    between atoms: O_12  and  C_13
REMARK    5  A    between atoms: C_14  and  O_15
REMARK    6  A    between atoms: N_20  and  C_21
REMARK                            x       y       z     vdW  Elec       q    Type
REMARK                         _______ _______ _______ _____ _____    ______ ____
ROOT
ATOM      1  C   UNL     1       2.567   4.625 -23.093  0.00  0.00    +0.159 C 
ATOM      2  C   UNL     1       3.138   3.888 -22.852  0.00  0.00    +0.032 C 
ATOM      3  C   UNL     1       2.728   2.434 -22.801  0.00  0.00    +0.075 C 
ATOM      4  C   UNL     1       3.597   2.417 -22.560  0.00  0.00    +0.076 C 
ATOM      5  C   UNL     1       3.640   3.376 -22.656  0.00  0.00    +0.090 C 
ATOM      6  C   UNL     1       2.099   3.719 -23.119  0.00  0.00    -0.035 A 
ATOM      7  C   UNL     1       1.164   5.000 -23.521  0.00  0.00    +0.008 A 
ATOM      8  C   UNL     1      -0.006   4.822 -23.823  0.00  0.00    +0.049 A 
ATOM      9  C   UNL     1      -0.478   3.653 -23.821  0.00  0.00    +0.162 A 
ATOM     10  C   UNL     1       0.263   2.628 -23.501  0.00  0.00    +0.163 A 
ATOM     11  C   UNL     1       1.527   2.765 -23.169  0.00  0.00    +0.009 A 
ATOM     12  N   UNL     1       4.009   1.247 -22.314  0.00  0.00    +0.236 N 
ATOM     13  H   UNL     1       4.976   1.096 -22.030  0.00  0.00    +0.203 HD
ATOM     14  C   UNL     1       5.196   1.007 -21.960  0.00  0.00    +0.190 C 
ATOM     15  C   UNL     1       3.108   0.290 -22.453  0.00  0.00    +0.132 C 
ATOM     16  C   UNL     1       1.915   0.683 -22.826  0.00  0.00    +0.064 C 
ATOM     17  C   UNL     1       1.807   1.908 -22.994  0.00  0.00    +0.023 C 
ATOM     18  C   UNL     1       0.928   3.095 -23.371  0.00  0.00    +0.095 C 
ATOM     19  C   UNL     1       1.572   4.464 -23.349  0.00  0.00    +0.198 C 
ATOM     20  O   UNL     1       2.844   5.956 -23.168  0.00  0.00    -0.289 OA
ENDROOT
BRANCH   1  22
ATOM     21  C   UNL     1       3.644   6.917 -22.353  0.00  0.00    +0.277 C 
ATOM     22  O   UNL     1       3.855   5.561 -22.845  0.00  0.00    -0.492 OA
ENDBRANCH   1  22
BRANCH  10  23
ATOM     23  O   UNL     1      -0.738   1.981 -23.703  0.00  0.00    -0.503 OA
ATOM     24  H   UNL     1      -0.851   1.538 -24.521  0.00  0.00    +0.292 HD
ENDBRANCH  10  23
BRANCH   9  25
ATOM     25  O   UNL     1      -1.708   3.346 -24.125  0.00  0.00    -0.491 OA
ATOM     26  C   UNL     1      -2.601   4.161 -24.393  0.00  0.00    +0.277 C 
ENDBRANCH   9  25
TORSDOF 3
ENDMDL
MODEL 6
REMARK VINA RESULT:   -10.001      1.738      2.666
REMARK INTER + INTRA:          -9.871
REMARK INTER:                 -10.725
REMARK INTRA:                   0.853
REMARK UNBOUND:                 1.006
REMARK  Name = ZINC000005510156
REMARK  6 active torsions:
REMARK  status: ('A' for Active; 'I' for Inactive)
REMARK    1  A    between atoms: C_1  and  O_2
REMARK    2  A    between atoms: O_2  and  C_3
REMARK    3  A    between atoms: C_11  and  O_12
REMARK    4  A    between atoms: O_12  and  C_13
REMARK    5  A    between atoms: C_14  and  O_15
REMARK    6  A    between atoms: N_20  and  C_21
REMARK                            x       y       z     vdW  Elec       q    Type
REMARK                         _______ _______ _______ _____ _____    ______ ____
ROOT
ATOM      1  C   UNL     1       0.254   2.886 -24.104  0.00  0.00    +0.159 C 
ATOM      2  C   UNL     1      -0.688   3.019 -23.956  0.00  0.00    +0.032 C 
ATOM      3  C   UNL     1      -1.443   2.654 -22.698  0.00  0.00    +0.075 C 
ATOM      4  C   UNL     1      -2.079   3.006 -23.231  0.00  0.00    +0.076 C 
ATOM      5  C   UNL     1      -1.417   3.154 -23.918  0.00  0.00    +0.090 C 
ATOM      6  C   UNL     1      -0.064   2.572 -23.187  0.00  0.00    -0.035 A 
ATOM      7  C   UNL     1       1.532   2.365 -23.482  0.00  0.00    +0.008 A 
ATOM      8  C   UNL     1       2.245   1.864 -22.625  0.00  0.00    +0.049 A 
ATOM      9  C   UNL     1       1.740   1.513 -21.524  0.00  0.00    +0.162 A 
ATOM     10  C   UNL     1       0.468   1.676 -21.284  0.00  0.00    +0.163 A 
ATOM     11  C   UNL     1      -0.340   2.210 -22.172  0.00  0.00    +0.009 A 
ATOM     12  N   UNL     1      -3.219   3.015 -22.685  0.00  0.00    +0.236 N 
ATOM     13  H   UNL     1      -4.023   3.389 -23.187  0.00  0.00    +0.203 HD
ATOM     14  C   UNL     1      -4.245   3.467 -23.264  0.00  0.00    +0.190 C 
ATOM     15  C   UNL     1      -3.263   2.518 -21.460  0.00  0.00    +0.132 C 
ATOM     16  C   UNL     1      -2.122   2.085 -20.982  0.00  0.00    +0.064 C 
ATOM     17  C   UNL     1      -1.161   2.208 -21.758  0.00  0.00    +0.023 C 
ATOM     18  C   UNL     1       0.327   2.010 -22.022  0.00  0.00    +0.095 C 
ATOM     19  C   UNL     1       0.853   2.459 -23.369  0.00  0.00    +0.198 C 
ATOM     20  O   UNL     1       1.016   3.180 -25.194  0.00  0.00    -0.289 OA
ENDROOT
BRANCH   1  22
ATOM     21  C   UNL     1       1.087   4.296 -26.173  0.00  0.00    +0.277 C 
ATOM     22  O   UNL     1       0.005   3.538 -25.557  0.00  0.00    -0.492 OA
ENDBRANCH   1  22
BRANCH  10  23
ATOM     23  O   UNL     1       0.720   1.180 -20.211  0.00  0.00    -0.503 OA
ATOM     24  H   UNL     1       1.159   0.353 -20.170  0.00  0.00    +0.292 HD
ENDBRANCH  10  23
BRANCH   9  25
ATOM     25  O   UNL     1       2.402   0.970 -20.542  0.00  0.00    -0.491 OA
ATOM     26  C   UNL     1       3.578   0.586 -20.600  0.00  0.00    +0.277 C 
ENDBRANCH   9  25
TORSDOF 3
ENDMDL
MODEL 7
REMARK VINA RESULT:    -9.726      1.988      5.268
REMARK INTER + INTRA:          -9.573
REMARK INTER:                 -10.666
REMARK INTRA:                   1.093
REMARK UNBOUND:                 1.006
REMARK  Name = ZINC000005510156
REMARK  6 active torsions:
REMARK  status: ('A' for Active; 'I' for Inactive)
REMARK    1  A    between atoms: C_1  and  O_2
REMARK    2  A    between atoms: O_2  and  C_3
REMARK    3  A    between atoms: C_11  and  O_12
REMARK    4  A    between atoms: O_12  and  C_13
REMARK    5  A    between atoms: C_14  and  O_15
REMARK    6  A    between atoms: N_20  and  C_21
REMARK                            x       y       z     vdW  Elec       q    Type
REMARK                         _______ _______ _______ _____ _____    ______ ____
ROOT
ATOM      1  C   UNL     1      -0.437   1.813 -21.916  0.00  0.00    +0.159 C 
ATOM      2  C   UNL     1       0.146   2.002 -22.659  0.00  0.00    +0.032 C 
ATOM      3  C   UNL     1      -0.242   2.744 -23.917  0.00  0.00    +0.075 C 
ATOM      4  C   UNL     1       0.626   2.543 -24.051  0.00  0.00    +0.076 C 
ATOM      5  C   UNL     1       0.655   2.108 -23.190  0.00  0.00    +0.090 C 
ATOM      6  C   UNL     1      -0.891   2.327 -22.671  0.00  0.00    -0.035 A 
ATOM      7  C   UNL     1      -1.844   1.984 -21.387  0.00  0.00    +0.008 A 
ATOM      8  C   UNL     1      -3.012   2.344 -21.389  0.00  0.00    +0.049 A 
ATOM      9  C   UNL     1      -3.466   2.976 -22.382  0.00  0.00    +0.162 A 
ATOM     10  C   UNL     1      -2.710   3.251 -23.408  0.00  0.00    +0.163 A 
ATOM     11  C   UNL     1      -1.449   2.887 -23.455  0.00  0.00    +0.009 A 
ATOM     12  N   UNL     1       1.056   2.962 -25.164  0.00  0.00    +0.236 N 
ATOM     13  H   UNL     1       2.025   2.796 -25.432  0.00  0.00    +0.203 HD
ATOM     14  C   UNL     1       2.247   2.783 -25.541  0.00  0.00    +0.190 C 
ATOM     15  C   UNL     1       0.169   3.603 -25.907  0.00  0.00    +0.132 C 
ATOM     16  C   UNL     1      -1.029   3.715 -25.389  0.00  0.00    +0.064 C 
ATOM     17  C   UNL     1      -1.155   3.199 -24.268  0.00  0.00    +0.023 C 
ATOM     18  C   UNL     1      -2.052   2.885 -23.076  0.00  0.00    +0.095 C 
ATOM     19  C   UNL     1      -1.429   2.124 -21.926  0.00  0.00    +0.198 C 
ATOM     20  O   UNL     1      -0.180   1.157 -20.751  0.00  0.00    -0.289 OA
ENDROOT
BRANCH   1  22
ATOM     21  C   UNL     1       1.358   1.621 -19.991  0.00  0.00    +0.277 C 
ATOM     22  O   UNL     1       0.837   1.089 -21.245  0.00  0.00    -0.492 OA
ENDBRANCH   1  22
BRANCH  10  23
ATOM     23  O   UNL     1      -3.701   3.778 -23.856  0.00  0.00    -0.503 OA
ATOM     24  H   UNL     1      -4.515   3.709 -23.398  0.00  0.00    +0.292 HD
ENDBRANCH  10  23
BRANCH   9  25
ATOM     25  O   UNL     1      -4.692   3.407 -22.491  0.00  0.00    -0.491 OA
ATOM     26  C   UNL     1      -5.648   3.021 -21.807  0.00  0.00    +0.277 C 
ENDBRANCH   9  25
TORSDOF 3
ENDMDL
MODEL 8
REMARK VINA RESULT:    -9.692      2.936      5.980
REMARK INTER + INTRA:          -9.535
REMARK INTER:                 -10.368
REMARK INTRA:                   0.833
REMARK UNBOUND:                 1.006
REMARK  Name = ZINC000005510156
REMARK  6 active torsions:
REMARK  status: ('A' for Active; 'I' for Inactive)
REMARK    1  A    between atoms: C_1  and  O_2
REMARK    2  A    between atoms: O_2  and  C_3
REMARK    3  A    between atoms: C_11  and  O_12
REMARK    4  A    between atoms: O_12  and  C_13
REMARK    5  A    between atoms: C_14  and  O_15
REMARK    6  A    between atoms: N_20  and  C_21
REMARK                            x       y       z     vdW  Elec       q    Type
REMARK                         _______ _______ _______ _____ _____    ______ ____
ROOT
ATOM      1  C   UNL     1       2.396   2.574 -24.067  0.00  0.00    +0.159 C 
ATOM      2  C   UNL     1       3.158   3.092 -23.786  0.00  0.00    +0.032 C 
ATOM      3  C   UNL     1       3.120   4.523 -23.299  0.00  0.00    +0.075 C 
ATOM      4  C   UNL     1       3.995   4.308 -23.256  0.00  0.00    +0.076 C 
ATOM      5  C   UNL     1       3.792   3.425 -23.587  0.00  0.00    +0.090 C 
ATOM      6  C   UNL     1       2.160   3.522 -23.772  0.00  0.00    -0.035 A 
ATOM      7  C   UNL     1       0.895   2.605 -24.257  0.00  0.00    +0.008 A 
ATOM      8  C   UNL     1      -0.232   3.076 -24.246  0.00  0.00    +0.049 A 
ATOM      9  C   UNL     1      -0.405   4.264 -23.860  0.00  0.00    +0.162 A 
ATOM     10  C   UNL     1       0.601   5.000 -23.472  0.00  0.00    +0.163 A 
ATOM     11  C   UNL     1       1.831   4.540 -23.466  0.00  0.00    +0.009 A 
ATOM     12  N   UNL     1       4.708   5.263 -22.832  0.00  0.00    +0.236 N 
ATOM     13  H   UNL     1       5.716   5.144 -22.738  0.00  0.00    +0.203 HD
ATOM     14  C   UNL     1       5.959   5.166 -22.698  0.00  0.00    +0.190 C 
ATOM     15  C   UNL     1       4.051   6.372 -22.538  0.00  0.00    +0.132 C 
ATOM     16  C   UNL     1       2.754   6.330 -22.726  0.00  0.00    +0.064 C 
ATOM     17  C   UNL     1       2.333   5.245 -23.156  0.00  0.00    +0.023 C 
ATOM     18  C   UNL     1       1.147   4.399 -23.606  0.00  0.00    +0.095 C 
ATOM     19  C   UNL     1       1.441   2.984 -24.054  0.00  0.00    +0.198 C 
ATOM     20  O   UNL     1       2.333   1.290 -24.517  0.00  0.00    -0.289 OA
ENDROOT
BRANCH   1  22
ATOM     21  C   UNL     1       3.079   0.331 -25.278  0.00  0.00    +0.277 C 
ATOM     22  O   UNL     1       3.447   1.382 -24.336  0.00  0.00    -0.492 OA
ENDBRANCH   1  22
BRANCH  10  23
ATOM     23  O   UNL     1      -0.236   5.852 -23.291  0.00  0.00    -0.503 OA
ATOM     24  H   UNL     1      -0.138   6.461 -22.586  0.00  0.00    +0.292 HD
ENDBRANCH  10  23
BRANCH   9  25
ATOM     25  O   UNL     1      -1.559   4.868 -23.807  0.00  0.00    -0.491 OA
ATOM     26  C   UNL     1      -2.640   4.372 -24.147  0.00  0.00    +0.277 C 
ENDBRANCH   9  25
TORSDOF 3
ENDMDL
MODEL 9
REMARK VINA RESULT:    -9.355      2.891      4.750
REMARK INTER + INTRA:          -9.169
REMARK INTER:                 -10.175
REMARK INTRA:                   1.006
REMARK UNBOUND:                 1.006
REMARK  Name = ZINC000005510156
REMARK  6 active torsions:
REMARK  status: ('A' for Active; 'I' for Inactive)
REMARK    1  A    between atoms: C_1  and  O_2
REMARK    2  A    between atoms: O_2  and  C_3
REMARK    3  A    between atoms: C_11  and  O_12
REMARK    4  A    between atoms: O_12  and  C_13
REMARK    5  A    between atoms: C_14  and  O_15
REMARK    6  A    between atoms: N_20  and  C_21
REMARK                            x       y       z     vdW  Elec       q    Type
REMARK                         _______ _______ _______ _____ _____    ______ ____
ROOT
ATOM      1  C   UNL     1       2.562   2.290 -23.859  0.00  0.00    +0.159 C 
ATOM      2  C   UNL     1       1.605   2.355 -23.950  0.00  0.00    +0.032 C 
ATOM      3  C   UNL     1       0.776   3.591 -23.686  0.00  0.00    +0.075 C 
ATOM      4  C   UNL     1       0.165   2.976 -23.934  0.00  0.00    +0.076 C 
ATOM      5  C   UNL     1       0.869   2.325 -24.043  0.00  0.00    +0.090 C 
ATOM      6  C   UNL     1       2.191   3.214 -23.634  0.00  0.00    -0.035 A 
ATOM      7  C   UNL     1       3.813   3.059 -23.493  0.00  0.00    +0.008 A 
ATOM      8  C   UNL     1       4.483   4.017 -23.138  0.00  0.00    +0.049 A 
ATOM      9  C   UNL     1       3.913   5.114 -22.885  0.00  0.00    +0.162 A 
ATOM     10  C   UNL     1       2.620   5.242 -22.995  0.00  0.00    +0.163 A 
ATOM     11  C   UNL     1       1.856   4.243 -23.373  0.00  0.00    +0.009 A 
ATOM     12  N   UNL     1      -1.013   3.436 -23.935  0.00  0.00    +0.236 N 
ATOM     13  H   UNL     1      -1.795   2.836 -24.199  0.00  0.00    +0.203 HD
ATOM     14  C   UNL     1      -2.013   2.735 -24.253  0.00  0.00    +0.190 C 
ATOM     15  C   UNL     1      -1.125   4.704 -23.580  0.00  0.00    +0.132 C 
ATOM     16  C   UNL     1      -0.003   5.309 -23.276  0.00  0.00    +0.064 C 
ATOM     17  C   UNL     1       1.007   4.595 -23.368  0.00  0.00    +0.023 C 
ATOM     18  C   UNL     1       2.520   4.461 -23.234  0.00  0.00    +0.095 C 
ATOM     19  C   UNL     1       3.123   3.112 -23.557  0.00  0.00    +0.198 C 
ATOM     20  O   UNL     1       3.388   1.230 -24.073  0.00  0.00    -0.289 OA
ENDROOT
BRANCH   1  22
ATOM     21  C   UNL     1       3.141   0.296 -25.487  0.00  0.00    +0.277 C 
ATOM     22  O   UNL     1       2.391   0.757 -24.324  0.00  0.00    -0.492 OA
ENDBRANCH   1  22
BRANCH  10  23
ATOM     23  O   UNL     1       2.815   6.382 -22.642  0.00  0.00    -0.503 OA
ATOM     24  H   UNL     1       2.118   6.878 -22.260  0.00  0.00    +0.292 HD
ENDBRANCH  10  23
BRANCH   9  25
ATOM     25  O   UNL     1       4.526   6.198 -22.500  0.00  0.00    -0.491 OA
ATOM     26  C   UNL     1       5.729   6.277 -22.220  0.00  0.00    +0.277 C 
ENDBRANCH   9  25
TORSDOF 3
ENDMDL
