MODEL 1
REMARK VINA RESULT:    -8.132      0.000      0.000
REMARK INTER + INTRA:         -18.856
REMARK INTER:                 -16.442
REMARK INTRA:                  -2.414
REMARK UNBOUND:                -1.216
REMARK  Name = ZINC000085340947
REMARK  22 active torsions:
REMARK  status: ('A' for Active; 'I' for Inactive)
REMARK    1  A    between atoms: C_1  and  C_2
REMARK    2  A    between atoms: C_2  and  C_3
REMARK    3  A    between atoms: C_3  and  C_4
REMARK    4  A    between atoms: C_4  and  C_5
REMARK    5  A    between atoms: C_5  and  C_6
REMARK    6  A    between atoms: C_6  and  C_7
REMARK    7  A    between atoms: C_7  and  C_8
REMARK    8  A    between atoms: C_8  and  C_9
REMARK    9  A    between atoms: C_9  and  C_10
REMARK   10  A    between atoms: C_10  and  C_11
REMARK   11  A    between atoms: C_11  and  C_12
REMARK   12  A    between atoms: N_16  and  C_17
REMARK   13  A    between atoms: C_17  and  C_18
REMARK   14  A    between atoms: C_18  and  C_19
REMARK   15  A    between atoms: C_19  and  C_20
REMARK   16  A    between atoms: C_20  and  O_21
REMARK   17  A    between atoms: C_23  and  N_24
REMARK   18  A    between atoms: N_24  and  C_25
REMARK   19  A    between atoms: C_25  and  C_26
REMARK   20  A    between atoms: C_26  and  C_27
REMARK   21  A    between atoms: C_27  and  C_28
REMARK   22  A    between atoms: C_28  and  O_29
REMARK                            x       y       z     vdW  Elec       q    Type
REMARK                         _______ _______ _______ _____ _____    ______ ____
ROOT
ATOM      1  C   UNL     1       1.708   4.070 -24.284  0.00  0.00    -0.010 C 
ATOM      2  C   UNL     1       2.382   4.986 -23.654  0.00  0.00    +0.206 C 
ATOM      3  C   UNL     1       3.555   4.710 -23.165  0.00  0.00    +0.107 C 
ATOM      4  C   UNL     1       4.054   3.518 -23.306  0.00  0.00    +0.053 C 
ATOM      5  C   UNL     1       3.380   2.601 -23.936  0.00  0.00    +0.016 C 
ATOM      6  N   UNL     1       4.229   5.627 -22.536  0.00  0.00    -0.280 NA
ATOM      7  O   UNL     1       1.884   6.178 -23.513  0.00  0.00    -0.285 OA
ATOM      8  C   UNL     1       2.207   2.878 -24.425  0.00  0.00    -0.112 C 
ATOM      9  O   UNL     1       1.533   1.962 -25.054  0.00  0.00    -0.828 OA
ENDROOT
BRANCH   5  10
ATOM     10  N   UNL     1       3.878   1.409 -24.077  0.00  0.00    -0.345 N 
ATOM     11  H   UNL     1       3.909   0.991 -24.968  0.00  0.00    +0.146 HD
BRANCH  10  12
ATOM     12  C   UNL     1       4.335   0.770 -23.042  0.00  0.00    +0.101 C 
BRANCH  12  13
ATOM     13  C   UNL     1       3.527   0.421 -22.085  0.00  0.00    +0.021 C 
BRANCH  13  14
ATOM     14  C   UNL     1       3.890   0.561 -20.844  0.00  0.00    +0.029 C 
BRANCH  14  15
ATOM     15  C   UNL     1       4.950   1.253 -20.551  0.00  0.00    +0.156 C 
BRANCH  15  16
ATOM     16  O   UNL     1       5.794   0.807 -19.669  0.00  0.00    -0.395 OA
ATOM     17  H   UNL     1       6.072   1.534 -19.090  0.00  0.00    +0.209 HD
ENDBRANCH  15  16
ENDBRANCH  14  15
ENDBRANCH  13  14
ENDBRANCH  12  13
ENDBRANCH  10  12
ENDBRANCH   5  10
BRANCH   1  18
ATOM     18  C   UNL     1       0.536   4.345 -24.773  0.00  0.00    +0.038 C 
BRANCH  18  19
ATOM     19  C   UNL     1      -0.502   4.385 -23.989  0.00  0.00    +0.005 C 
BRANCH  19  20
ATOM     20  C   UNL     1      -1.515   3.601 -24.212  0.00  0.00    +0.000 C 
BRANCH  20  21
ATOM     21  C   UNL     1      -1.608   2.466 -23.587  0.00  0.00    +0.000 C 
BRANCH  21  22
ATOM     22  C   UNL     1      -1.256   2.381 -22.337  0.00  0.00    +0.000 C 
BRANCH  22  23
ATOM     23  C   UNL     1      -2.152   2.154 -21.424  0.00  0.00    +0.000 C 
BRANCH  23  24
ATOM     24  C   UNL     1      -2.643   3.141 -20.736  0.00  0.00    -0.000 C 
BRANCH  24  25
ATOM     25  C   UNL     1      -3.791   3.655 -21.065  0.00  0.00    -0.000 C 
BRANCH  25  26
ATOM     26  C   UNL     1      -4.738   2.891 -21.523  0.00  0.00    -0.000 C 
BRANCH  26  28
ATOM     27  C   UNL     1      -5.242   3.803 -23.518  0.00  0.00    +0.004 C 
ATOM     28  C   UNL     1      -5.617   3.371 -22.351  0.00  0.00    -0.003 C 
ENDBRANCH  26  28
ENDBRANCH  25  26
ENDBRANCH  24  25
ENDBRANCH  23  24
ENDBRANCH  22  23
ENDBRANCH  21  22
ENDBRANCH  20  21
ENDBRANCH  19  20
ENDBRANCH  18  19
ENDBRANCH   1  18
BRANCH   6  29
ATOM     29  C   UNL     1       3.730   6.819 -22.395  0.00  0.00    +0.142 C 
BRANCH  29  30
ATOM     30  C   UNL     1       4.459   7.774 -21.898  0.00  0.00    +0.025 C 
BRANCH  30  31
ATOM     31  C   UNL     1       5.744   7.618 -21.786  0.00  0.00    +0.030 C 
BRANCH  31  32
ATOM     32  C   UNL     1       6.297   7.609 -20.608  0.00  0.00    +0.156 C 
BRANCH  32  33
ATOM     33  O   UNL     1       5.638   7.156 -19.584  0.00  0.00    -0.395 OA
ATOM     34  H   UNL     1       5.387   7.894 -19.007  0.00  0.00    +0.209 HD
ENDBRANCH  32  33
ENDBRANCH  31  32
ENDBRANCH  30  31
ENDBRANCH  29  30
ENDBRANCH   6  29
TORSDOF 21
ENDMDL
MODEL 2
REMARK VINA RESULT:    -8.096      1.067      1.827
REMARK INTER + INTRA:         -18.778
REMARK INTER:                 -16.691
REMARK INTRA:                  -2.087
REMARK UNBOUND:                -1.216
REMARK  Name = ZINC000085340947
REMARK  22 active torsions:
REMARK  status: ('A' for Active; 'I' for Inactive)
REMARK    1  A    between atoms: C_1  and  C_2
REMARK    2  A    between atoms: C_2  and  C_3
REMARK    3  A    between atoms: C_3  and  C_4
REMARK    4  A    between atoms: C_4  and  C_5
REMARK    5  A    between atoms: C_5  and  C_6
REMARK    6  A    between atoms: C_6  and  C_7
REMARK    7  A    between atoms: C_7  and  C_8
REMARK    8  A    between atoms: C_8  and  C_9
REMARK    9  A    between atoms: C_9  and  C_10
REMARK   10  A    between atoms: C_10  and  C_11
REMARK   11  A    between atoms: C_11  and  C_12
REMARK   12  A    between atoms: N_16  and  C_17
REMARK   13  A    between atoms: C_17  and  C_18
REMARK   14  A    between atoms: C_18  and  C_19
REMARK   15  A    between atoms: C_19  and  C_20
REMARK   16  A    between atoms: C_20  and  O_21
REMARK   17  A    between atoms: C_23  and  N_24
REMARK   18  A    between atoms: N_24  and  C_25
REMARK   19  A    between atoms: C_25  and  C_26
REMARK   20  A    between atoms: C_26  and  C_27
REMARK   21  A    between atoms: C_27  and  C_28
REMARK   22  A    between atoms: C_28  and  O_29
REMARK                            x       y       z     vdW  Elec       q    Type
REMARK                         _______ _______ _______ _____ _____    ______ ____
ROOT
ATOM      1  C   UNL     1       1.796   4.268 -23.872  0.00  0.00    -0.010 C 
ATOM      2  C   UNL     1       2.609   5.132 -23.341  0.00  0.00    +0.206 C 
ATOM      3  C   UNL     1       3.822   4.781 -23.035  0.00  0.00    +0.107 C 
ATOM      4  C   UNL     1       4.223   3.564 -23.260  0.00  0.00    +0.053 C 
ATOM      5  C   UNL     1       3.410   2.700 -23.790  0.00  0.00    +0.016 C 
ATOM      6  N   UNL     1       4.635   5.646 -22.505  0.00  0.00    -0.280 NA
ATOM      7  O   UNL     1       2.208   6.348 -23.117  0.00  0.00    -0.285 OA
ATOM      8  C   UNL     1       2.196   3.052 -24.096  0.00  0.00    -0.112 C 
ATOM      9  O   UNL     1       1.383   2.187 -24.627  0.00  0.00    -0.828 OA
ENDROOT
BRANCH   5  10
ATOM     10  N   UNL     1       3.811   1.484 -24.015  0.00  0.00    -0.345 N 
ATOM     11  H   UNL     1       3.815   1.128 -24.934  0.00  0.00    +0.146 HD
BRANCH  10  12
ATOM     12  C   UNL     1       4.206   0.737 -23.028  0.00  0.00    +0.101 C 
BRANCH  12  13
ATOM     13  C   UNL     1       3.375   0.423 -22.078  0.00  0.00    +0.021 C 
BRANCH  13  14
ATOM     14  C   UNL     1       3.765   0.453 -20.837  0.00  0.00    +0.029 C 
BRANCH  14  15
ATOM     15  C   UNL     1       5.018   0.272 -20.545  0.00  0.00    +0.156 C 
BRANCH  15  16
ATOM     16  O   UNL     1       5.637   1.125 -19.784  0.00  0.00    -0.395 OA
ATOM     17  H   UNL     1       5.092   1.920 -19.678  0.00  0.00    +0.209 HD
ENDBRANCH  15  16
ENDBRANCH  14  15
ENDBRANCH  13  14
ENDBRANCH  12  13
ENDBRANCH  10  12
ENDBRANCH   5  10
BRANCH   1  18
ATOM     18  C   UNL     1       0.582   4.619 -24.178  0.00  0.00    +0.038 C 
BRANCH  18  19
ATOM     19  C   UNL     1      -0.343   4.622 -23.264  0.00  0.00    +0.005 C 
BRANCH  19  20
ATOM     20  C   UNL     1      -1.589   4.775 -23.601  0.00  0.00    +0.000 C 
BRANCH  20  21
ATOM     21  C   UNL     1      -2.062   4.154 -24.641  0.00  0.00    +0.000 C 
BRANCH  21  22
ATOM     22  C   UNL     1      -3.330   4.224 -24.919  0.00  0.00    +0.000 C 
BRANCH  22  23
ATOM     23  C   UNL     1      -4.169   3.422 -24.334  0.00  0.00    +0.000 C 
BRANCH  23  24
ATOM     24  C   UNL     1      -5.182   3.905 -23.680  0.00  0.00    -0.000 C 
BRANCH  24  25
ATOM     25  C   UNL     1      -5.479   3.438 -22.504  0.00  0.00    -0.000 C 
BRANCH  25  26
ATOM     26  C   UNL     1      -4.539   2.981 -21.729  0.00  0.00    -0.000 C 
BRANCH  26  28
ATOM     27  C   UNL     1      -2.796   3.549 -20.423  0.00  0.00    +0.004 C 
ATOM     28  C   UNL     1      -4.020   3.746 -20.816  0.00  0.00    -0.003 C 
ENDBRANCH  26  28
ENDBRANCH  25  26
ENDBRANCH  24  25
ENDBRANCH  23  24
ENDBRANCH  22  23
ENDBRANCH  21  22
ENDBRANCH  20  21
ENDBRANCH  19  20
ENDBRANCH  18  19
ENDBRANCH   1  18
BRANCH   6  29
ATOM     29  C   UNL     1       4.235   6.862 -22.280  0.00  0.00    +0.142 C 
BRANCH  29  30
ATOM     30  C   UNL     1       5.017   7.702 -21.670  0.00  0.00    +0.025 C 
BRANCH  30  31
ATOM     31  C   UNL     1       4.584   8.360 -20.637  0.00  0.00    +0.030 C 
BRANCH  31  32
ATOM     32  C   UNL     1       4.328   9.632 -20.738  0.00  0.00    +0.156 C 
BRANCH  32  33
ATOM     33  O   UNL     1       5.246  10.504 -20.446  0.00  0.00    -0.395 OA
ATOM     34  H   UNL     1       5.087  10.857 -19.557  0.00  0.00    +0.209 HD
ENDBRANCH  32  33
ENDBRANCH  31  32
ENDBRANCH  30  31
ENDBRANCH  29  30
ENDBRANCH   6  29
TORSDOF 21
ENDMDL
MODEL 3
REMARK VINA RESULT:    -7.762      1.868      4.783
REMARK INTER + INTRA:         -18.053
REMARK INTER:                 -15.135
REMARK INTRA:                  -2.918
REMARK UNBOUND:                -1.216
REMARK  Name = ZINC000085340947
REMARK  22 active torsions:
REMARK  status: ('A' for Active; 'I' for Inactive)
REMARK    1  A    between atoms: C_1  and  C_2
REMARK    2  A    between atoms: C_2  and  C_3
REMARK    3  A    between atoms: C_3  and  C_4
REMARK    4  A    between atoms: C_4  and  C_5
REMARK    5  A    between atoms: C_5  and  C_6
REMARK    6  A    between atoms: C_6  and  C_7
REMARK    7  A    between atoms: C_7  and  C_8
REMARK    8  A    between atoms: C_8  and  C_9
REMARK    9  A    between atoms: C_9  and  C_10
REMARK   10  A    between atoms: C_10  and  C_11
REMARK   11  A    between atoms: C_11  and  C_12
REMARK   12  A    between atoms: N_16  and  C_17
REMARK   13  A    between atoms: C_17  and  C_18
REMARK   14  A    between atoms: C_18  and  C_19
REMARK   15  A    between atoms: C_19  and  C_20
REMARK   16  A    between atoms: C_20  and  O_21
REMARK   17  A    between atoms: C_23  and  N_24
REMARK   18  A    between atoms: N_24  and  C_25
REMARK   19  A    between atoms: C_25  and  C_26
REMARK   20  A    between atoms: C_26  and  C_27
REMARK   21  A    between atoms: C_27  and  C_28
REMARK   22  A    between atoms: C_28  and  O_29
REMARK                            x       y       z     vdW  Elec       q    Type
REMARK                         _______ _______ _______ _____ _____    ______ ____
ROOT
ATOM      1  C   UNL     1       3.198   2.965 -24.070  0.00  0.00    -0.010 C 
ATOM      2  C   UNL     1       3.342   4.118 -23.485  0.00  0.00    +0.206 C 
ATOM      3  C   UNL     1       2.391   5.002 -23.548  0.00  0.00    +0.107 C 
ATOM      4  C   UNL     1       1.295   4.734 -24.195  0.00  0.00    +0.053 C 
ATOM      5  C   UNL     1       1.151   3.581 -24.779  0.00  0.00    +0.016 C 
ATOM      6  N   UNL     1       2.536   6.154 -22.964  0.00  0.00    -0.280 NA
ATOM      7  O   UNL     1       4.437   4.385 -22.839  0.00  0.00    -0.285 OA
ATOM      8  C   UNL     1       2.102   2.697 -24.716  0.00  0.00    -0.112 C 
ATOM      9  O   UNL     1       1.958   1.545 -25.301  0.00  0.00    -0.828 OA
ENDROOT
BRANCH   5  10
ATOM     10  N   UNL     1       0.056   3.313 -25.426  0.00  0.00    -0.345 N 
ATOM     11  H   UNL     1       0.095   2.819 -26.277  0.00  0.00    +0.146 HD
BRANCH  10  12
ATOM     12  C   UNL     1      -1.091   3.696 -24.949  0.00  0.00    +0.101 C 
BRANCH  12  13
ATOM     13  C   UNL     1      -2.189   3.385 -25.570  0.00  0.00    +0.021 C 
BRANCH  13  14
ATOM     14  C   UNL     1      -3.270   3.133 -24.892  0.00  0.00    +0.029 C 
BRANCH  14  15
ATOM     15  C   UNL     1      -4.225   4.014 -24.841  0.00  0.00    +0.156 C 
BRANCH  15  16
ATOM     16  O   UNL     1      -4.033   5.209 -25.315  0.00  0.00    -0.395 OA
ATOM     17  H   UNL     1      -3.578   5.149 -26.170  0.00  0.00    +0.209 HD
ENDBRANCH  15  16
ENDBRANCH  14  15
ENDBRANCH  13  14
ENDBRANCH  12  13
ENDBRANCH  10  12
ENDBRANCH   5  10
BRANCH   1  18
ATOM     18  C   UNL     1       4.148   2.080 -24.007  0.00  0.00    +0.038 C 
BRANCH  18  19
ATOM     19  C   UNL     1       3.959   0.968 -23.361  0.00  0.00    +0.005 C 
BRANCH  19  20
ATOM     20  C   UNL     1       4.076   0.940 -22.067  0.00  0.00    +0.000 C 
BRANCH  20  21
ATOM     21  C   UNL     1       3.072   0.567 -21.331  0.00  0.00    +0.000 C 
BRANCH  21  22
ATOM     22  C   UNL     1       2.410   1.448 -20.640  0.00  0.00    +0.000 C 
BRANCH  22  23
ATOM     23  C   UNL     1       1.306   1.947 -21.111  0.00  0.00    +0.000 C 
BRANCH  23  24
ATOM     24  C   UNL     1       0.532   1.220 -21.861  0.00  0.00    -0.000 C 
BRANCH  24  25
ATOM     25  C   UNL     1      -0.701   1.579 -22.062  0.00  0.00    -0.000 C 
BRANCH  25  26
ATOM     26  C   UNL     1      -1.186   2.615 -21.444  0.00  0.00    -0.000 C 
BRANCH  26  28
ATOM     27  C   UNL     1      -2.954   3.759 -20.648  0.00  0.00    +0.004 C 
ATOM     28  C   UNL     1      -2.471   2.743 -21.300  0.00  0.00    -0.003 C 
ENDBRANCH  26  28
ENDBRANCH  25  26
ENDBRANCH  24  25
ENDBRANCH  23  24
ENDBRANCH  22  23
ENDBRANCH  21  22
ENDBRANCH  20  21
ENDBRANCH  19  20
ENDBRANCH  18  19
ENDBRANCH   1  18
BRANCH   6  29
ATOM     29  C   UNL     1       3.631   6.422 -22.317  0.00  0.00    +0.142 C 
BRANCH  29  30
ATOM     30  C   UNL     1       3.993   7.658 -22.136  0.00  0.00    +0.025 C 
BRANCH  30  31
ATOM     31  C   UNL     1       4.536   8.017 -21.012  0.00  0.00    +0.030 C 
BRANCH  31  32
ATOM     32  C   UNL     1       5.734   7.610 -20.710  0.00  0.00    +0.156 C 
BRANCH  32  33
ATOM     33  O   UNL     1       5.933   6.931 -19.620  0.00  0.00    -0.395 OA
ATOM     34  H   UNL     1       5.310   7.224 -18.937  0.00  0.00    +0.209 HD
ENDBRANCH  32  33
ENDBRANCH  31  32
ENDBRANCH  30  31
ENDBRANCH  29  30
ENDBRANCH   6  29
TORSDOF 21
ENDMDL
MODEL 4
REMARK VINA RESULT:    -7.690      1.345      4.978
REMARK INTER + INTRA:         -17.896
REMARK INTER:                 -15.845
REMARK INTRA:                  -2.051
REMARK UNBOUND:                -1.216
REMARK  Name = ZINC000085340947
REMARK  22 active torsions:
REMARK  status: ('A' for Active; 'I' for Inactive)
REMARK    1  A    between atoms: C_1  and  C_2
REMARK    2  A    between atoms: C_2  and  C_3
REMARK    3  A    between atoms: C_3  and  C_4
REMARK    4  A    between atoms: C_4  and  C_5
REMARK    5  A    between atoms: C_5  and  C_6
REMARK    6  A    between atoms: C_6  and  C_7
REMARK    7  A    between atoms: C_7  and  C_8
REMARK    8  A    between atoms: C_8  and  C_9
REMARK    9  A    between atoms: C_9  and  C_10
REMARK   10  A    between atoms: C_10  and  C_11
REMARK   11  A    between atoms: C_11  and  C_12
REMARK   12  A    between atoms: N_16  and  C_17
REMARK   13  A    between atoms: C_17  and  C_18
REMARK   14  A    between atoms: C_18  and  C_19
REMARK   15  A    between atoms: C_19  and  C_20
REMARK   16  A    between atoms: C_20  and  O_21
REMARK   17  A    between atoms: C_23  and  N_24
REMARK   18  A    between atoms: N_24  and  C_25
REMARK   19  A    between atoms: C_25  and  C_26
REMARK   20  A    between atoms: C_26  and  C_27
REMARK   21  A    between atoms: C_27  and  C_28
REMARK   22  A    between atoms: C_28  and  O_29
REMARK                            x       y       z     vdW  Elec       q    Type
REMARK                         _______ _______ _______ _____ _____    ______ ____
ROOT
ATOM      1  C   UNL     1       0.550   3.796 -23.239  0.00  0.00    -0.010 C 
ATOM      2  C   UNL     1       1.394   2.809 -23.180  0.00  0.00    +0.206 C 
ATOM      3  C   UNL     1       2.670   3.048 -23.115  0.00  0.00    +0.107 C 
ATOM      4  C   UNL     1       3.103   4.275 -23.110  0.00  0.00    +0.053 C 
ATOM      5  C   UNL     1       2.259   5.262 -23.169  0.00  0.00    +0.016 C 
ATOM      6  N   UNL     1       3.514   2.061 -23.056  0.00  0.00    -0.280 NA
ATOM      7  O   UNL     1       0.962   1.584 -23.185  0.00  0.00    -0.285 OA
ATOM      8  C   UNL     1       0.982   5.022 -23.234  0.00  0.00    -0.112 C 
ATOM      9  O   UNL     1       0.138   6.009 -23.293  0.00  0.00    -0.828 OA
ENDROOT
BRANCH   5  10
ATOM     10  N   UNL     1       2.691   6.487 -23.164  0.00  0.00    -0.345 N 
ATOM     11  H   UNL     1       2.205   7.183 -23.664  0.00  0.00    +0.146 HD
BRANCH  10  12
ATOM     12  C   UNL     1       3.764   6.795 -22.499  0.00  0.00    +0.101 C 
BRANCH  12  13
ATOM     13  C   UNL     1       3.971   8.024 -22.131  0.00  0.00    +0.021 C 
BRANCH  13  14
ATOM     14  C   UNL     1       4.401   8.280 -20.930  0.00  0.00    +0.029 C 
BRANCH  14  15
ATOM     15  C   UNL     1       5.657   8.552 -20.734  0.00  0.00    +0.156 C 
BRANCH  15  16
ATOM     16  O   UNL     1       6.007   9.726 -20.299  0.00  0.00    -0.395 OA
ATOM     17  H   UNL     1       5.933   9.748 -19.332  0.00  0.00    +0.209 HD
ENDBRANCH  15  16
ENDBRANCH  14  15
ENDBRANCH  13  14
ENDBRANCH  12  13
ENDBRANCH  10  12
ENDBRANCH   5  10
BRANCH   1  18
ATOM     18  C   UNL     1      -0.726   3.558 -23.304  0.00  0.00    +0.038 C 
BRANCH  18  19
ATOM     19  C   UNL     1      -1.430   3.488 -22.213  0.00  0.00    +0.005 C 
BRANCH  19  20
ATOM     20  C   UNL     1      -2.362   2.589 -22.097  0.00  0.00    +0.000 C 
BRANCH  20  21
ATOM     21  C   UNL     1      -3.325   2.759 -21.241  0.00  0.00    +0.000 C 
BRANCH  21  22
ATOM     22  C   UNL     1      -4.562   2.632 -21.620  0.00  0.00    +0.000 C 
BRANCH  22  23
ATOM     23  C   UNL     1      -5.203   3.655 -22.103  0.00  0.00    +0.000 C 
BRANCH  23  24
ATOM     24  C   UNL     1      -5.585   3.654 -23.345  0.00  0.00    -0.000 C 
BRANCH  24  25
ATOM     25  C   UNL     1      -4.834   4.197 -24.256  0.00  0.00    -0.000 C 
BRANCH  25  26
ATOM     26  C   UNL     1      -4.708   3.628 -25.419  0.00  0.00    -0.000 C 
BRANCH  26  28
ATOM     27  C   UNL     1      -2.684   3.497 -26.396  0.00  0.00    +0.004 C 
ATOM     28  C   UNL     1      -3.634   2.950 -25.697  0.00  0.00    -0.003 C 
ENDBRANCH  26  28
ENDBRANCH  25  26
ENDBRANCH  24  25
ENDBRANCH  23  24
ENDBRANCH  22  23
ENDBRANCH  21  22
ENDBRANCH  20  21
ENDBRANCH  19  20
ENDBRANCH  18  19
ENDBRANCH   1  18
BRANCH   6  29
ATOM     29  C   UNL     1       3.082   0.835 -23.061  0.00  0.00    +0.142 C 
BRANCH  29  30
ATOM     30  C   UNL     1       3.402   0.029 -22.093  0.00  0.00    +0.025 C 
BRANCH  30  31
ATOM     31  C   UNL     1       3.834   0.508 -20.965  0.00  0.00    +0.030 C 
BRANCH  31  32
ATOM     32  C   UNL     1       5.061   0.289 -20.594  0.00  0.00    +0.156 C 
BRANCH  32  33
ATOM     33  O   UNL     1       5.669   1.143 -19.826  0.00  0.00    -0.395 OA
ATOM     34  H   UNL     1       5.093   1.909 -19.673  0.00  0.00    +0.209 HD
ENDBRANCH  32  33
ENDBRANCH  31  32
ENDBRANCH  30  31
ENDBRANCH  29  30
ENDBRANCH   6  29
TORSDOF 21
ENDMDL
MODEL 5
REMARK VINA RESULT:    -7.656      1.924      5.948
REMARK INTER + INTRA:         -17.822
REMARK INTER:                 -15.031
REMARK INTRA:                  -2.791
REMARK UNBOUND:                -1.216
REMARK  Name = ZINC000085340947
REMARK  22 active torsions:
REMARK  status: ('A' for Active; 'I' for Inactive)
REMARK    1  A    between atoms: C_1  and  C_2
REMARK    2  A    between atoms: C_2  and  C_3
REMARK    3  A    between atoms: C_3  and  C_4
REMARK    4  A    between atoms: C_4  and  C_5
REMARK    5  A    between atoms: C_5  and  C_6
REMARK    6  A    between atoms: C_6  and  C_7
REMARK    7  A    between atoms: C_7  and  C_8
REMARK    8  A    between atoms: C_8  and  C_9
REMARK    9  A    between atoms: C_9  and  C_10
REMARK   10  A    between atoms: C_10  and  C_11
REMARK   11  A    between atoms: C_11  and  C_12
REMARK   12  A    between atoms: N_16  and  C_17
REMARK   13  A    between atoms: C_17  and  C_18
REMARK   14  A    between atoms: C_18  and  C_19
REMARK   15  A    between atoms: C_19  and  C_20
REMARK   16  A    between atoms: C_20  and  O_21
REMARK   17  A    between atoms: C_23  and  N_24
REMARK   18  A    between atoms: N_24  and  C_25
REMARK   19  A    between atoms: C_25  and  C_26
REMARK   20  A    between atoms: C_26  and  C_27
REMARK   21  A    between atoms: C_27  and  C_28
REMARK   22  A    between atoms: C_28  and  O_29
REMARK                            x       y       z     vdW  Elec       q    Type
REMARK                         _______ _______ _______ _____ _____    ______ ____
ROOT
ATOM      1  C   UNL     1       3.197   3.135 -24.007  0.00  0.00    -0.010 C 
ATOM      2  C   UNL     1       1.941   3.414 -24.195  0.00  0.00    +0.206 C 
ATOM      3  C   UNL     1       1.469   4.566 -23.822  0.00  0.00    +0.107 C 
ATOM      4  C   UNL     1       2.252   5.439 -23.259  0.00  0.00    +0.053 C 
ATOM      5  C   UNL     1       3.507   5.160 -23.071  0.00  0.00    +0.016 C 
ATOM      6  N   UNL     1       0.213   4.846 -24.010  0.00  0.00    -0.280 NA
ATOM      7  O   UNL     1       1.159   2.542 -24.757  0.00  0.00    -0.285 OA
ATOM      8  C   UNL     1       3.980   4.007 -23.445  0.00  0.00    -0.112 C 
ATOM      9  O   UNL     1       5.235   3.728 -23.257  0.00  0.00    -0.828 OA
ENDROOT
BRANCH   5  10
ATOM     10  N   UNL     1       4.291   6.032 -22.509  0.00  0.00    -0.345 N 
ATOM     11  H   UNL     1       5.233   5.805 -22.332  0.00  0.00    +0.146 HD
BRANCH  10  12
ATOM     12  C   UNL     1       3.830   7.202 -22.182  0.00  0.00    +0.101 C 
BRANCH  12  13
ATOM     13  C   UNL     1       4.589   8.044 -21.547  0.00  0.00    +0.021 C 
BRANCH  13  14
ATOM     14  C   UNL     1       5.836   7.752 -21.318  0.00  0.00    +0.029 C 
BRANCH  14  15
ATOM     15  C   UNL     1       6.655   8.675 -20.909  0.00  0.00    +0.156 C 
BRANCH  15  16
ATOM     16  O   UNL     1       6.198   9.724 -20.294  0.00  0.00    -0.395 OA
ATOM     17  H   UNL     1       5.988  10.414 -20.942  0.00  0.00    +0.209 HD
ENDBRANCH  15  16
ENDBRANCH  14  15
ENDBRANCH  13  14
ENDBRANCH  12  13
ENDBRANCH  10  12
ENDBRANCH   5  10
BRANCH   1  18
ATOM     18  C   UNL     1       3.670   1.983 -24.380  0.00  0.00    +0.038 C 
BRANCH  18  19
ATOM     19  C   UNL     1       3.313   0.900 -23.755  0.00  0.00    +0.005 C 
BRANCH  19  20
ATOM     20  C   UNL     1       3.671   0.715 -22.519  0.00  0.00    +0.000 C 
BRANCH  20  21
ATOM     21  C   UNL     1       2.768   0.525 -21.603  0.00  0.00    +0.000 C 
BRANCH  21  22
ATOM     22  C   UNL     1       2.337   1.529 -20.898  0.00  0.00    +0.000 C 
BRANCH  22  23
ATOM     23  C   UNL     1       1.098   1.909 -20.997  0.00  0.00    +0.000 C 
BRANCH  23  24
ATOM     24  C   UNL     1       0.250   1.189 -21.671  0.00  0.00    -0.000 C 
BRANCH  24  25
ATOM     25  C   UNL     1      -0.954   1.631 -21.881  0.00  0.00    -0.000 C 
BRANCH  25  26
ATOM     26  C   UNL     1      -1.416   2.621 -21.175  0.00  0.00    -0.000 C 
BRANCH  26  28
ATOM     27  C   UNL     1      -3.162   3.771 -20.342  0.00  0.00    +0.004 C 
ATOM     28  C   UNL     1      -2.697   2.826 -21.104  0.00  0.00    -0.003 C 
ENDBRANCH  26  28
ENDBRANCH  25  26
ENDBRANCH  24  25
ENDBRANCH  23  24
ENDBRANCH  22  23
ENDBRANCH  21  22
ENDBRANCH  20  21
ENDBRANCH  19  20
ENDBRANCH  18  19
ENDBRANCH   1  18
BRANCH   6  29
ATOM     29  C   UNL     1      -0.570   3.974 -24.572  0.00  0.00    +0.142 C 
BRANCH  29  30
ATOM     30  C   UNL     1      -1.858   4.147 -24.550  0.00  0.00    +0.025 C 
BRANCH  30  31
ATOM     31  C   UNL     1      -2.648   3.195 -24.946  0.00  0.00    +0.030 C 
BRANCH  31  32
ATOM     32  C   UNL     1      -3.838   3.479 -25.389  0.00  0.00    +0.156 C 
BRANCH  32  33
ATOM     33  O   UNL     1      -4.214   3.056 -26.558  0.00  0.00    -0.395 OA
ATOM     34  H   UNL     1      -4.253   3.802 -27.176  0.00  0.00    +0.209 HD
ENDBRANCH  32  33
ENDBRANCH  31  32
ENDBRANCH  30  31
ENDBRANCH  29  30
ENDBRANCH   6  29
TORSDOF 21
ENDMDL
MODEL 6
REMARK VINA RESULT:    -7.058      1.435      4.957
REMARK INTER + INTRA:         -16.526
REMARK INTER:                 -14.605
REMARK INTRA:                  -1.921
REMARK UNBOUND:                -1.216
REMARK  Name = ZINC000085340947
REMARK  22 active torsions:
REMARK  status: ('A' for Active; 'I' for Inactive)
REMARK    1  A    between atoms: C_1  and  C_2
REMARK    2  A    between atoms: C_2  and  C_3
REMARK    3  A    between atoms: C_3  and  C_4
REMARK    4  A    between atoms: C_4  and  C_5
REMARK    5  A    between atoms: C_5  and  C_6
REMARK    6  A    between atoms: C_6  and  C_7
REMARK    7  A    between atoms: C_7  and  C_8
REMARK    8  A    between atoms: C_8  and  C_9
REMARK    9  A    between atoms: C_9  and  C_10
REMARK   10  A    between atoms: C_10  and  C_11
REMARK   11  A    between atoms: C_11  and  C_12
REMARK   12  A    between atoms: N_16  and  C_17
REMARK   13  A    between atoms: C_17  and  C_18
REMARK   14  A    between atoms: C_18  and  C_19
REMARK   15  A    between atoms: C_19  and  C_20
REMARK   16  A    between atoms: C_20  and  O_21
REMARK   17  A    between atoms: C_23  and  N_24
REMARK   18  A    between atoms: N_24  and  C_25
REMARK   19  A    between atoms: C_25  and  C_26
REMARK   20  A    between atoms: C_26  and  C_27
REMARK   21  A    between atoms: C_27  and  C_28
REMARK   22  A    between atoms: C_28  and  O_29
REMARK                            x       y       z     vdW  Elec       q    Type
REMARK                         _______ _______ _______ _____ _____    ______ ____
ROOT
ATOM      1  C   UNL     1       1.901   3.929 -23.513  0.00  0.00    -0.010 C 
ATOM      2  C   UNL     1       2.870   3.098 -23.267  0.00  0.00    +0.206 C 
ATOM      3  C   UNL     1       4.021   3.543 -22.861  0.00  0.00    +0.107 C 
ATOM      4  C   UNL     1       4.205   4.821 -22.701  0.00  0.00    +0.053 C 
ATOM      5  C   UNL     1       3.236   5.652 -22.947  0.00  0.00    +0.016 C 
ATOM      6  N   UNL     1       4.990   2.712 -22.615  0.00  0.00    -0.280 NA
ATOM      7  O   UNL     1       2.686   1.822 -23.427  0.00  0.00    -0.285 OA
ATOM      8  C   UNL     1       2.084   5.206 -23.353  0.00  0.00    -0.112 C 
ATOM      9  O   UNL     1       1.116   6.038 -23.600  0.00  0.00    -0.828 OA
ENDROOT
BRANCH   5  10
ATOM     10  N   UNL     1       3.419   6.929 -22.787  0.00  0.00    -0.345 N 
ATOM     11  H   UNL     1       2.787   7.571 -23.185  0.00  0.00    +0.146 HD
BRANCH  10  12
ATOM     12  C   UNL     1       4.437   7.359 -22.102  0.00  0.00    +0.101 C 
BRANCH  12  13
ATOM     13  C   UNL     1       4.257   8.212 -21.138  0.00  0.00    +0.021 C 
BRANCH  13  14
ATOM     14  C   UNL     1       4.285   9.489 -21.386  0.00  0.00    +0.029 C 
BRANCH  14  15
ATOM     15  C   UNL     1       5.333  10.189 -21.067  0.00  0.00    +0.156 C 
BRANCH  15  16
ATOM     16  O   UNL     1       6.233   9.688 -20.274  0.00  0.00    -0.395 OA
ATOM     17  H   UNL     1       5.837   9.509 -19.407  0.00  0.00    +0.209 HD
ENDBRANCH  15  16
ENDBRANCH  14  15
ENDBRANCH  13  14
ENDBRANCH  12  13
ENDBRANCH  10  12
ENDBRANCH   5  10
BRANCH   1  18
ATOM     18  C   UNL     1       0.749   3.485 -23.920  0.00  0.00    +0.038 C 
BRANCH  18  19
ATOM     19  C   UNL     1      -0.212   3.292 -23.064  0.00  0.00    +0.005 C 
BRANCH  19  20
ATOM     20  C   UNL     1      -1.370   3.850 -23.251  0.00  0.00    +0.000 C 
BRANCH  20  21
ATOM     21  C   UNL     1      -1.841   3.981 -24.455  0.00  0.00    +0.000 C 
BRANCH  21  22
ATOM     22  C   UNL     1      -3.103   4.242 -24.636  0.00  0.00    +0.000 C 
BRANCH  22  23
ATOM     23  C   UNL     1      -4.006   3.416 -24.199  0.00  0.00    +0.000 C 
BRANCH  23  24
ATOM     24  C   UNL     1      -5.018   3.862 -23.516  0.00  0.00    -0.000 C 
BRANCH  24  25
ATOM     25  C   UNL     1      -5.237   3.419 -22.314  0.00  0.00    -0.000 C 
BRANCH  25  26
ATOM     26  C   UNL     1      -4.334   2.703 -21.710  0.00  0.00    -0.000 C 
BRANCH  26  28
ATOM     27  C   UNL     1      -3.106   3.715 -20.118  0.00  0.00    +0.004 C 
ATOM     28  C   UNL     1      -4.071   2.912 -20.454  0.00  0.00    -0.003 C 
ENDBRANCH  26  28
ENDBRANCH  25  26
ENDBRANCH  24  25
ENDBRANCH  23  24
ENDBRANCH  22  23
ENDBRANCH  21  22
ENDBRANCH  20  21
ENDBRANCH  19  20
ENDBRANCH  18  19
ENDBRANCH   1  18
BRANCH   6  29
ATOM     29  C   UNL     1       4.807   1.435 -22.775  0.00  0.00    +0.142 C 
BRANCH  29  30
ATOM     30  C   UNL     1       5.183   0.603 -21.849  0.00  0.00    +0.025 C 
BRANCH  30  31
ATOM     31  C   UNL     1       4.330   0.196 -20.956  0.00  0.00    +0.030 C 
BRANCH  31  32
ATOM     32  C   UNL     1       3.683   1.063 -20.234  0.00  0.00    +0.156 C 
BRANCH  32  33
ATOM     33  O   UNL     1       2.386   1.121 -20.296  0.00  0.00    -0.395 OA
ATOM     34  H   UNL     1       2.099   0.960 -21.209  0.00  0.00    +0.209 HD
ENDBRANCH  32  33
ENDBRANCH  31  32
ENDBRANCH  30  31
ENDBRANCH  29  30
ENDBRANCH   6  29
TORSDOF 21
ENDMDL
MODEL 7
REMARK VINA RESULT:    -6.990      2.311      6.936
REMARK INTER + INTRA:         -16.379
REMARK INTER:                 -13.705
REMARK INTRA:                  -2.674
REMARK UNBOUND:                -1.216
REMARK  Name = ZINC000085340947
REMARK  22 active torsions:
REMARK  status: ('A' for Active; 'I' for Inactive)
REMARK    1  A    between atoms: C_1  and  C_2
REMARK    2  A    between atoms: C_2  and  C_3
REMARK    3  A    between atoms: C_3  and  C_4
REMARK    4  A    between atoms: C_4  and  C_5
REMARK    5  A    between atoms: C_5  and  C_6
REMARK    6  A    between atoms: C_6  and  C_7
REMARK    7  A    between atoms: C_7  and  C_8
REMARK    8  A    between atoms: C_8  and  C_9
REMARK    9  A    between atoms: C_9  and  C_10
REMARK   10  A    between atoms: C_10  and  C_11
REMARK   11  A    between atoms: C_11  and  C_12
REMARK   12  A    between atoms: N_16  and  C_17
REMARK   13  A    between atoms: C_17  and  C_18
REMARK   14  A    between atoms: C_18  and  C_19
REMARK   15  A    between atoms: C_19  and  C_20
REMARK   16  A    between atoms: C_20  and  O_21
REMARK   17  A    between atoms: C_23  and  N_24
REMARK   18  A    between atoms: N_24  and  C_25
REMARK   19  A    between atoms: C_25  and  C_26
REMARK   20  A    between atoms: C_26  and  C_27
REMARK   21  A    between atoms: C_27  and  C_28
REMARK   22  A    between atoms: C_28  and  O_29
REMARK                            x       y       z     vdW  Elec       q    Type
REMARK                         _______ _______ _______ _____ _____    ______ ____
ROOT
ATOM      1  C   UNL     1       0.402   2.871 -23.541  0.00  0.00    -0.010 C 
ATOM      2  C   UNL     1      -0.665   3.051 -22.819  0.00  0.00    +0.206 C 
ATOM      3  C   UNL     1      -0.828   2.376 -21.721  0.00  0.00    +0.107 C 
ATOM      4  C   UNL     1       0.075   1.520 -21.343  0.00  0.00    +0.053 C 
ATOM      5  C   UNL     1       1.142   1.340 -22.064  0.00  0.00    +0.016 C 
ATOM      6  N   UNL     1      -1.895   2.556 -21.000  0.00  0.00    -0.280 NA
ATOM      7  O   UNL     1      -1.567   3.906 -23.197  0.00  0.00    -0.285 OA
ATOM      8  C   UNL     1       1.305   2.015 -23.163  0.00  0.00    -0.112 C 
ATOM      9  O   UNL     1       2.371   1.835 -23.884  0.00  0.00    -0.828 OA
ENDROOT
BRANCH   5  10
ATOM     10  N   UNL     1       2.045   0.484 -21.687  0.00  0.00    -0.345 N 
ATOM     11  H   UNL     1       2.181  -0.346 -22.199  0.00  0.00    +0.146 HD
BRANCH  10  12
ATOM     12  C   UNL     1       2.768   0.725 -20.634  0.00  0.00    +0.101 C 
BRANCH  12  13
ATOM     13  C   UNL     1       4.057   0.561 -20.680  0.00  0.00    +0.021 C 
BRANCH  13  14
ATOM     14  C   UNL     1       4.820   1.519 -21.116  0.00  0.00    +0.029 C 
BRANCH  14  15
ATOM     15  C   UNL     1       5.452   1.384 -22.244  0.00  0.00    +0.156 C 
BRANCH  15  16
ATOM     16  O   UNL     1       4.882   0.772 -23.239  0.00  0.00    -0.395 OA
ATOM     17  H   UNL     1       4.155   1.315 -23.581  0.00  0.00    +0.209 HD
ENDBRANCH  15  16
ENDBRANCH  14  15
ENDBRANCH  13  14
ENDBRANCH  12  13
ENDBRANCH  10  12
ENDBRANCH   5  10
BRANCH   1  18
ATOM     18  C   UNL     1       0.566   3.546 -24.640  0.00  0.00    +0.038 C 
BRANCH  18  19
ATOM     19  C   UNL     1       1.392   4.550 -24.668  0.00  0.00    +0.005 C 
BRANCH  19  20
ATOM     20  C   UNL     1       1.557   5.286 -23.610  0.00  0.00    +0.000 C 
BRANCH  20  21
ATOM     21  C   UNL     1       2.753   5.635 -23.241  0.00  0.00    +0.000 C 
BRANCH  21  22
ATOM     22  C   UNL     1       3.603   4.731 -22.850  0.00  0.00    +0.000 C 
BRANCH  22  23
ATOM     23  C   UNL     1       4.852   4.818 -23.200  0.00  0.00    +0.000 C 
BRANCH  23  24
ATOM     24  C   UNL     1       5.762   5.057 -22.304  0.00  0.00    -0.000 C 
BRANCH  24  25
ATOM     25  C   UNL     1       6.420   6.178 -22.330  0.00  0.00    -0.000 C 
BRANCH  25  26
ATOM     26  C   UNL     1       6.251   7.054 -21.384  0.00  0.00    -0.000 C 
BRANCH  26  28
ATOM     27  C   UNL     1       4.467   8.269 -20.746  0.00  0.00    +0.004 C 
ATOM     28  C   UNL     1       5.453   8.063 -21.568  0.00  0.00    -0.003 C 
ENDBRANCH  26  28
ENDBRANCH  25  26
ENDBRANCH  24  25
ENDBRANCH  23  24
ENDBRANCH  22  23
ENDBRANCH  21  22
ENDBRANCH  20  21
ENDBRANCH  19  20
ENDBRANCH  18  19
ENDBRANCH   1  18
BRANCH   6  29
ATOM     29  C   UNL     1      -2.798   3.411 -21.377  0.00  0.00    +0.142 C 
BRANCH  29  30
ATOM     30  C   UNL     1      -4.034   3.258 -21.006  0.00  0.00    +0.025 C 
BRANCH  30  31
ATOM     31  C   UNL     1      -4.933   2.900 -21.874  0.00  0.00    +0.030 C 
BRANCH  31  32
ATOM     32  C   UNL     1      -5.178   3.655 -22.904  0.00  0.00    +0.156 C 
BRANCH  32  33
ATOM     33  O   UNL     1      -4.506   3.490 -24.004  0.00  0.00    -0.395 OA
ATOM     34  H   UNL     1      -4.316   4.355 -24.401  0.00  0.00    +0.209 HD
ENDBRANCH  32  33
ENDBRANCH  31  32
ENDBRANCH  30  31
ENDBRANCH  29  30
ENDBRANCH   6  29
TORSDOF 21
ENDMDL
MODEL 8
REMARK VINA RESULT:    -6.972      2.548      4.314
REMARK INTER + INTRA:         -16.339
REMARK INTER:                 -15.469
REMARK INTRA:                  -0.870
REMARK UNBOUND:                -1.216
REMARK  Name = ZINC000085340947
REMARK  22 active torsions:
REMARK  status: ('A' for Active; 'I' for Inactive)
REMARK    1  A    between atoms: C_1  and  C_2
REMARK    2  A    between atoms: C_2  and  C_3
REMARK    3  A    between atoms: C_3  and  C_4
REMARK    4  A    between atoms: C_4  and  C_5
REMARK    5  A    between atoms: C_5  and  C_6
REMARK    6  A    between atoms: C_6  and  C_7
REMARK    7  A    between atoms: C_7  and  C_8
REMARK    8  A    between atoms: C_8  and  C_9
REMARK    9  A    between atoms: C_9  and  C_10
REMARK   10  A    between atoms: C_10  and  C_11
REMARK   11  A    between atoms: C_11  and  C_12
REMARK   12  A    between atoms: N_16  and  C_17
REMARK   13  A    between atoms: C_17  and  C_18
REMARK   14  A    between atoms: C_18  and  C_19
REMARK   15  A    between atoms: C_19  and  C_20
REMARK   16  A    between atoms: C_20  and  O_21
REMARK   17  A    between atoms: C_23  and  N_24
REMARK   18  A    between atoms: N_24  and  C_25
REMARK   19  A    between atoms: C_25  and  C_26
REMARK   20  A    between atoms: C_26  and  C_27
REMARK   21  A    between atoms: C_27  and  C_28
REMARK   22  A    between atoms: C_28  and  O_29
REMARK                            x       y       z     vdW  Elec       q    Type
REMARK                         _______ _______ _______ _____ _____    ______ ____
ROOT
ATOM      1  C   UNL     1       0.797   1.649 -21.604  0.00  0.00    -0.010 C 
ATOM      2  C   UNL     1       1.013   1.859 -22.869  0.00  0.00    +0.206 C 
ATOM      3  C   UNL     1       2.230   1.889 -23.324  0.00  0.00    +0.107 C 
ATOM      4  C   UNL     1       3.232   1.711 -22.514  0.00  0.00    +0.053 C 
ATOM      5  C   UNL     1       3.016   1.501 -21.249  0.00  0.00    +0.016 C 
ATOM      6  N   UNL     1       2.446   2.099 -24.588  0.00  0.00    -0.280 NA
ATOM      7  O   UNL     1       0.012   2.037 -23.677  0.00  0.00    -0.285 OA
ATOM      8  C   UNL     1       1.798   1.471 -20.794  0.00  0.00    -0.112 C 
ATOM      9  O   UNL     1       1.583   1.261 -19.529  0.00  0.00    -0.828 OA
ENDROOT
BRANCH   5  10
ATOM     10  N   UNL     1       4.017   1.323 -20.440  0.00  0.00    -0.345 N 
ATOM     11  H   UNL     1       3.857   1.004 -19.521  0.00  0.00    +0.146 HD
BRANCH  10  12
ATOM     12  C   UNL     1       5.229   1.565 -20.842  0.00  0.00    +0.101 C 
BRANCH  12  13
ATOM     13  C   UNL     1       5.803   2.690 -20.537  0.00  0.00    +0.021 C 
BRANCH  13  14
ATOM     14  C   UNL     1       6.415   3.378 -21.455  0.00  0.00    +0.029 C 
BRANCH  14  15
ATOM     15  C   UNL     1       6.517   2.907 -22.662  0.00  0.00    +0.156 C 
BRANCH  15  16
ATOM     16  O   UNL     1       7.621   2.341 -23.047  0.00  0.00    -0.395 OA
ATOM     17  H   UNL     1       7.986   1.814 -22.320  0.00  0.00    +0.209 HD
ENDBRANCH  15  16
ENDBRANCH  14  15
ENDBRANCH  13  14
ENDBRANCH  12  13
ENDBRANCH  10  12
ENDBRANCH   5  10
BRANCH   1  18
ATOM     18  C   UNL     1      -0.420   1.618 -21.148  0.00  0.00    +0.038 C 
BRANCH  18  19
ATOM     19  C   UNL     1      -1.257   2.561 -21.466  0.00  0.00    +0.005 C 
BRANCH  19  20
ATOM     20  C   UNL     1      -2.362   2.702 -20.797  0.00  0.00    +0.000 C 
BRANCH  20  21
ATOM     21  C   UNL     1      -3.452   2.129 -21.214  0.00  0.00    +0.000 C 
BRANCH  21  22
ATOM     22  C   UNL     1      -4.564   2.802 -21.259  0.00  0.00    +0.000 C 
BRANCH  22  23
ATOM     23  C   UNL     1      -4.682   3.810 -22.071  0.00  0.00    +0.000 C 
BRANCH  23  24
ATOM     24  C   UNL     1      -5.145   3.626 -23.271  0.00  0.00    -0.000 C 
BRANCH  24  25
ATOM     25  C   UNL     1      -4.489   4.080 -24.297  0.00  0.00    -0.000 C 
BRANCH  25  26
ATOM     26  C   UNL     1      -3.254   3.719 -24.491  0.00  0.00    -0.000 C 
BRANCH  26  28
ATOM     27  C   UNL     1      -3.031   3.519 -26.722  0.00  0.00    +0.004 C 
ATOM     28  C   UNL     1      -2.941   3.005 -25.531  0.00  0.00    -0.003 C 
ENDBRANCH  26  28
ENDBRANCH  25  26
ENDBRANCH  24  25
ENDBRANCH  23  24
ENDBRANCH  22  23
ENDBRANCH  21  22
ENDBRANCH  20  21
ENDBRANCH  19  20
ENDBRANCH  18  19
ENDBRANCH   1  18
BRANCH   6  29
ATOM     29  C   UNL     1       1.445   2.277 -25.398  0.00  0.00    +0.142 C 
BRANCH  29  30
ATOM     30  C   UNL     1       1.314   3.405 -26.031  0.00  0.00    +0.025 C 
BRANCH  30  31
ATOM     31  C   UNL     1       0.698   4.400 -25.466  0.00  0.00    +0.030 C 
BRANCH  31  32
ATOM     32  C   UNL     1       1.212   4.969 -24.415  0.00  0.00    +0.156 C 
BRANCH  32  33
ATOM     33  O   UNL     1       0.442   5.586 -23.570  0.00  0.00    -0.395 OA
ATOM     34  H   UNL     1       0.396   6.527 -23.800  0.00  0.00    +0.209 HD
ENDBRANCH  32  33
ENDBRANCH  31  32
ENDBRANCH  30  31
ENDBRANCH  29  30
ENDBRANCH   6  29
TORSDOF 21
ENDMDL
MODEL 9
REMARK VINA RESULT:    -6.523      2.790      7.448
REMARK INTER + INTRA:         -15.367
REMARK INTER:                 -14.151
REMARK INTRA:                  -1.216
REMARK UNBOUND:                -1.216
REMARK  Name = ZINC000085340947
REMARK  22 active torsions:
REMARK  status: ('A' for Active; 'I' for Inactive)
REMARK    1  A    between atoms: C_1  and  C_2
REMARK    2  A    between atoms: C_2  and  C_3
REMARK    3  A    between atoms: C_3  and  C_4
REMARK    4  A    between atoms: C_4  and  C_5
REMARK    5  A    between atoms: C_5  and  C_6
REMARK    6  A    between atoms: C_6  and  C_7
REMARK    7  A    between atoms: C_7  and  C_8
REMARK    8  A    between atoms: C_8  and  C_9
REMARK    9  A    between atoms: C_9  and  C_10
REMARK   10  A    between atoms: C_10  and  C_11
REMARK   11  A    between atoms: C_11  and  C_12
REMARK   12  A    between atoms: N_16  and  C_17
REMARK   13  A    between atoms: C_17  and  C_18
REMARK   14  A    between atoms: C_18  and  C_19
REMARK   15  A    between atoms: C_19  and  C_20
REMARK   16  A    between atoms: C_20  and  O_21
REMARK   17  A    between atoms: C_23  and  N_24
REMARK   18  A    between atoms: N_24  and  C_25
REMARK   19  A    between atoms: C_25  and  C_26
REMARK   20  A    between atoms: C_26  and  C_27
REMARK   21  A    between atoms: C_27  and  C_28
REMARK   22  A    between atoms: C_28  and  O_29
REMARK                            x       y       z     vdW  Elec       q    Type
REMARK                         _______ _______ _______ _____ _____    ______ ____
ROOT
ATOM      1  C   UNL     1       0.779   2.971 -23.567  0.00  0.00    -0.010 C 
ATOM      2  C   UNL     1      -0.367   3.072 -22.963  0.00  0.00    +0.206 C 
ATOM      3  C   UNL     1      -0.642   2.296 -21.957  0.00  0.00    +0.107 C 
ATOM      4  C   UNL     1       0.230   1.419 -21.554  0.00  0.00    +0.053 C 
ATOM      5  C   UNL     1       1.377   1.318 -22.158  0.00  0.00    +0.016 C 
ATOM      6  N   UNL     1      -1.789   2.397 -21.353  0.00  0.00    -0.280 NA
ATOM      7  O   UNL     1      -1.238   3.948 -23.365  0.00  0.00    -0.285 OA
ATOM      8  C   UNL     1       1.651   2.095 -23.164  0.00  0.00    -0.112 C 
ATOM      9  O   UNL     1       2.798   1.994 -23.768  0.00  0.00    -0.828 OA
ENDROOT
BRANCH   5  10
ATOM     10  N   UNL     1       2.248   0.442 -21.756  0.00  0.00    -0.345 N 
ATOM     11  H   UNL     1       2.266  -0.456 -22.159  0.00  0.00    +0.146 HD
BRANCH  10  12
ATOM     12  C   UNL     1       3.097   0.752 -20.821  0.00  0.00    +0.101 C 
BRANCH  12  13
ATOM     13  C   UNL     1       4.297   0.253 -20.843  0.00  0.00    +0.021 C 
BRANCH  13  14
ATOM     14  C   UNL     1       5.236   0.847 -21.520  0.00  0.00    +0.029 C 
BRANCH  14  15
ATOM     15  C   UNL     1       5.475   2.110 -21.330  0.00  0.00    +0.156 C 
BRANCH  15  16
ATOM     16  O   UNL     1       5.789   2.541 -20.145  0.00  0.00    -0.395 OA
ATOM     17  H   UNL     1       4.985   2.810 -19.674  0.00  0.00    +0.209 HD
ENDBRANCH  15  16
ENDBRANCH  14  15
ENDBRANCH  13  14
ENDBRANCH  12  13
ENDBRANCH  10  12
ENDBRANCH   5  10
BRANCH   1  18
ATOM     18  C   UNL     1       1.055   3.746 -24.573  0.00  0.00    +0.038 C 
BRANCH  18  19
ATOM     19  C   UNL     1       1.692   4.863 -24.377  0.00  0.00    +0.005 C 
BRANCH  19  20
ATOM     20  C   UNL     1       2.012   5.226 -23.171  0.00  0.00    +0.000 C 
BRANCH  20  21
ATOM     21  C   UNL     1       3.130   5.854 -22.956  0.00  0.00    +0.000 C 
BRANCH  21  22
ATOM     22  C   UNL     1       4.253   5.199 -22.958  0.00  0.00    +0.000 C 
BRANCH  22  23
ATOM     23  C   UNL     1       5.350   5.789 -22.586  0.00  0.00    +0.000 C 
BRANCH  23  24
ATOM     24  C   UNL     1       6.482   5.154 -22.648  0.00  0.00    -0.000 C 
BRANCH  24  25
ATOM     25  C   UNL     1       7.541   5.756 -23.103  0.00  0.00    -0.000 C 
BRANCH  25  26
ATOM     26  C   UNL     1       8.396   5.104 -23.834  0.00  0.00    -0.000 C 
BRANCH  26  28
ATOM     27  C   UNL     1       8.573   3.224 -25.060  0.00  0.00    +0.004 C 
ATOM     28  C   UNL     1       7.978   4.353 -24.809  0.00  0.00    -0.003 C 
ENDBRANCH  26  28
ENDBRANCH  25  26
ENDBRANCH  24  25
ENDBRANCH  23  24
ENDBRANCH  22  23
ENDBRANCH  21  22
ENDBRANCH  20  21
ENDBRANCH  19  20
ENDBRANCH  18  19
ENDBRANCH   1  18
BRANCH   6  29
ATOM     29  C   UNL     1      -2.661   3.273 -21.755  0.00  0.00    +0.142 C 
BRANCH  29  30
ATOM     30  C   UNL     1      -3.707   3.531 -21.027  0.00  0.00    +0.025 C 
BRANCH  30  31
ATOM     31  C   UNL     1      -4.663   2.656 -20.932  0.00  0.00    +0.030 C 
BRANCH  31  32
ATOM     32  C   UNL     1      -5.699   2.737 -21.714  0.00  0.00    +0.156 C 
BRANCH  32  33
ATOM     33  O   UNL     1      -5.890   3.805 -22.430  0.00  0.00    -0.395 OA
ATOM     34  H   UNL     1      -6.700   4.250 -22.138  0.00  0.00    +0.209 HD
ENDBRANCH  32  33
ENDBRANCH  31  32
ENDBRANCH  30  31
ENDBRANCH  29  30
ENDBRANCH   6  29
TORSDOF 21
ENDMDL
