MODEL 1
REMARK VINA RESULT:    -9.201      0.000      0.000
REMARK INTER + INTRA:          -9.739
REMARK INTER:                  -9.739
REMARK INTRA:                   0.000
REMARK UNBOUND:                 0.000
REMARK  Name = ZINC000006524916
REMARK  2 active torsions:
REMARK  status: ('A' for Active; 'I' for Inactive)
REMARK    1  A    between atoms: C_5  and  O_6
REMARK    2  A    between atoms: C_15  and  O_16
REMARK                            x       y       z     vdW  Elec       q    Type
REMARK                         _______ _______ _______ _____ _____    ______ ____
ROOT
ATOM      1  O   UNL     1      -3.352   4.461 -25.087  0.00  0.00    -0.286 OA
ATOM      2  C   UNL     1      -2.843   3.758 -24.120  0.00  0.00    +0.204 A 
ATOM      3  C   UNL     1      -1.582   3.442 -24.138  0.00  0.00    +0.068 A 
ATOM      4  C   UNL     1      -0.830   3.831 -25.124  0.00  0.00    +0.060 A 
ATOM      5  C   UNL     1       0.432   3.515 -25.143  0.00  0.00    +0.118 A 
ATOM      6  C   UNL     1       0.940   2.812 -24.175  0.00  0.00    +0.049 A 
ATOM      7  C   UNL     1       0.187   2.423 -23.189  0.00  0.00    +0.050 A 
ATOM      8  C   UNL     1      -1.075   2.738 -23.170  0.00  0.00    +0.139 A 
ATOM      9  O   UNL     1      -1.827   2.350 -22.184  0.00  0.00    -0.454 OA
ATOM     10  C   UNL     1      -3.088   2.665 -22.166  0.00  0.00    +0.143 A 
ATOM     11  C   UNL     1      -3.841   2.277 -21.180  0.00  0.00    +0.047 A 
ATOM     12  C   UNL     1      -5.102   2.592 -21.162  0.00  0.00    +0.007 A 
ATOM     13  C   UNL     1      -5.610   3.296 -22.130  0.00  0.00    +0.046 A 
ATOM     14  C   UNL     1      -4.857   3.684 -23.116  0.00  0.00    +0.131 A 
ATOM     15  C   UNL     1      -3.597   3.369 -23.134  0.00  0.00    +0.106 A 
ENDROOT
BRANCH   5  16
ATOM     16  O   UNL     1       1.185   3.904 -26.129  0.00  0.00    -0.507 OA
ATOM     17  H   UNL     1       0.803   4.089 -26.964  0.00  0.00    +0.292 HD
ENDBRANCH   5  16
BRANCH  14  18
ATOM     18  O   UNL     1      -5.365   4.388 -24.083  0.00  0.00    -0.506 OA
ATOM     19  H   UNL     1      -5.216   4.137 -24.974  0.00  0.00    +0.292 HD
ENDBRANCH  14  18
TORSDOF 2
ENDMDL
MODEL 2
REMARK VINA RESULT:    -8.960      1.372      1.843
REMARK INTER + INTRA:          -9.484
REMARK INTER:                  -9.484
REMARK INTRA:                   0.000
REMARK UNBOUND:                 0.000
REMARK  Name = ZINC000006524916
REMARK  2 active torsions:
REMARK  status: ('A' for Active; 'I' for Inactive)
REMARK    1  A    between atoms: C_5  and  O_6
REMARK    2  A    between atoms: C_15  and  O_16
REMARK                            x       y       z     vdW  Elec       q    Type
REMARK                         _______ _______ _______ _____ _____    ______ ____
ROOT
ATOM      1  O   UNL     1      -1.649   3.737 -24.844  0.00  0.00    -0.286 OA
ATOM      2  C   UNL     1      -1.874   3.191 -23.686  0.00  0.00    +0.204 A 
ATOM      3  C   UNL     1      -0.902   2.631 -23.030  0.00  0.00    +0.068 A 
ATOM      4  C   UNL     1       0.297   2.617 -23.532  0.00  0.00    +0.060 A 
ATOM      5  C   UNL     1       1.271   2.058 -22.876  0.00  0.00    +0.118 A 
ATOM      6  C   UNL     1       1.044   1.512 -21.718  0.00  0.00    +0.049 A 
ATOM      7  C   UNL     1      -0.154   1.526 -21.216  0.00  0.00    +0.050 A 
ATOM      8  C   UNL     1      -1.128   2.085 -21.872  0.00  0.00    +0.139 A 
ATOM      9  O   UNL     1      -2.327   2.099 -21.370  0.00  0.00    -0.454 OA
ATOM     10  C   UNL     1      -3.299   2.658 -22.025  0.00  0.00    +0.143 A 
ATOM     11  C   UNL     1      -4.498   2.672 -21.523  0.00  0.00    +0.047 A 
ATOM     12  C   UNL     1      -5.472   3.232 -22.179  0.00  0.00    +0.007 A 
ATOM     13  C   UNL     1      -5.245   3.777 -23.337  0.00  0.00    +0.046 A 
ATOM     14  C   UNL     1      -4.046   3.764 -23.839  0.00  0.00    +0.131 A 
ATOM     15  C   UNL     1      -3.074   3.204 -23.184  0.00  0.00    +0.106 A 
ENDROOT
BRANCH   5  16
ATOM     16  O   UNL     1       2.470   2.044 -23.378  0.00  0.00    -0.507 OA
ATOM     17  H   UNL     1       3.172   2.466 -22.924  0.00  0.00    +0.292 HD
ENDBRANCH   5  16
BRANCH  14  18
ATOM     18  O   UNL     1      -3.820   4.310 -24.997  0.00  0.00    -0.506 OA
ATOM     19  H   UNL     1      -3.655   3.770 -25.746  0.00  0.00    +0.292 HD
ENDBRANCH  14  18
TORSDOF 2
ENDMDL
MODEL 3
REMARK VINA RESULT:    -8.842      1.094      4.828
REMARK INTER + INTRA:          -9.359
REMARK INTER:                  -9.359
REMARK INTRA:                   0.000
REMARK UNBOUND:                 0.000
REMARK  Name = ZINC000006524916
REMARK  2 active torsions:
REMARK  status: ('A' for Active; 'I' for Inactive)
REMARK    1  A    between atoms: C_5  and  O_6
REMARK    2  A    between atoms: C_15  and  O_16
REMARK                            x       y       z     vdW  Elec       q    Type
REMARK                         _______ _______ _______ _____ _____    ______ ____
ROOT
ATOM      1  O   UNL     1      -1.761   3.384 -25.114  0.00  0.00    -0.286 OA
ATOM      2  C   UNL     1      -1.614   2.982 -23.887  0.00  0.00    +0.204 A 
ATOM      3  C   UNL     1      -2.630   2.979 -23.076  0.00  0.00    +0.068 A 
ATOM      4  C   UNL     1      -3.794   3.379 -23.493  0.00  0.00    +0.060 A 
ATOM      5  C   UNL     1      -4.811   3.376 -22.683  0.00  0.00    +0.118 A 
ATOM      6  C   UNL     1      -4.663   2.974 -21.456  0.00  0.00    +0.049 A 
ATOM      7  C   UNL     1      -3.498   2.574 -21.039  0.00  0.00    +0.050 A 
ATOM      8  C   UNL     1      -2.481   2.577 -21.849  0.00  0.00    +0.139 A 
ATOM      9  O   UNL     1      -1.316   2.177 -21.432  0.00  0.00    -0.454 OA
ATOM     10  C   UNL     1      -0.300   2.180 -22.243  0.00  0.00    +0.143 A 
ATOM     11  C   UNL     1       0.864   1.781 -21.826  0.00  0.00    +0.047 A 
ATOM     12  C   UNL     1       1.881   1.783 -22.636  0.00  0.00    +0.007 A 
ATOM     13  C   UNL     1       1.733   2.186 -23.863  0.00  0.00    +0.046 A 
ATOM     14  C   UNL     1       0.568   2.585 -24.280  0.00  0.00    +0.131 A 
ATOM     15  C   UNL     1      -0.448   2.582 -23.470  0.00  0.00    +0.106 A 
ENDROOT
BRANCH   5  16
ATOM     16  O   UNL     1      -5.976   3.776 -23.100  0.00  0.00    -0.507 OA
ATOM     17  H   UNL     1      -6.504   4.326 -22.556  0.00  0.00    +0.292 HD
ENDBRANCH   5  16
BRANCH  14  18
ATOM     18  O   UNL     1       0.419   2.987 -25.508  0.00  0.00    -0.506 OA
ATOM     19  H   UNL     1      -0.338   2.731 -25.996  0.00  0.00    +0.292 HD
ENDBRANCH  14  18
TORSDOF 2
ENDMDL
MODEL 4
REMARK VINA RESULT:    -8.837      1.650      3.110
REMARK INTER + INTRA:          -9.354
REMARK INTER:                  -9.354
REMARK INTRA:                   0.000
REMARK UNBOUND:                 0.000
REMARK  Name = ZINC000006524916
REMARK  2 active torsions:
REMARK  status: ('A' for Active; 'I' for Inactive)
REMARK    1  A    between atoms: C_5  and  O_6
REMARK    2  A    between atoms: C_15  and  O_16
REMARK                            x       y       z     vdW  Elec       q    Type
REMARK                         _______ _______ _______ _____ _____    ______ ____
ROOT
ATOM      1  O   UNL     1      -3.222   2.267 -21.005  0.00  0.00    -0.286 OA
ATOM      2  C   UNL     1      -2.662   2.626 -22.122  0.00  0.00    +0.204 A 
ATOM      3  C   UNL     1      -1.390   2.434 -22.302  0.00  0.00    +0.068 A 
ATOM      4  C   UNL     1      -0.676   1.883 -21.366  0.00  0.00    +0.060 A 
ATOM      5  C   UNL     1       0.597   1.691 -21.546  0.00  0.00    +0.118 A 
ATOM      6  C   UNL     1       1.156   2.050 -22.663  0.00  0.00    +0.049 A 
ATOM      7  C   UNL     1       0.443   2.601 -23.600  0.00  0.00    +0.050 A 
ATOM      8  C   UNL     1      -0.831   2.793 -23.420  0.00  0.00    +0.139 A 
ATOM      9  O   UNL     1      -1.544   3.344 -24.356  0.00  0.00    -0.454 OA
ATOM     10  C   UNL     1      -2.817   3.536 -24.176  0.00  0.00    +0.143 A 
ATOM     11  C   UNL     1      -3.530   4.087 -25.112  0.00  0.00    +0.047 A 
ATOM     12  C   UNL     1      -4.803   4.279 -24.932  0.00  0.00    +0.007 A 
ATOM     13  C   UNL     1      -5.363   3.919 -23.815  0.00  0.00    +0.046 A 
ATOM     14  C   UNL     1      -4.649   3.368 -22.878  0.00  0.00    +0.131 A 
ATOM     15  C   UNL     1      -3.377   3.177 -23.059  0.00  0.00    +0.106 A 
ENDROOT
BRANCH   5  16
ATOM     16  O   UNL     1       1.311   1.140 -20.610  0.00  0.00    -0.507 OA
ATOM     17  H   UNL     1       1.263   0.215 -20.468  0.00  0.00    +0.292 HD
ENDBRANCH   5  16
BRANCH  14  18
ATOM     18  O   UNL     1      -5.208   3.009 -21.761  0.00  0.00    -0.506 OA
ATOM     19  H   UNL     1      -5.948   3.482 -21.433  0.00  0.00    +0.292 HD
ENDBRANCH  14  18
TORSDOF 2
ENDMDL
MODEL 5
REMARK VINA RESULT:    -8.599      1.313      5.297
REMARK INTER + INTRA:          -9.102
REMARK INTER:                  -9.102
REMARK INTRA:                   0.000
REMARK UNBOUND:                 0.000
REMARK  Name = ZINC000006524916
REMARK  2 active torsions:
REMARK  status: ('A' for Active; 'I' for Inactive)
REMARK    1  A    between atoms: C_5  and  O_6
REMARK    2  A    between atoms: C_15  and  O_16
REMARK                            x       y       z     vdW  Elec       q    Type
REMARK                         _______ _______ _______ _____ _____    ______ ____
ROOT
ATOM      1  O   UNL     1      -1.623   2.222 -21.639  0.00  0.00    -0.286 OA
ATOM      2  C   UNL     1      -1.713   2.797 -22.801  0.00  0.00    +0.204 A 
ATOM      3  C   UNL     1      -2.858   3.249 -23.216  0.00  0.00    +0.068 A 
ATOM      4  C   UNL     1      -3.915   3.126 -22.469  0.00  0.00    +0.060 A 
ATOM      5  C   UNL     1      -5.061   3.578 -22.884  0.00  0.00    +0.118 A 
ATOM      6  C   UNL     1      -5.150   4.154 -24.046  0.00  0.00    +0.049 A 
ATOM      7  C   UNL     1      -4.094   4.277 -24.793  0.00  0.00    +0.050 A 
ATOM      8  C   UNL     1      -2.947   3.825 -24.378  0.00  0.00    +0.139 A 
ATOM      9  O   UNL     1      -1.891   3.949 -25.125  0.00  0.00    -0.454 OA
ATOM     10  C   UNL     1      -0.745   3.497 -24.710  0.00  0.00    +0.143 A 
ATOM     11  C   UNL     1       0.311   3.620 -25.457  0.00  0.00    +0.047 A 
ATOM     12  C   UNL     1       1.458   3.168 -25.042  0.00  0.00    +0.007 A 
ATOM     13  C   UNL     1       1.547   2.592 -23.880  0.00  0.00    +0.046 A 
ATOM     14  C   UNL     1       0.490   2.469 -23.133  0.00  0.00    +0.131 A 
ATOM     15  C   UNL     1      -0.655   2.921 -23.548  0.00  0.00    +0.106 A 
ENDROOT
BRANCH   5  16
ATOM     16  O   UNL     1      -6.118   3.455 -22.137  0.00  0.00    -0.507 OA
ATOM     17  H   UNL     1      -6.803   2.867 -22.388  0.00  0.00    +0.292 HD
ENDBRANCH   5  16
BRANCH  14  18
ATOM     18  O   UNL     1       0.579   1.893 -21.970  0.00  0.00    -0.506 OA
ATOM     19  H   UNL     1       0.931   2.363 -21.240  0.00  0.00    +0.292 HD
ENDBRANCH  14  18
TORSDOF 2
ENDMDL
MODEL 6
REMARK VINA RESULT:    -8.224      2.511      6.158
REMARK INTER + INTRA:          -8.705
REMARK INTER:                  -8.705
REMARK INTRA:                   0.000
REMARK UNBOUND:                 0.000
REMARK  Name = ZINC000006524916
REMARK  2 active torsions:
REMARK  status: ('A' for Active; 'I' for Inactive)
REMARK    1  A    between atoms: C_5  and  O_6
REMARK    2  A    between atoms: C_15  and  O_16
REMARK                            x       y       z     vdW  Elec       q    Type
REMARK                         _______ _______ _______ _____ _____    ______ ____
ROOT
ATOM      1  O   UNL     1       0.545   1.350 -20.251  0.00  0.00    -0.286 OA
ATOM      2  C   UNL     1       0.552   1.638 -21.519  0.00  0.00    +0.204 A 
ATOM      3  C   UNL     1      -0.542   2.028 -22.103  0.00  0.00    +0.068 A 
ATOM      4  C   UNL     1      -1.642   2.131 -21.420  0.00  0.00    +0.060 A 
ATOM      5  C   UNL     1      -2.736   2.522 -22.004  0.00  0.00    +0.118 A 
ATOM      6  C   UNL     1      -2.729   2.809 -23.272  0.00  0.00    +0.049 A 
ATOM      7  C   UNL     1      -1.628   2.706 -23.955  0.00  0.00    +0.050 A 
ATOM      8  C   UNL     1      -0.534   2.315 -23.371  0.00  0.00    +0.139 A 
ATOM      9  O   UNL     1       0.567   2.212 -24.054  0.00  0.00    -0.454 OA
ATOM     10  C   UNL     1       1.660   1.821 -23.470  0.00  0.00    +0.143 A 
ATOM     11  C   UNL     1       2.761   1.718 -24.154  0.00  0.00    +0.047 A 
ATOM     12  C   UNL     1       3.855   1.327 -23.569  0.00  0.00    +0.007 A 
ATOM     13  C   UNL     1       3.847   1.040 -22.301  0.00  0.00    +0.046 A 
ATOM     14  C   UNL     1       2.747   1.143 -21.618  0.00  0.00    +0.131 A 
ATOM     15  C   UNL     1       1.653   1.534 -22.202  0.00  0.00    +0.106 A 
ENDROOT
BRANCH   5  16
ATOM     16  O   UNL     1      -3.837   2.625 -21.320  0.00  0.00    -0.507 OA
ATOM     17  H   UNL     1      -4.162   3.471 -21.081  0.00  0.00    +0.292 HD
ENDBRANCH   5  16
BRANCH  14  18
ATOM     18  O   UNL     1       2.739   0.856 -20.350  0.00  0.00    -0.506 OA
ATOM     19  H   UNL     1       2.828  -0.034 -20.070  0.00  0.00    +0.292 HD
ENDBRANCH  14  18
TORSDOF 2
ENDMDL
MODEL 7
REMARK VINA RESULT:    -8.107      3.303      5.020
REMARK INTER + INTRA:          -8.581
REMARK INTER:                  -8.581
REMARK INTRA:                   0.000
REMARK UNBOUND:                 0.000
REMARK  Name = ZINC000006524916
REMARK  2 active torsions:
REMARK  status: ('A' for Active; 'I' for Inactive)
REMARK    1  A    between atoms: C_5  and  O_6
REMARK    2  A    between atoms: C_15  and  O_16
REMARK                            x       y       z     vdW  Elec       q    Type
REMARK                         _______ _______ _______ _____ _____    ______ ____
ROOT
ATOM      1  O   UNL     1       2.369   2.273 -24.666  0.00  0.00    -0.286 OA
ATOM      2  C   UNL     1       2.013   1.957 -23.456  0.00  0.00    +0.204 A 
ATOM      3  C   UNL     1       2.891   1.484 -22.623  0.00  0.00    +0.068 A 
ATOM      4  C   UNL     1       4.125   1.327 -22.999  0.00  0.00    +0.060 A 
ATOM      5  C   UNL     1       5.004   0.854 -22.165  0.00  0.00    +0.118 A 
ATOM      6  C   UNL     1       4.648   0.539 -20.956  0.00  0.00    +0.049 A 
ATOM      7  C   UNL     1       3.414   0.695 -20.580  0.00  0.00    +0.050 A 
ATOM      8  C   UNL     1       2.535   1.168 -21.413  0.00  0.00    +0.139 A 
ATOM      9  O   UNL     1       1.300   1.325 -21.037  0.00  0.00    -0.454 OA
ATOM     10  C   UNL     1       0.422   1.797 -21.871  0.00  0.00    +0.143 A 
ATOM     11  C   UNL     1      -0.812   1.954 -21.495  0.00  0.00    +0.047 A 
ATOM     12  C   UNL     1      -1.691   2.427 -22.328  0.00  0.00    +0.007 A 
ATOM     13  C   UNL     1      -1.334   2.743 -23.538  0.00  0.00    +0.046 A 
ATOM     14  C   UNL     1      -0.100   2.586 -23.914  0.00  0.00    +0.131 A 
ATOM     15  C   UNL     1       0.778   2.113 -23.081  0.00  0.00    +0.106 A 
ENDROOT
BRANCH   5  16
ATOM     16  O   UNL     1       6.239   0.698 -22.541  0.00  0.00    -0.507 OA
ATOM     17  H   UNL     1       6.503   0.960 -23.401  0.00  0.00    +0.292 HD
ENDBRANCH   5  16
BRANCH  14  18
ATOM     18  O   UNL     1       0.256   2.902 -25.124  0.00  0.00    -0.506 OA
ATOM     19  H   UNL     1       0.000   3.727 -25.488  0.00  0.00    +0.292 HD
ENDBRANCH  14  18
TORSDOF 2
ENDMDL
MODEL 8
REMARK VINA RESULT:    -8.032      2.525      3.820
REMARK INTER + INTRA:          -8.501
REMARK INTER:                  -8.501
REMARK INTRA:                   0.000
REMARK UNBOUND:                 0.000
REMARK  Name = ZINC000006524916
REMARK  2 active torsions:
REMARK  status: ('A' for Active; 'I' for Inactive)
REMARK    1  A    between atoms: C_5  and  O_6
REMARK    2  A    between atoms: C_15  and  O_16
REMARK                            x       y       z     vdW  Elec       q    Type
REMARK                         _______ _______ _______ _____ _____    ______ ____
ROOT
ATOM      1  O   UNL     1       1.463   5.030 -23.669  0.00  0.00    -0.286 OA
ATOM      2  C   UNL     1       1.206   3.822 -23.263  0.00  0.00    +0.204 A 
ATOM      3  C   UNL     1       2.132   2.911 -23.305  0.00  0.00    +0.068 A 
ATOM      4  C   UNL     1       3.315   3.207 -23.753  0.00  0.00    +0.060 A 
ATOM      5  C   UNL     1       4.242   2.296 -23.796  0.00  0.00    +0.118 A 
ATOM      6  C   UNL     1       3.984   1.088 -23.389  0.00  0.00    +0.049 A 
ATOM      7  C   UNL     1       2.801   0.792 -22.940  0.00  0.00    +0.050 A 
ATOM      8  C   UNL     1       1.874   1.703 -22.898  0.00  0.00    +0.139 A 
ATOM      9  O   UNL     1       0.691   1.407 -22.449  0.00  0.00    -0.454 OA
ATOM     10  C   UNL     1      -0.235   2.318 -22.407  0.00  0.00    +0.143 A 
ATOM     11  C   UNL     1      -1.418   2.021 -21.958  0.00  0.00    +0.047 A 
ATOM     12  C   UNL     1      -2.345   2.933 -21.916  0.00  0.00    +0.007 A 
ATOM     13  C   UNL     1      -2.087   4.140 -22.323  0.00  0.00    +0.046 A 
ATOM     14  C   UNL     1      -0.904   4.437 -22.772  0.00  0.00    +0.131 A 
ATOM     15  C   UNL     1       0.022   3.526 -22.814  0.00  0.00    +0.106 A 
ENDROOT
BRANCH   5  16
ATOM     16  O   UNL     1       5.425   2.592 -24.244  0.00  0.00    -0.507 OA
ATOM     17  H   UNL     1       5.546   3.351 -24.781  0.00  0.00    +0.292 HD
ENDBRANCH   5  16
BRANCH  14  18
ATOM     18  O   UNL     1      -0.646   5.644 -23.178  0.00  0.00    -0.506 OA
ATOM     19  H   UNL     1      -1.008   6.380 -22.723  0.00  0.00    +0.292 HD
ENDBRANCH  14  18
TORSDOF 2
ENDMDL
MODEL 9
REMARK VINA RESULT:    -7.784      3.081      5.035
REMARK INTER + INTRA:          -8.239
REMARK INTER:                  -8.239
REMARK INTRA:                   0.000
REMARK UNBOUND:                 0.000
REMARK  Name = ZINC000006524916
REMARK  2 active torsions:
REMARK  status: ('A' for Active; 'I' for Inactive)
REMARK    1  A    between atoms: C_5  and  O_6
REMARK    2  A    between atoms: C_15  and  O_16
REMARK                            x       y       z     vdW  Elec       q    Type
REMARK                         _______ _______ _______ _____ _____    ______ ____
ROOT
ATOM      1  O   UNL     1       1.501   0.867 -22.479  0.00  0.00    -0.286 OA
ATOM      2  C   UNL     1       1.674   2.129 -22.742  0.00  0.00    +0.204 A 
ATOM      3  C   UNL     1       2.875   2.619 -22.818  0.00  0.00    +0.068 A 
ATOM      4  C   UNL     1       3.904   1.847 -22.631  0.00  0.00    +0.060 A 
ATOM      5  C   UNL     1       5.107   2.337 -22.707  0.00  0.00    +0.118 A 
ATOM      6  C   UNL     1       5.279   3.598 -22.969  0.00  0.00    +0.049 A 
ATOM      7  C   UNL     1       4.250   4.370 -23.157  0.00  0.00    +0.050 A 
ATOM      8  C   UNL     1       3.047   3.880 -23.081  0.00  0.00    +0.139 A 
ATOM      9  O   UNL     1       2.018   4.652 -23.268  0.00  0.00    -0.454 OA
ATOM     10  C   UNL     1       0.817   4.162 -23.192  0.00  0.00    +0.143 A 
ATOM     11  C   UNL     1      -0.212   4.933 -23.379  0.00  0.00    +0.047 A 
ATOM     12  C   UNL     1      -1.415   4.444 -23.304  0.00  0.00    +0.007 A 
ATOM     13  C   UNL     1      -1.587   3.182 -23.041  0.00  0.00    +0.046 A 
ATOM     14  C   UNL     1      -0.558   2.411 -22.854  0.00  0.00    +0.131 A 
ATOM     15  C   UNL     1       0.644   2.900 -22.929  0.00  0.00    +0.106 A 
ENDROOT
BRANCH   5  16
ATOM     16  O   UNL     1       6.136   1.565 -22.519  0.00  0.00    -0.507 OA
ATOM     17  H   UNL     1       6.882   1.635 -23.082  0.00  0.00    +0.292 HD
ENDBRANCH   5  16
BRANCH  14  18
ATOM     18  O   UNL     1      -0.730   1.149 -22.591  0.00  0.00    -0.506 OA
ATOM     19  H   UNL     1      -1.549   0.849 -22.247  0.00  0.00    +0.292 HD
ENDBRANCH  14  18
TORSDOF 2
ENDMDL
