MODEL 1
REMARK VINA RESULT:    -9.551      0.000      0.000
REMARK INTER + INTRA:          -9.551
REMARK INTER:                  -9.551
REMARK INTRA:                   0.000
REMARK UNBOUND:                 0.000
REMARK  Name = ZINC000012416954
REMARK  4 active torsions:
REMARK  status: ('A' for Active; 'I' for Inactive)
REMARK    1  A    between atoms: C_1  and  C_2
REMARK    2  A    between atoms: C_6  and  C_7
REMARK    3  A    between atoms: C_6  and  C_8
REMARK    4  A    between atoms: C_12  and  C_13
REMARK                            x       y       z     vdW  Elec       q    Type
REMARK                         _______ _______ _______ _____ _____    ______ ____
ROOT
ATOM      1  C   UNL     1      -4.429   2.367 -20.428  0.00  0.00    +0.016 C 
ATOM      2  C   UNL     1      -4.054   2.744 -21.585  0.00  0.00    +0.056 C 
ATOM      3  C   UNL     1      -2.830   2.616 -21.973  0.00  0.00    +0.037 C 
ATOM      4  C   UNL     1      -2.038   2.126 -21.207  0.00  0.00    -0.030 C 
ATOM      5  C   UNL     1      -0.795   1.929 -21.432  0.00  0.00    -0.024 C 
ATOM      6  C   UNL     1       0.012   2.166 -22.491  0.00  0.00    -0.010 C 
ATOM      7  C   UNL     1      -0.210   2.763 -23.856  0.00  0.00    +0.085 C 
ATOM      8  C   UNL     1      -1.262   3.356 -24.729  0.00  0.00    +0.137 C 
ATOM      9  C   UNL     1      -2.541   3.569 -24.524  0.00  0.00    +0.053 C 
ATOM     10  C   UNL     1      -3.103   3.298 -23.520  0.00  0.00    +0.018 C 
ATOM     11  C   UNL     1      -4.350   3.547 -23.423  0.00  0.00    +0.075 C 
ATOM     12  C   UNL     1      -3.240   4.114 -25.482  0.00  0.00    +0.015 C 
ATOM     13  O   UNL     1      -0.869   3.734 -25.901  0.00  0.00    -0.297 OA
ATOM     14  C   UNL     1       0.984   1.621 -21.691  0.00  0.00    +0.015 C 
ATOM     15  C   UNL     1       1.238   2.021 -22.837  0.00  0.00    +0.015 C 
ATOM     16  C   UNL     1      -4.834   3.238 -22.371  0.00  0.00    +0.136 C 
ATOM     17  O   UNL     1      -6.061   3.414 -22.101  0.00  0.00    -0.297 OA
ENDROOT
TORSDOF 0
ENDMDL
MODEL 2
REMARK VINA RESULT:    -9.551      1.549      1.865
REMARK INTER + INTRA:          -9.551
REMARK INTER:                  -9.551
REMARK INTRA:                   0.000
REMARK UNBOUND:                 0.000
REMARK  Name = ZINC000012416954
REMARK  4 active torsions:
REMARK  status: ('A' for Active; 'I' for Inactive)
REMARK    1  A    between atoms: C_1  and  C_2
REMARK    2  A    between atoms: C_6  and  C_7
REMARK    3  A    between atoms: C_6  and  C_8
REMARK    4  A    between atoms: C_12  and  C_13
REMARK                            x       y       z     vdW  Elec       q    Type
REMARK                         _______ _______ _______ _____ _____    ______ ____
ROOT
ATOM      1  C   UNL     1      -3.315   3.571 -20.486  0.00  0.00    +0.016 C 
ATOM      2  C   UNL     1      -3.556   3.532 -21.736  0.00  0.00    +0.056 C 
ATOM      3  C   UNL     1      -2.609   3.615 -22.609  0.00  0.00    +0.037 C 
ATOM      4  C   UNL     1      -1.476   3.732 -22.212  0.00  0.00    -0.030 C 
ATOM      5  C   UNL     1      -0.430   3.827 -22.938  0.00  0.00    -0.024 C 
ATOM      6  C   UNL     1      -0.216   3.832 -24.274  0.00  0.00    -0.010 C 
ATOM      7  C   UNL     1      -1.121   3.727 -25.474  0.00  0.00    +0.085 C 
ATOM      8  C   UNL     1      -2.552   3.580 -25.865  0.00  0.00    +0.137 C 
ATOM      9  C   UNL     1      -3.643   3.481 -25.141  0.00  0.00    +0.053 C 
ATOM     10  C   UNL     1      -3.656   3.494 -23.959  0.00  0.00    +0.018 C 
ATOM     11  C   UNL     1      -4.772   3.391 -23.353  0.00  0.00    +0.075 C 
ATOM     12  C   UNL     1      -4.786   3.360 -25.759  0.00  0.00    +0.015 C 
ATOM     13  O   UNL     1      -2.783   3.542 -27.136  0.00  0.00    -0.297 OA
ATOM     14  C   UNL     1       1.102   3.967 -23.919  0.00  0.00    +0.015 C 
ATOM     15  C   UNL     1       0.754   3.918 -25.108  0.00  0.00    +0.015 C 
ATOM     16  C   UNL     1      -4.687   3.415 -22.157  0.00  0.00    +0.136 C 
ATOM     17  O   UNL     1      -5.697   3.324 -21.394  0.00  0.00    -0.297 OA
ENDROOT
TORSDOF 0
ENDMDL
MODEL 3
REMARK VINA RESULT:    -9.497      1.489      4.237
REMARK INTER + INTRA:          -9.497
REMARK INTER:                  -9.497
REMARK INTRA:                   0.000
REMARK UNBOUND:                 0.000
REMARK  Name = ZINC000012416954
REMARK  4 active torsions:
REMARK  status: ('A' for Active; 'I' for Inactive)
REMARK    1  A    between atoms: C_1  and  C_2
REMARK    2  A    between atoms: C_6  and  C_7
REMARK    3  A    between atoms: C_6  and  C_8
REMARK    4  A    between atoms: C_12  and  C_13
REMARK                            x       y       z     vdW  Elec       q    Type
REMARK                         _______ _______ _______ _____ _____    ______ ____
ROOT
ATOM      1  C   UNL     1       0.076   1.534 -20.980  0.00  0.00    +0.016 C 
ATOM      2  C   UNL     1      -0.320   2.043 -22.079  0.00  0.00    +0.056 C 
ATOM      3  C   UNL     1      -1.549   2.394 -22.256  0.00  0.00    +0.037 C 
ATOM      4  C   UNL     1      -2.326   2.228 -21.348  0.00  0.00    -0.030 C 
ATOM      5  C   UNL     1      -3.570   2.518 -21.359  0.00  0.00    -0.024 C 
ATOM      6  C   UNL     1      -4.396   3.060 -22.283  0.00  0.00    -0.010 C 
ATOM      7  C   UNL     1      -4.200   3.552 -23.694  0.00  0.00    +0.085 C 
ATOM      8  C   UNL     1      -3.165   3.717 -24.754  0.00  0.00    +0.137 C 
ATOM      9  C   UNL     1      -1.885   3.428 -24.769  0.00  0.00    +0.053 C 
ATOM     10  C   UNL     1      -1.305   2.947 -23.858  0.00  0.00    +0.018 C 
ATOM     11  C   UNL     1      -0.059   2.706 -23.977  0.00  0.00    +0.075 C 
ATOM     12  C   UNL     1      -1.205   3.684 -25.854  0.00  0.00    +0.015 C 
ATOM     13  O   UNL     1      -3.580   4.235 -25.864  0.00  0.00    -0.297 OA
ATOM     14  C   UNL     1      -5.351   2.910 -21.311  0.00  0.00    +0.015 C 
ATOM     15  C   UNL     1      -5.626   3.395 -22.419  0.00  0.00    +0.015 C 
ATOM     16  C   UNL     1       0.444   2.220 -23.004  0.00  0.00    +0.136 C 
ATOM     17  O   UNL     1       1.674   1.914 -22.946  0.00  0.00    -0.297 OA
ENDROOT
TORSDOF 0
ENDMDL
MODEL 4
REMARK VINA RESULT:    -9.440      1.616      4.407
REMARK INTER + INTRA:          -9.440
REMARK INTER:                  -9.440
REMARK INTRA:                   0.000
REMARK UNBOUND:                 0.000
REMARK  Name = ZINC000012416954
REMARK  4 active torsions:
REMARK  status: ('A' for Active; 'I' for Inactive)
REMARK    1  A    between atoms: C_1  and  C_2
REMARK    2  A    between atoms: C_6  and  C_7
REMARK    3  A    between atoms: C_6  and  C_8
REMARK    4  A    between atoms: C_12  and  C_13
REMARK                            x       y       z     vdW  Elec       q    Type
REMARK                         _______ _______ _______ _____ _____    ______ ____
ROOT
ATOM      1  C   UNL     1       1.216   3.709 -23.238  0.00  0.00    +0.016 C 
ATOM      2  C   UNL     1       0.173   3.676 -23.968  0.00  0.00    +0.056 C 
ATOM      3  C   UNL     1      -1.009   3.605 -23.455  0.00  0.00    +0.037 C 
ATOM      4  C   UNL     1      -1.107   3.570 -22.254  0.00  0.00    -0.030 C 
ATOM      5  C   UNL     1      -2.196   3.500 -21.589  0.00  0.00    -0.024 C 
ATOM      6  C   UNL     1      -3.502   3.444 -21.936  0.00  0.00    -0.010 C 
ATOM      7  C   UNL     1      -4.229   3.441 -23.257  0.00  0.00    +0.085 C 
ATOM      8  C   UNL     1      -4.003   3.488 -24.729  0.00  0.00    +0.137 C 
ATOM      9  C   UNL     1      -2.899   3.560 -25.436  0.00  0.00    +0.053 C 
ATOM     10  C   UNL     1      -1.815   3.602 -24.966  0.00  0.00    +0.018 C 
ATOM     11  C   UNL     1      -0.808   3.671 -25.743  0.00  0.00    +0.075 C 
ATOM     12  C   UNL     1      -2.998   3.587 -26.737  0.00  0.00    +0.015 C 
ATOM     13  O   UNL     1      -5.069   3.453 -25.459  0.00  0.00    -0.297 OA
ATOM     14  C   UNL     1      -3.714   3.400 -20.582  0.00  0.00    +0.015 C 
ATOM     15  C   UNL     1      -4.658   3.373 -21.386  0.00  0.00    +0.015 C 
ATOM     16  C   UNL     1       0.249   3.709 -25.179  0.00  0.00    +0.136 C 
ATOM     17  O   UNL     1       1.356   3.779 -25.795  0.00  0.00    -0.297 OA
ENDROOT
TORSDOF 0
ENDMDL
MODEL 5
REMARK VINA RESULT:    -9.398      1.592      4.803
REMARK INTER + INTRA:          -9.398
REMARK INTER:                  -9.398
REMARK INTRA:                   0.000
REMARK UNBOUND:                 0.000
REMARK  Name = ZINC000012416954
REMARK  4 active torsions:
REMARK  status: ('A' for Active; 'I' for Inactive)
REMARK    1  A    between atoms: C_1  and  C_2
REMARK    2  A    between atoms: C_6  and  C_7
REMARK    3  A    between atoms: C_6  and  C_8
REMARK    4  A    between atoms: C_12  and  C_13
REMARK                            x       y       z     vdW  Elec       q    Type
REMARK                         _______ _______ _______ _____ _____    ______ ____
ROOT
ATOM      1  C   UNL     1       0.810   2.034 -23.134  0.00  0.00    +0.016 C 
ATOM      2  C   UNL     1      -0.325   2.208 -22.582  0.00  0.00    +0.056 C 
ATOM      3  C   UNL     1      -1.337   2.655 -23.246  0.00  0.00    +0.037 C 
ATOM      4  C   UNL     1      -1.185   2.909 -24.415  0.00  0.00    -0.030 C 
ATOM      5  C   UNL     1      -2.078   3.357 -25.211  0.00  0.00    -0.024 C 
ATOM      6  C   UNL     1      -3.383   3.680 -25.065  0.00  0.00    -0.010 C 
ATOM      7  C   UNL     1      -4.340   3.650 -23.901  0.00  0.00    +0.085 C 
ATOM      8  C   UNL     1      -4.427   3.308 -22.453  0.00  0.00    +0.137 C 
ATOM      9  C   UNL     1      -3.528   2.847 -21.614  0.00  0.00    +0.053 C 
ATOM     10  C   UNL     1      -2.408   2.613 -21.910  0.00  0.00    +0.018 C 
ATOM     11  C   UNL     1      -1.614   2.168 -21.017  0.00  0.00    +0.075 C 
ATOM     12  C   UNL     1      -3.886   2.634 -20.378  0.00  0.00    +0.015 C 
ATOM     13  O   UNL     1      -5.584   3.488 -21.905  0.00  0.00    -0.297 OA
ATOM     14  C   UNL     1      -3.308   3.996 -26.397  0.00  0.00    +0.015 C 
ATOM     15  C   UNL     1      -4.364   4.127 -25.761  0.00  0.00    +0.015 C 
ATOM     16  C   UNL     1      -0.500   1.960 -21.408  0.00  0.00    +0.136 C 
ATOM     17  O   UNL     1       0.421   1.515 -20.656  0.00  0.00    -0.297 OA
ENDROOT
TORSDOF 0
ENDMDL
MODEL 6
REMARK VINA RESULT:    -9.113      1.410      3.553
REMARK INTER + INTRA:          -9.113
REMARK INTER:                  -9.113
REMARK INTRA:                   0.000
REMARK UNBOUND:                 0.000
REMARK  Name = ZINC000012416954
REMARK  4 active torsions:
REMARK  status: ('A' for Active; 'I' for Inactive)
REMARK    1  A    between atoms: C_1  and  C_2
REMARK    2  A    between atoms: C_6  and  C_7
REMARK    3  A    between atoms: C_6  and  C_8
REMARK    4  A    between atoms: C_12  and  C_13
REMARK                            x       y       z     vdW  Elec       q    Type
REMARK                         _______ _______ _______ _____ _____    ______ ____
ROOT
ATOM      1  C   UNL     1      -2.333   3.702 -26.417  0.00  0.00    +0.016 C 
ATOM      2  C   UNL     1      -2.967   3.569 -25.320  0.00  0.00    +0.056 C 
ATOM      3  C   UNL     1      -2.392   3.118 -24.258  0.00  0.00    +0.037 C 
ATOM      4  C   UNL     1      -1.225   2.820 -24.324  0.00  0.00    -0.030 C 
ATOM      5  C   UNL     1      -0.509   2.361 -23.370  0.00  0.00    -0.024 C 
ATOM      6  C   UNL     1      -0.756   2.067 -22.074  0.00  0.00    -0.010 C 
ATOM      7  C   UNL     1      -1.982   2.157 -21.201  0.00  0.00    +0.085 C 
ATOM      8  C   UNL     1      -3.419   2.551 -21.220  0.00  0.00    +0.137 C 
ATOM      9  C   UNL     1      -4.176   3.024 -22.182  0.00  0.00    +0.053 C 
ATOM     10  C   UNL     1      -3.796   3.227 -23.283  0.00  0.00    +0.018 C 
ATOM     11  C   UNL     1      -4.615   3.689 -24.144  0.00  0.00    +0.075 C 
ATOM     12  C   UNL     1      -5.426   3.288 -21.914  0.00  0.00    +0.015 C 
ATOM     13  O   UNL     1      -4.051   2.412 -20.101  0.00  0.00    -0.297 OA
ATOM     14  C   UNL     1       0.565   1.703 -22.052  0.00  0.00    +0.015 C 
ATOM     15  C   UNL     1      -0.147   1.615 -21.040  0.00  0.00    +0.015 C 
ATOM     16  C   UNL     1      -4.141   3.863 -25.231  0.00  0.00    +0.136 C 
ATOM     17  O   UNL     1      -4.811   4.316 -26.209  0.00  0.00    -0.297 OA
ENDROOT
TORSDOF 0
ENDMDL
MODEL 7
REMARK VINA RESULT:    -8.841      1.705      3.377
REMARK INTER + INTRA:          -8.841
REMARK INTER:                  -8.841
REMARK INTRA:                   0.000
REMARK UNBOUND:                 0.000
REMARK  Name = ZINC000012416954
REMARK  4 active torsions:
REMARK  status: ('A' for Active; 'I' for Inactive)
REMARK    1  A    between atoms: C_1  and  C_2
REMARK    2  A    between atoms: C_6  and  C_7
REMARK    3  A    between atoms: C_6  and  C_8
REMARK    4  A    between atoms: C_12  and  C_13
REMARK                            x       y       z     vdW  Elec       q    Type
REMARK                         _______ _______ _______ _____ _____    ______ ____
ROOT
ATOM      1  C   UNL     1      -3.966   4.354 -25.866  0.00  0.00    +0.016 C 
ATOM      2  C   UNL     1      -3.585   3.895 -24.740  0.00  0.00    +0.056 C 
ATOM      3  C   UNL     1      -2.353   3.583 -24.521  0.00  0.00    +0.037 C 
ATOM      4  C   UNL     1      -1.558   3.737 -25.415  0.00  0.00    -0.030 C 
ATOM      5  C   UNL     1      -0.307   3.479 -25.363  0.00  0.00    -0.024 C 
ATOM      6  C   UNL     1       0.508   2.992 -24.401  0.00  0.00    -0.010 C 
ATOM      7  C   UNL     1       0.289   2.546 -22.978  0.00  0.00    +0.085 C 
ATOM      8  C   UNL     1      -0.767   2.392 -21.938  0.00  0.00    +0.137 C 
ATOM      9  C   UNL     1      -2.054   2.648 -21.964  0.00  0.00    +0.053 C 
ATOM     10  C   UNL     1      -2.623   3.080 -22.906  0.00  0.00    +0.018 C 
ATOM     11  C   UNL     1      -3.877   3.293 -22.826  0.00  0.00    +0.075 C 
ATOM     12  C   UNL     1      -2.755   2.413 -20.888  0.00  0.00    +0.015 C 
ATOM     13  O   UNL     1      -0.368   1.925 -20.801  0.00  0.00    -0.297 OA
ATOM     14  C   UNL     1       1.483   3.133 -25.355  0.00  0.00    +0.015 C 
ATOM     15  C   UNL     1       1.743   2.694 -24.224  0.00  0.00    +0.015 C 
ATOM     16  C   UNL     1      -4.368   3.732 -23.828  0.00  0.00    +0.136 C 
ATOM     17  O   UNL     1      -5.603   4.003 -23.927  0.00  0.00    -0.297 OA
ENDROOT
TORSDOF 0
ENDMDL
MODEL 8
REMARK VINA RESULT:    -8.654      1.590      5.416
REMARK INTER + INTRA:          -8.654
REMARK INTER:                  -8.654
REMARK INTRA:                   0.000
REMARK UNBOUND:                 0.000
REMARK  Name = ZINC000012416954
REMARK  4 active torsions:
REMARK  status: ('A' for Active; 'I' for Inactive)
REMARK    1  A    between atoms: C_1  and  C_2
REMARK    2  A    between atoms: C_6  and  C_7
REMARK    3  A    between atoms: C_6  and  C_8
REMARK    4  A    between atoms: C_12  and  C_13
REMARK                            x       y       z     vdW  Elec       q    Type
REMARK                         _______ _______ _______ _____ _____    ______ ____
ROOT
ATOM      1  C   UNL     1       0.744   3.751 -25.873  0.00  0.00    +0.016 C 
ATOM      2  C   UNL     1       0.276   3.339 -24.763  0.00  0.00    +0.056 C 
ATOM      3  C   UNL     1      -0.982   3.421 -24.489  0.00  0.00    +0.037 C 
ATOM      4  C   UNL     1      -1.715   3.902 -25.317  0.00  0.00    -0.030 C 
ATOM      5  C   UNL     1      -2.979   4.056 -25.205  0.00  0.00    -0.024 C 
ATOM      6  C   UNL     1      -3.873   3.772 -24.231  0.00  0.00    -0.010 C 
ATOM      7  C   UNL     1      -3.759   3.152 -22.862  0.00  0.00    +0.085 C 
ATOM      8  C   UNL     1      -2.774   2.574 -21.905  0.00  0.00    +0.137 C 
ATOM      9  C   UNL     1      -1.475   2.404 -21.995  0.00  0.00    +0.053 C 
ATOM     10  C   UNL     1      -0.831   2.714 -22.936  0.00  0.00    +0.018 C 
ATOM     11  C   UNL     1       0.426   2.506 -22.920  0.00  0.00    +0.075 C 
ATOM     12  C   UNL     1      -0.850   1.861 -20.986  0.00  0.00    +0.015 C 
ATOM     13  O   UNL     1      -3.261   2.159 -20.782  0.00  0.00    -0.297 OA
ATOM     14  C   UNL     1      -4.784   4.303 -25.108  0.00  0.00    +0.015 C 
ATOM     15  C   UNL     1      -5.130   3.871 -23.998  0.00  0.00    +0.015 C 
ATOM     16  C   UNL     1       0.996   2.852 -23.917  0.00  0.00    +0.136 C 
ATOM     17  O   UNL     1       2.248   2.720 -24.074  0.00  0.00    -0.297 OA
ENDROOT
TORSDOF 0
ENDMDL
MODEL 9
REMARK VINA RESULT:    -6.997      4.447      7.142
REMARK INTER + INTRA:          -6.997
REMARK INTER:                  -6.997
REMARK INTRA:                   0.000
REMARK UNBOUND:                 0.000
REMARK  Name = ZINC000012416954
REMARK  4 active torsions:
REMARK  status: ('A' for Active; 'I' for Inactive)
REMARK    1  A    between atoms: C_1  and  C_2
REMARK    2  A    between atoms: C_6  and  C_7
REMARK    3  A    between atoms: C_6  and  C_8
REMARK    4  A    between atoms: C_12  and  C_13
REMARK                            x       y       z     vdW  Elec       q    Type
REMARK                         _______ _______ _______ _____ _____    ______ ____
ROOT
ATOM      1  C   UNL     1       1.607   4.176 -24.235  0.00  0.00    +0.016 C 
ATOM      2  C   UNL     1       2.132   3.364 -23.406  0.00  0.00    +0.056 C 
ATOM      3  C   UNL     1       3.318   3.552 -22.935  0.00  0.00    +0.037 C 
ATOM      4  C   UNL     1       3.929   4.525 -23.302  0.00  0.00    -0.030 C 
ATOM      5  C   UNL     1       5.107   4.857 -22.935  0.00  0.00    -0.024 C 
ATOM      6  C   UNL     1       6.014   4.308 -22.096  0.00  0.00    -0.010 C 
ATOM      7  C   UNL     1       6.022   3.072 -21.234  0.00  0.00    +0.085 C 
ATOM      8  C   UNL     1       5.188   1.900 -20.843  0.00  0.00    +0.137 C 
ATOM      9  C   UNL     1       3.979   1.537 -21.203  0.00  0.00    +0.053 C 
ATOM     10  C   UNL     1       3.306   2.142 -21.963  0.00  0.00    +0.018 C 
ATOM     11  C   UNL     1       2.144   1.701 -22.245  0.00  0.00    +0.075 C 
ATOM     12  C   UNL     1       3.484   0.442 -20.693  0.00  0.00    +0.015 C 
ATOM     13  O   UNL     1       5.732   1.084 -20.001  0.00  0.00    -0.297 OA
ATOM     14  C   UNL     1       6.785   5.385 -22.453  0.00  0.00    +0.015 C 
ATOM     15  C   UNL     1       7.197   4.532 -21.652  0.00  0.00    +0.015 C 
ATOM     16  C   UNL     1       1.535   2.379 -23.024  0.00  0.00    +0.136 C 
ATOM     17  O   UNL     1       0.363   2.091 -23.417  0.00  0.00    -0.297 OA
ENDROOT
TORSDOF 0
ENDMDL
