MODEL 1
REMARK VINA RESULT:   -11.094      0.000      0.000
REMARK INTER + INTRA:         -12.627
REMARK INTER:                 -12.760
REMARK INTRA:                   0.133
REMARK UNBOUND:                 0.088
REMARK  Name = ZINC000013423760
REMARK  6 active torsions:
REMARK  status: ('A' for Active; 'I' for Inactive)
REMARK    1  A    between atoms: C_1  and  C_2
REMARK    2  A    between atoms: C_2  and  C_3
REMARK    3  A    between atoms: C_3  and  O_4
REMARK    4  A    between atoms: C_13  and  O_14
REMARK    5  A    between atoms: C_17  and  C_18
REMARK    6  A    between atoms: C_22  and  C_23
REMARK                            x       y       z     vdW  Elec       q    Type
REMARK                         _______ _______ _______ _____ _____    ______ ____
ROOT
ATOM      1  C   UNL     1      -4.369   3.277 -22.580  0.00  0.00    +0.071 C 
ATOM      2  C   UNL     1      -4.429   2.761 -21.376  0.00  0.00    +0.035 C 
ATOM      3  C   UNL     1      -3.231   2.328 -21.063  0.00  0.00    +0.007 C 
ATOM      4  C   UNL     1      -2.431   2.576 -22.071  0.00  0.00    +0.001 C 
ATOM      5  C   UNL     1      -1.155   2.343 -22.254  0.00  0.00    +0.000 C 
ATOM      6  C   UNL     1      -0.456   1.755 -21.310  0.00  0.00    +0.031 C 
ATOM      7  C   UNL     1       0.822   1.521 -21.493  0.00  0.00    -0.027 C 
ATOM      8  C   UNL     1       1.400   1.873 -22.614  0.00  0.00    -0.065 C 
ATOM      9  C   UNL     1       2.678   1.640 -22.797  0.00  0.00    +0.062 C 
ATOM     10  C   UNL     1       3.256   1.992 -23.919  0.00  0.00    +0.119 C 
ATOM     11  C   UNL     1       2.560   2.579 -24.864  0.00  0.00    +0.032 C 
ATOM     12  C   UNL     1       1.280   2.813 -24.680  0.00  0.00    +0.014 C 
ATOM     13  C   UNL     1       0.702   2.461 -23.558  0.00  0.00    -0.008 C 
ATOM     14  C   UNL     1       0.002   3.048 -24.500  0.00  0.00    +0.016 C 
ATOM     15  C   UNL     1      -0.576   2.695 -23.376  0.00  0.00    +0.003 C 
ATOM     16  C   UNL     1      -1.277   3.283 -24.320  0.00  0.00    +0.005 C 
ATOM     17  C   UNL     1      -2.554   3.517 -24.136  0.00  0.00    +0.010 C 
ATOM     18  C   UNL     1      -3.133   3.164 -23.014  0.00  0.00    -0.000 C 
ATOM     19  C   UNL     1      -3.857   3.740 -23.916  0.00  0.00    +0.014 C 
ENDROOT
BRANCH   1  21
ATOM     20  C   UNL     1      -6.378   2.620 -21.718  0.00  0.00    +0.007 C 
ATOM     21  C   UNL     1      -5.651   3.493 -22.354  0.00  0.00    +0.032 C 
ENDBRANCH   1  21
BRANCH  10  22
ATOM     22  O   UNL     1       4.536   1.757 -24.101  0.00  0.00    -0.391 OA
ATOM     23  H   UNL     1       4.801   2.070 -24.979  0.00  0.00    +0.210 HD
ENDBRANCH  10  22
BRANCH   1  24
ATOM     24  O   UNL     1      -4.650   3.731 -23.452  0.00  0.00    -0.388 OA
ATOM     25  H   UNL     1      -5.617   3.797 -23.484  0.00  0.00    +0.210 HD
ENDBRANCH   1  24
TORSDOF 3
ENDMDL
MODEL 2
REMARK VINA RESULT:   -10.951      0.945      6.512
REMARK INTER + INTRA:         -12.464
REMARK INTER:                 -12.515
REMARK INTRA:                   0.051
REMARK UNBOUND:                 0.088
REMARK  Name = ZINC000013423760
REMARK  6 active torsions:
REMARK  status: ('A' for Active; 'I' for Inactive)
REMARK    1  A    between atoms: C_1  and  C_2
REMARK    2  A    between atoms: C_2  and  C_3
REMARK    3  A    between atoms: C_3  and  O_4
REMARK    4  A    between atoms: C_13  and  O_14
REMARK    5  A    between atoms: C_17  and  C_18
REMARK    6  A    between atoms: C_22  and  C_23
REMARK                            x       y       z     vdW  Elec       q    Type
REMARK                         _______ _______ _______ _____ _____    ______ ____
ROOT
ATOM      1  C   UNL     1       2.459   2.124 -23.478  0.00  0.00    +0.071 C 
ATOM      2  C   UNL     1       2.524   2.671 -24.667  0.00  0.00    +0.035 C 
ATOM      3  C   UNL     1       1.322   3.093 -24.984  0.00  0.00    +0.007 C 
ATOM      4  C   UNL     1       0.515   2.807 -23.991  0.00  0.00    +0.001 C 
ATOM      5  C   UNL     1      -0.766   3.015 -23.817  0.00  0.00    +0.000 C 
ATOM      6  C   UNL     1      -1.465   3.616 -24.753  0.00  0.00    +0.031 C 
ATOM      7  C   UNL     1      -2.747   3.825 -24.579  0.00  0.00    -0.027 C 
ATOM      8  C   UNL     1      -3.332   3.436 -23.474  0.00  0.00    -0.065 C 
ATOM      9  C   UNL     1      -4.616   3.644 -23.299  0.00  0.00    +0.062 C 
ATOM     10  C   UNL     1      -5.201   3.255 -22.194  0.00  0.00    +0.119 C 
ATOM     11  C   UNL     1      -4.505   2.655 -21.256  0.00  0.00    +0.032 C 
ATOM     12  C   UNL     1      -3.220   2.446 -21.432  0.00  0.00    +0.014 C 
ATOM     13  C   UNL     1      -2.635   2.835 -22.537  0.00  0.00    -0.008 C 
ATOM     14  C   UNL     1      -1.936   2.236 -21.603  0.00  0.00    +0.016 C 
ATOM     15  C   UNL     1      -1.352   2.626 -22.710  0.00  0.00    +0.003 C 
ATOM     16  C   UNL     1      -0.652   2.025 -21.774  0.00  0.00    +0.005 C 
ATOM     17  C   UNL     1       0.631   1.817 -21.949  0.00  0.00    +0.010 C 
ATOM     18  C   UNL     1       1.216   2.206 -23.055  0.00  0.00    -0.000 C 
ATOM     19  C   UNL     1       1.940   1.620 -22.160  0.00  0.00    +0.014 C 
ENDROOT
BRANCH   1  21
ATOM     20  C   UNL     1       4.586   2.930 -23.672  0.00  0.00    +0.007 C 
ATOM     21  C   UNL     1       3.746   1.935 -23.695  0.00  0.00    +0.032 C 
ENDBRANCH   1  21
BRANCH  10  22
ATOM     22  O   UNL     1      -6.486   3.465 -22.020  0.00  0.00    -0.391 OA
ATOM     23  H   UNL     1      -6.904   2.654 -21.691  0.00  0.00    +0.210 HD
ENDBRANCH  10  22
BRANCH   1  24
ATOM     24  O   UNL     1       2.737   1.653 -22.615  0.00  0.00    -0.388 OA
ATOM     25  H   UNL     1       2.309   0.784 -22.568  0.00  0.00    +0.210 HD
ENDBRANCH   1  24
TORSDOF 3
ENDMDL
MODEL 3
REMARK VINA RESULT:   -10.749      0.973      2.516
REMARK INTER + INTRA:         -12.232
REMARK INTER:                 -12.439
REMARK INTRA:                   0.207
REMARK UNBOUND:                 0.088
REMARK  Name = ZINC000013423760
REMARK  6 active torsions:
REMARK  status: ('A' for Active; 'I' for Inactive)
REMARK    1  A    between atoms: C_1  and  C_2
REMARK    2  A    between atoms: C_2  and  C_3
REMARK    3  A    between atoms: C_3  and  O_4
REMARK    4  A    between atoms: C_13  and  O_14
REMARK    5  A    between atoms: C_17  and  C_18
REMARK    6  A    between atoms: C_22  and  C_23
REMARK                            x       y       z     vdW  Elec       q    Type
REMARK                         _______ _______ _______ _____ _____    ______ ____
ROOT
ATOM      1  C   UNL     1      -3.520   3.207 -22.580  0.00  0.00    +0.071 C 
ATOM      2  C   UNL     1      -3.587   3.763 -23.766  0.00  0.00    +0.035 C 
ATOM      3  C   UNL     1      -2.401   3.672 -24.321  0.00  0.00    +0.007 C 
ATOM      4  C   UNL     1      -1.603   3.061 -23.479  0.00  0.00    +0.001 C 
ATOM      5  C   UNL     1      -0.338   2.731 -23.555  0.00  0.00    +0.000 C 
ATOM      6  C   UNL     1       0.350   3.022 -24.636  0.00  0.00    +0.031 C 
ATOM      7  C   UNL     1       1.617   2.692 -24.713  0.00  0.00    -0.027 C 
ATOM      8  C   UNL     1       2.196   2.073 -23.715  0.00  0.00    -0.065 C 
ATOM      9  C   UNL     1       3.464   1.742 -23.791  0.00  0.00    +0.062 C 
ATOM     10  C   UNL     1       4.043   1.123 -22.792  0.00  0.00    +0.119 C 
ATOM     11  C   UNL     1       3.358   0.832 -21.711  0.00  0.00    +0.032 C 
ATOM     12  C   UNL     1       2.089   1.163 -21.635  0.00  0.00    +0.014 C 
ATOM     13  C   UNL     1       1.509   1.782 -22.634  0.00  0.00    -0.008 C 
ATOM     14  C   UNL     1       0.821   1.492 -21.555  0.00  0.00    +0.016 C 
ATOM     15  C   UNL     1       0.242   2.112 -22.556  0.00  0.00    +0.003 C 
ATOM     16  C   UNL     1      -0.447   1.822 -21.476  0.00  0.00    +0.005 C 
ATOM     17  C   UNL     1      -1.714   2.152 -21.400  0.00  0.00    +0.010 C 
ATOM     18  C   UNL     1      -2.293   2.771 -22.398  0.00  0.00    -0.000 C 
ATOM     19  C   UNL     1      -3.006   2.504 -21.355  0.00  0.00    +0.014 C 
ENDROOT
BRANCH   1  21
ATOM     20  C   UNL     1      -5.460   3.773 -23.642  0.00  0.00    +0.007 C 
ATOM     21  C   UNL     1      -4.792   3.558 -22.546  0.00  0.00    +0.032 C 
ENDBRANCH   1  21
BRANCH  10  22
ATOM     22  O   UNL     1       5.312   0.793 -22.870  0.00  0.00    -0.391 OA
ATOM     23  H   UNL     1       5.591   0.381 -22.038  0.00  0.00    +0.210 HD
ENDBRANCH  10  22
BRANCH   1  24
ATOM     24  O   UNL     1      -3.794   2.868 -21.656  0.00  0.00    -0.388 OA
ATOM     25  H   UNL     1      -3.058   2.989 -21.036  0.00  0.00    +0.210 HD
ENDBRANCH   1  24
TORSDOF 3
ENDMDL
MODEL 4
REMARK VINA RESULT:   -10.558      1.000      6.108
REMARK INTER + INTRA:         -12.013
REMARK INTER:                 -12.068
REMARK INTRA:                   0.054
REMARK UNBOUND:                 0.088
REMARK  Name = ZINC000013423760
REMARK  6 active torsions:
REMARK  status: ('A' for Active; 'I' for Inactive)
REMARK    1  A    between atoms: C_1  and  C_2
REMARK    2  A    between atoms: C_2  and  C_3
REMARK    3  A    between atoms: C_3  and  O_4
REMARK    4  A    between atoms: C_13  and  O_14
REMARK    5  A    between atoms: C_17  and  C_18
REMARK    6  A    between atoms: C_22  and  C_23
REMARK                            x       y       z     vdW  Elec       q    Type
REMARK                         _______ _______ _______ _____ _____    ______ ____
ROOT
ATOM      1  C   UNL     1       2.278   2.503 -24.082  0.00  0.00    +0.071 C 
ATOM      2  C   UNL     1       2.636   1.966 -22.941  0.00  0.00    +0.035 C 
ATOM      3  C   UNL     1       1.566   1.876 -22.185  0.00  0.00    +0.007 C 
ATOM      4  C   UNL     1       0.550   2.357 -22.858  0.00  0.00    +0.001 C 
ATOM      5  C   UNL     1      -0.717   2.491 -22.554  0.00  0.00    +0.000 C 
ATOM      6  C   UNL     1      -1.152   2.101 -21.377  0.00  0.00    +0.031 C 
ATOM      7  C   UNL     1      -2.420   2.234 -21.072  0.00  0.00    -0.027 C 
ATOM      8  C   UNL     1      -3.253   2.756 -21.938  0.00  0.00    -0.065 C 
ATOM      9  C   UNL     1      -4.522   2.890 -21.633  0.00  0.00    +0.062 C 
ATOM     10  C   UNL     1      -5.354   3.412 -22.500  0.00  0.00    +0.119 C 
ATOM     11  C   UNL     1      -4.922   3.803 -23.676  0.00  0.00    +0.032 C 
ATOM     12  C   UNL     1      -3.651   3.668 -23.981  0.00  0.00    +0.014 C 
ATOM     13  C   UNL     1      -2.819   3.146 -23.115  0.00  0.00    -0.008 C 
ATOM     14  C   UNL     1      -2.383   3.536 -24.289  0.00  0.00    +0.016 C 
ATOM     15  C   UNL     1      -1.550   3.013 -23.421  0.00  0.00    +0.003 C 
ATOM     16  C   UNL     1      -1.114   3.403 -24.598  0.00  0.00    +0.005 C 
ATOM     17  C   UNL     1       0.154   3.269 -24.902  0.00  0.00    +0.010 C 
ATOM     18  C   UNL     1       0.987   2.747 -24.035  0.00  0.00    -0.000 C 
ATOM     19  C   UNL     1       1.456   3.117 -25.181  0.00  0.00    +0.014 C 
ENDROOT
BRANCH   1  21
ATOM     20  C   UNL     1       4.471   2.976 -23.656  0.00  0.00    +0.007 C 
ATOM     21  C   UNL     1       3.562   2.350 -24.347  0.00  0.00    +0.032 C 
ENDBRANCH   1  21
BRANCH  10  22
ATOM     22  O   UNL     1      -6.625   3.546 -22.193  0.00  0.00    -0.391 OA
ATOM     23  H   UNL     1      -6.914   4.448 -22.398  0.00  0.00    +0.210 HD
ENDBRANCH  10  22
BRANCH   1  24
ATOM     24  O   UNL     1       2.331   2.878 -25.031  0.00  0.00    -0.388 OA
ATOM     25  H   UNL     1       1.718   2.393 -25.605  0.00  0.00    +0.210 HD
ENDBRANCH   1  24
TORSDOF 3
ENDMDL
MODEL 5
REMARK VINA RESULT:   -10.125      0.976      6.118
REMARK INTER + INTRA:         -11.517
REMARK INTER:                 -11.582
REMARK INTRA:                   0.065
REMARK UNBOUND:                 0.088
REMARK  Name = ZINC000013423760
REMARK  6 active torsions:
REMARK  status: ('A' for Active; 'I' for Inactive)
REMARK    1  A    between atoms: C_1  and  C_2
REMARK    2  A    between atoms: C_2  and  C_3
REMARK    3  A    between atoms: C_3  and  O_4
REMARK    4  A    between atoms: C_13  and  O_14
REMARK    5  A    between atoms: C_17  and  C_18
REMARK    6  A    between atoms: C_22  and  C_23
REMARK                            x       y       z     vdW  Elec       q    Type
REMARK                         _______ _______ _______ _____ _____    ______ ____
ROOT
ATOM      1  C   UNL     1       2.952   1.927 -23.036  0.00  0.00    +0.071 C 
ATOM      2  C   UNL     1       2.895   1.382 -21.845  0.00  0.00    +0.035 C 
ATOM      3  C   UNL     1       1.652   1.452 -21.428  0.00  0.00    +0.007 C 
ATOM      4  C   UNL     1       0.942   2.039 -22.360  0.00  0.00    +0.001 C 
ATOM      5  C   UNL     1      -0.330   2.343 -22.431  0.00  0.00    +0.000 C 
ATOM      6  C   UNL     1      -1.130   2.046 -21.432  0.00  0.00    +0.031 C 
ATOM      7  C   UNL     1      -2.403   2.350 -21.501  0.00  0.00    -0.027 C 
ATOM      8  C   UNL     1      -2.878   2.949 -22.565  0.00  0.00    -0.065 C 
ATOM      9  C   UNL     1      -4.153   3.254 -22.635  0.00  0.00    +0.062 C 
ATOM     10  C   UNL     1      -4.627   3.853 -23.699  0.00  0.00    +0.119 C 
ATOM     11  C   UNL     1      -3.830   4.151 -24.698  0.00  0.00    +0.032 C 
ATOM     12  C   UNL     1      -2.554   3.846 -24.627  0.00  0.00    +0.014 C 
ATOM     13  C   UNL     1      -2.079   3.247 -23.564  0.00  0.00    -0.008 C 
ATOM     14  C   UNL     1      -1.280   3.543 -24.561  0.00  0.00    +0.016 C 
ATOM     15  C   UNL     1      -0.805   2.943 -23.495  0.00  0.00    +0.003 C 
ATOM     16  C   UNL     1      -0.004   3.240 -24.494  0.00  0.00    +0.005 C 
ATOM     17  C   UNL     1       1.269   2.935 -24.423  0.00  0.00    +0.010 C 
ATOM     18  C   UNL     1       1.744   2.336 -23.359  0.00  0.00    -0.000 C 
ATOM     19  C   UNL     1       2.565   2.610 -24.318  0.00  0.00    +0.014 C 
ENDROOT
BRANCH   1  21
ATOM     20  C   UNL     1       5.036   2.306 -22.185  0.00  0.00    +0.007 C 
ATOM     21  C   UNL     1       4.226   1.603 -22.923  0.00  0.00    +0.032 C 
ENDBRANCH   1  21
BRANCH  10  22
ATOM     22  O   UNL     1      -5.904   4.157 -23.768  0.00  0.00    -0.391 OA
ATOM     23  H   UNL     1      -6.103   4.518 -24.645  0.00  0.00    +0.210 HD
ENDBRANCH  10  22
BRANCH   1  24
ATOM     24  O   UNL     1       3.321   2.266 -23.926  0.00  0.00    -0.388 OA
ATOM     25  H   UNL     1       3.695   3.153 -23.805  0.00  0.00    +0.210 HD
ENDBRANCH   1  24
TORSDOF 3
ENDMDL
MODEL 6
REMARK VINA RESULT:   -10.024      1.428      3.016
REMARK INTER + INTRA:         -11.401
REMARK INTER:                 -11.596
REMARK INTRA:                   0.195
REMARK UNBOUND:                 0.088
REMARK  Name = ZINC000013423760
REMARK  6 active torsions:
REMARK  status: ('A' for Active; 'I' for Inactive)
REMARK    1  A    between atoms: C_1  and  C_2
REMARK    2  A    between atoms: C_2  and  C_3
REMARK    3  A    between atoms: C_3  and  O_4
REMARK    4  A    between atoms: C_13  and  O_14
REMARK    5  A    between atoms: C_17  and  C_18
REMARK    6  A    between atoms: C_22  and  C_23
REMARK                            x       y       z     vdW  Elec       q    Type
REMARK                         _______ _______ _______ _____ _____    ______ ____
ROOT
ATOM      1  C   UNL     1      -2.499   2.946 -22.352  0.00  0.00    +0.071 C 
ATOM      2  C   UNL     1      -2.537   3.977 -23.160  0.00  0.00    +0.035 C 
ATOM      3  C   UNL     1      -1.308   4.241 -23.537  0.00  0.00    +0.007 C 
ATOM      4  C   UNL     1      -0.511   3.373 -22.963  0.00  0.00    +0.001 C 
ATOM      5  C   UNL     1       0.787   3.210 -23.014  0.00  0.00    +0.000 C 
ATOM      6  C   UNL     1       1.519   4.015 -23.751  0.00  0.00    +0.031 C 
ATOM      7  C   UNL     1       2.819   3.853 -23.803  0.00  0.00    -0.027 C 
ATOM      8  C   UNL     1       3.389   2.889 -23.122  0.00  0.00    -0.065 C 
ATOM      9  C   UNL     1       4.689   2.726 -23.173  0.00  0.00    +0.062 C 
ATOM     10  C   UNL     1       5.258   1.762 -22.493  0.00  0.00    +0.119 C 
ATOM     11  C   UNL     1       4.529   0.956 -21.756  0.00  0.00    +0.032 C 
ATOM     12  C   UNL     1       3.227   1.120 -21.705  0.00  0.00    +0.014 C 
ATOM     13  C   UNL     1       2.658   2.084 -22.386  0.00  0.00    -0.008 C 
ATOM     14  C   UNL     1       1.926   1.280 -21.651  0.00  0.00    +0.016 C 
ATOM     15  C   UNL     1       1.357   2.245 -22.333  0.00  0.00    +0.003 C 
ATOM     16  C   UNL     1       0.624   1.440 -21.598  0.00  0.00    +0.005 C 
ATOM     17  C   UNL     1      -0.676   1.604 -21.547  0.00  0.00    +0.010 C 
ATOM     18  C   UNL     1      -1.245   2.568 -22.227  0.00  0.00    -0.000 C 
ATOM     19  C   UNL     1      -2.001   1.799 -21.517  0.00  0.00    +0.014 C 
ENDROOT
BRANCH   1  21
ATOM     20  C   UNL     1      -4.364   3.808 -21.359  0.00  0.00    +0.007 C 
ATOM     21  C   UNL     1      -3.803   3.146 -22.329  0.00  0.00    +0.032 C 
ENDBRANCH   1  21
BRANCH  10  22
ATOM     22  O   UNL     1       6.561   1.600 -22.545  0.00  0.00    -0.391 OA
ATOM     23  H   UNL     1       6.978   2.097 -21.824  0.00  0.00    +0.210 HD
ENDBRANCH  10  22
BRANCH   1  24
ATOM     24  O   UNL     1      -2.802   2.200 -21.722  0.00  0.00    -0.388 OA
ATOM     25  H   UNL     1      -2.504   2.398 -20.820  0.00  0.00    +0.210 HD
ENDBRANCH   1  24
TORSDOF 3
ENDMDL
MODEL 7
REMARK VINA RESULT:    -9.793      1.487      2.157
REMARK INTER + INTRA:         -11.136
REMARK INTER:                 -11.207
REMARK INTRA:                   0.071
REMARK UNBOUND:                 0.088
REMARK  Name = ZINC000013423760
REMARK  6 active torsions:
REMARK  status: ('A' for Active; 'I' for Inactive)
REMARK    1  A    between atoms: C_1  and  C_2
REMARK    2  A    between atoms: C_2  and  C_3
REMARK    3  A    between atoms: C_3  and  O_4
REMARK    4  A    between atoms: C_13  and  O_14
REMARK    5  A    between atoms: C_17  and  C_18
REMARK    6  A    between atoms: C_22  and  C_23
REMARK                            x       y       z     vdW  Elec       q    Type
REMARK                         _______ _______ _______ _____ _____    ______ ____
ROOT
ATOM      1  C   UNL     1      -2.910   3.443 -24.600  0.00  0.00    +0.071 C 
ATOM      2  C   UNL     1      -3.635   3.122 -23.556  0.00  0.00    +0.035 C 
ATOM      3  C   UNL     1      -2.827   2.659 -22.631  0.00  0.00    +0.007 C 
ATOM      4  C   UNL     1      -1.605   2.694 -23.102  0.00  0.00    +0.001 C 
ATOM      5  C   UNL     1      -0.455   2.347 -22.581  0.00  0.00    +0.000 C 
ATOM      6  C   UNL     1      -0.410   1.862 -21.361  0.00  0.00    +0.031 C 
ATOM      7  C   UNL     1       0.741   1.514 -20.837  0.00  0.00    -0.027 C 
ATOM      8  C   UNL     1       1.845   1.650 -21.529  0.00  0.00    -0.065 C 
ATOM      9  C   UNL     1       2.997   1.303 -21.006  0.00  0.00    +0.062 C 
ATOM     10  C   UNL     1       4.101   1.439 -21.698  0.00  0.00    +0.119 C 
ATOM     11  C   UNL     1       4.059   1.924 -22.918  0.00  0.00    +0.032 C 
ATOM     12  C   UNL     1       2.905   2.272 -23.441  0.00  0.00    +0.014 C 
ATOM     13  C   UNL     1       1.801   2.135 -22.749  0.00  0.00    -0.008 C 
ATOM     14  C   UNL     1       1.755   2.620 -23.967  0.00  0.00    +0.016 C 
ATOM     15  C   UNL     1       0.650   2.483 -23.273  0.00  0.00    +0.003 C 
ATOM     16  C   UNL     1       0.604   2.969 -24.493  0.00  0.00    +0.005 C 
ATOM     17  C   UNL     1      -0.548   3.316 -25.015  0.00  0.00    +0.010 C 
ATOM     18  C   UNL     1      -1.652   3.180 -24.323  0.00  0.00    -0.000 C 
ATOM     19  C   UNL     1      -1.741   3.661 -25.519  0.00  0.00    +0.014 C 
ENDROOT
BRANCH   1  21
ATOM     20  C   UNL     1      -4.874   4.596 -24.444  0.00  0.00    +0.007 C 
ATOM     21  C   UNL     1      -4.090   3.780 -25.086  0.00  0.00    +0.032 C 
ENDBRANCH   1  21
BRANCH  10  22
ATOM     22  O   UNL     1       5.254   1.091 -21.173  0.00  0.00    -0.391 OA
ATOM     23  H   UNL     1       5.326   0.124 -21.163  0.00  0.00    +0.210 HD
ENDBRANCH  10  22
BRANCH   1  24
ATOM     24  O   UNL     1      -2.652   3.778 -25.530  0.00  0.00    -0.388 OA
ATOM     25  H   UNL     1      -3.269   4.474 -25.806  0.00  0.00    +0.210 HD
ENDBRANCH   1  24
TORSDOF 3
ENDMDL
