MODEL 1
REMARK VINA RESULT:    -9.440      0.000      0.000
REMARK INTER + INTRA:         -12.387
REMARK INTER:                 -11.914
REMARK INTRA:                  -0.473
REMARK UNBOUND:                -0.188
REMARK  Name = ZINC000006018691
REMARK  9 active torsions:
REMARK  status: ('A' for Active; 'I' for Inactive)
REMARK    1  A    between atoms: C_1  and  O_2
REMARK    2  A    between atoms: O_2  and  C_3
REMARK    3  A    between atoms: C_6  and  C_7
REMARK    4  A    between atoms: C_12  and  O_13
REMARK    5  A    between atoms: C_14  and  O_15
REMARK    6  A    between atoms: O_15  and  C_16
REMARK    7  A    between atoms: C_17  and  O_18
REMARK    8  A    between atoms: C_23  and  O_24
REMARK    9  A    between atoms: O_24  and  C_25
REMARK                            x       y       z     vdW  Elec       q    Type
REMARK                         _______ _______ _______ _____ _____    ______ ____
ROOT
ATOM      1  C   UNL     1      -0.839   3.331 -22.748  0.00  0.00    +0.139 A 
ATOM      2  C   UNL     1      -0.196   4.314 -23.308  0.00  0.00    +0.098 A 
ATOM      3  C   UNL     1       1.099   4.267 -23.414  0.00  0.00    +0.197 A 
ATOM      4  C   UNL     1       1.751   3.239 -22.961  0.00  0.00    +0.109 A 
ATOM      5  C   UNL     1       3.046   3.193 -23.067  0.00  0.00    +0.177 A 
ATOM      6  C   UNL     1       3.700   2.164 -22.614  0.00  0.00    +0.204 A 
ATOM      7  C   UNL     1       3.058   1.181 -22.054  0.00  0.00    +0.166 A 
ATOM      8  C   UNL     1       1.762   1.228 -21.948  0.00  0.00    +0.096 A 
ATOM      9  C   UNL     1       1.110   2.256 -22.401  0.00  0.00    +0.146 A 
ATOM     10  O   UNL     1       1.740   5.249 -23.973  0.00  0.00    -0.287 OA
ATOM     11  O   UNL     1      -0.185   2.302 -22.295  0.00  0.00    -0.454 OA
ENDROOT
BRANCH   1  15
ATOM     12  C   UNL     1      -4.722   3.469 -22.430  0.00  0.00    +0.162 A 
ATOM     13  C   UNL     1      -3.990   3.275 -21.374  0.00  0.00    +0.050 A 
ATOM     14  C   UNL     1      -2.696   3.229 -21.479  0.00  0.00    +0.015 A 
ATOM     15  C   UNL     1      -2.133   3.377 -22.642  0.00  0.00    +0.021 A 
ATOM     16  C   UNL     1      -2.865   3.572 -23.699  0.00  0.00    +0.061 A 
ATOM     17  C   UNL     1      -4.160   3.618 -23.593  0.00  0.00    +0.162 A 
BRANCH  12  19
ATOM     18  C   UNL     1      -6.648   2.596 -21.656  0.00  0.00    +0.277 C 
ATOM     19  O   UNL     1      -6.018   3.516 -22.324  0.00  0.00    -0.491 OA
ENDBRANCH  12  19
BRANCH  17  20
ATOM     20  O   UNL     1      -4.892   3.812 -24.649  0.00  0.00    -0.491 OA
ATOM     21  C   UNL     1      -4.494   3.372 -25.806  0.00  0.00    +0.277 C 
ENDBRANCH  17  20
ENDBRANCH   1  15
BRANCH   7  22
ATOM     22  O   UNL     1       3.711   0.153 -21.601  0.00  0.00    -0.503 OA
ATOM     23  H   UNL     1       4.640   0.106 -21.705  0.00  0.00    +0.292 HD
ENDBRANCH   7  22
BRANCH   6  24
ATOM     24  O   UNL     1       4.994   2.118 -22.720  0.00  0.00    -0.488 OA
ATOM     25  C   UNL     1       5.741   2.631 -21.788  0.00  0.00    +0.277 C 
ENDBRANCH   6  24
BRANCH   5  26
ATOM     26  O   UNL     1       3.688   4.175 -23.627  0.00  0.00    -0.503 OA
ATOM     27  H   UNL     1       3.302   4.639 -24.344  0.00  0.00    +0.292 HD
ENDBRANCH   5  26
TORSDOF 6
ENDMDL
MODEL 2
REMARK VINA RESULT:    -9.357      1.394      2.207
REMARK INTER + INTRA:         -12.280
REMARK INTER:                 -11.782
REMARK INTRA:                  -0.498
REMARK UNBOUND:                -0.188
REMARK  Name = ZINC000006018691
REMARK  9 active torsions:
REMARK  status: ('A' for Active; 'I' for Inactive)
REMARK    1  A    between atoms: C_1  and  O_2
REMARK    2  A    between atoms: O_2  and  C_3
REMARK    3  A    between atoms: C_6  and  C_7
REMARK    4  A    between atoms: C_12  and  O_13
REMARK    5  A    between atoms: C_14  and  O_15
REMARK    6  A    between atoms: O_15  and  C_16
REMARK    7  A    between atoms: C_17  and  O_18
REMARK    8  A    between atoms: C_23  and  O_24
REMARK    9  A    between atoms: O_24  and  C_25
REMARK                            x       y       z     vdW  Elec       q    Type
REMARK                         _______ _______ _______ _____ _____    ______ ____
ROOT
ATOM      1  C   UNL     1      -0.755   2.269 -22.076  0.00  0.00    +0.139 A 
ATOM      2  C   UNL     1      -0.289   1.925 -20.911  0.00  0.00    +0.098 A 
ATOM      3  C   UNL     1       0.966   1.610 -20.781  0.00  0.00    +0.197 A 
ATOM      4  C   UNL     1       1.754   1.640 -21.814  0.00  0.00    +0.109 A 
ATOM      5  C   UNL     1       3.009   1.325 -21.682  0.00  0.00    +0.177 A 
ATOM      6  C   UNL     1       3.798   1.355 -22.715  0.00  0.00    +0.204 A 
ATOM      7  C   UNL     1       3.333   1.700 -23.879  0.00  0.00    +0.166 A 
ATOM      8  C   UNL     1       2.078   2.014 -24.010  0.00  0.00    +0.096 A 
ATOM      9  C   UNL     1       1.289   1.984 -22.977  0.00  0.00    +0.146 A 
ATOM     10  O   UNL     1       1.431   1.265 -19.617  0.00  0.00    -0.287 OA
ATOM     11  O   UNL     1       0.035   2.299 -23.109  0.00  0.00    -0.454 OA
ENDROOT
BRANCH   1  15
ATOM     12  C   UNL     1      -4.517   3.213 -22.471  0.00  0.00    +0.162 A 
ATOM     13  C   UNL     1      -4.061   2.831 -21.315  0.00  0.00    +0.050 A 
ATOM     14  C   UNL     1      -2.807   2.517 -21.183  0.00  0.00    +0.015 A 
ATOM     15  C   UNL     1      -2.009   2.584 -22.207  0.00  0.00    +0.021 A 
ATOM     16  C   UNL     1      -2.465   2.966 -23.363  0.00  0.00    +0.061 A 
ATOM     17  C   UNL     1      -3.720   3.281 -23.495  0.00  0.00    +0.162 A 
BRANCH  12  19
ATOM     18  C   UNL     1      -6.681   2.865 -21.952  0.00  0.00    +0.277 C 
ATOM     19  O   UNL     1      -5.772   3.528 -22.603  0.00  0.00    -0.491 OA
ENDBRANCH  12  19
BRANCH  17  20
ATOM     20  O   UNL     1      -4.176   3.663 -24.651  0.00  0.00    -0.491 OA
ATOM     21  C   UNL     1      -3.482   3.444 -25.728  0.00  0.00    +0.277 C 
ENDBRANCH  17  20
ENDBRANCH   1  15
BRANCH   7  22
ATOM     22  O   UNL     1       4.121   1.729 -24.912  0.00  0.00    -0.503 OA
ATOM     23  H   UNL     1       4.176   0.988 -25.481  0.00  0.00    +0.292 HD
ENDBRANCH   7  22
BRANCH   6  24
ATOM     24  O   UNL     1       5.052   1.040 -22.584  0.00  0.00    -0.488 OA
ATOM     25  C   UNL     1       5.931   1.964 -22.330  0.00  0.00    +0.277 C 
ENDBRANCH   6  24
BRANCH   5  26
ATOM     26  O   UNL     1       3.474   0.981 -20.518  0.00  0.00    -0.503 OA
ATOM     27  H   UNL     1       3.668   1.637 -19.878  0.00  0.00    +0.292 HD
ENDBRANCH   5  26
TORSDOF 6
ENDMDL
MODEL 3
REMARK VINA RESULT:    -9.173      1.585      2.571
REMARK INTER + INTRA:         -12.042
REMARK INTER:                 -11.573
REMARK INTRA:                  -0.469
REMARK UNBOUND:                -0.188
REMARK  Name = ZINC000006018691
REMARK  9 active torsions:
REMARK  status: ('A' for Active; 'I' for Inactive)
REMARK    1  A    between atoms: C_1  and  O_2
REMARK    2  A    between atoms: O_2  and  C_3
REMARK    3  A    between atoms: C_6  and  C_7
REMARK    4  A    between atoms: C_12  and  O_13
REMARK    5  A    between atoms: C_14  and  O_15
REMARK    6  A    between atoms: O_15  and  C_16
REMARK    7  A    between atoms: C_17  and  O_18
REMARK    8  A    between atoms: C_23  and  O_24
REMARK    9  A    between atoms: O_24  and  C_25
REMARK                            x       y       z     vdW  Elec       q    Type
REMARK                         _______ _______ _______ _____ _____    ______ ____
ROOT
ATOM      1  C   UNL     1       0.217   3.380 -23.580  0.00  0.00    +0.139 A 
ATOM      2  C   UNL     1       0.769   2.260 -23.945  0.00  0.00    +0.098 A 
ATOM      3  C   UNL     1       2.064   2.149 -23.957  0.00  0.00    +0.197 A 
ATOM      4  C   UNL     1       2.807   3.155 -23.604  0.00  0.00    +0.109 A 
ATOM      5  C   UNL     1       4.102   3.042 -23.616  0.00  0.00    +0.177 A 
ATOM      6  C   UNL     1       4.846   4.049 -23.262  0.00  0.00    +0.204 A 
ATOM      7  C   UNL     1       4.294   5.167 -22.897  0.00  0.00    +0.166 A 
ATOM      8  C   UNL     1       2.998   5.280 -22.885  0.00  0.00    +0.096 A 
ATOM      9  C   UNL     1       2.255   4.274 -23.238  0.00  0.00    +0.146 A 
ATOM     10  O   UNL     1       2.616   1.030 -24.322  0.00  0.00    -0.287 OA
ATOM     11  O   UNL     1       0.961   4.386 -23.226  0.00  0.00    -0.454 OA
ENDROOT
BRANCH   1  15
ATOM     12  C   UNL     1      -3.667   3.718 -23.545  0.00  0.00    +0.162 A 
ATOM     13  C   UNL     1      -3.026   3.473 -22.441  0.00  0.00    +0.050 A 
ATOM     14  C   UNL     1      -1.732   3.361 -22.452  0.00  0.00    +0.015 A 
ATOM     15  C   UNL     1      -1.078   3.493 -23.568  0.00  0.00    +0.021 A 
ATOM     16  C   UNL     1      -1.718   3.737 -24.672  0.00  0.00    +0.061 A 
ATOM     17  C   UNL     1      -3.014   3.850 -24.661  0.00  0.00    +0.162 A 
BRANCH  12  19
ATOM     18  C   UNL     1      -5.640   3.440 -22.495  0.00  0.00    +0.277 C 
ATOM     19  O   UNL     1      -4.963   3.831 -23.533  0.00  0.00    -0.491 OA
ENDBRANCH  12  19
BRANCH  17  20
ATOM     20  O   UNL     1      -3.655   4.095 -25.765  0.00  0.00    -0.491 OA
ATOM     21  C   UNL     1      -3.320   3.481 -26.860  0.00  0.00    +0.277 C 
ENDBRANCH  17  20
ENDBRANCH   1  15
BRANCH   7  22
ATOM     22  O   UNL     1       5.037   6.174 -22.544  0.00  0.00    -0.503 OA
ATOM     23  H   UNL     1       4.639   6.981 -22.283  0.00  0.00    +0.292 HD
ENDBRANCH   7  22
BRANCH   6  24
ATOM     24  O   UNL     1       6.141   3.936 -23.274  0.00  0.00    -0.488 OA
ATOM     25  C   UNL     1       6.770   3.561 -22.201  0.00  0.00    +0.277 C 
ENDBRANCH   6  24
BRANCH   5  26
ATOM     26  O   UNL     1       4.654   1.923 -23.981  0.00  0.00    -0.503 OA
ATOM     27  H   UNL     1       4.545   1.611 -24.858  0.00  0.00    +0.292 HD
ENDBRANCH   5  26
TORSDOF 6
ENDMDL
MODEL 4
REMARK VINA RESULT:    -8.990      1.428      2.297
REMARK INTER + INTRA:         -11.806
REMARK INTER:                 -11.394
REMARK INTRA:                  -0.413
REMARK UNBOUND:                -0.188
REMARK  Name = ZINC000006018691
REMARK  9 active torsions:
REMARK  status: ('A' for Active; 'I' for Inactive)
REMARK    1  A    between atoms: C_1  and  O_2
REMARK    2  A    between atoms: O_2  and  C_3
REMARK    3  A    between atoms: C_6  and  C_7
REMARK    4  A    between atoms: C_12  and  O_13
REMARK    5  A    between atoms: C_14  and  O_15
REMARK    6  A    between atoms: O_15  and  C_16
REMARK    7  A    between atoms: C_17  and  O_18
REMARK    8  A    between atoms: C_23  and  O_24
REMARK    9  A    between atoms: O_24  and  C_25
REMARK                            x       y       z     vdW  Elec       q    Type
REMARK                         _______ _______ _______ _____ _____    ______ ____
ROOT
ATOM      1  C   UNL     1       0.326   3.758 -23.250  0.00  0.00    +0.139 A 
ATOM      2  C   UNL     1       0.881   4.934 -23.281  0.00  0.00    +0.098 A 
ATOM      3  C   UNL     1       2.176   5.041 -23.252  0.00  0.00    +0.197 A 
ATOM      4  C   UNL     1       2.916   3.975 -23.192  0.00  0.00    +0.109 A 
ATOM      5  C   UNL     1       4.211   4.083 -23.163  0.00  0.00    +0.177 A 
ATOM      6  C   UNL     1       4.952   3.016 -23.103  0.00  0.00    +0.204 A 
ATOM      7  C   UNL     1       4.397   1.841 -23.072  0.00  0.00    +0.166 A 
ATOM      8  C   UNL     1       3.101   1.733 -23.101  0.00  0.00    +0.096 A 
ATOM      9  C   UNL     1       2.361   2.800 -23.161  0.00  0.00    +0.146 A 
ATOM     10  O   UNL     1       2.731   6.217 -23.283  0.00  0.00    -0.287 OA
ATOM     11  O   UNL     1       1.066   2.691 -23.190  0.00  0.00    -0.454 OA
ENDROOT
BRANCH   1  15
ATOM     12  C   UNL     1      -3.559   3.433 -23.336  0.00  0.00    +0.162 A 
ATOM     13  C   UNL     1      -2.898   3.620 -24.439  0.00  0.00    +0.050 A 
ATOM     14  C   UNL     1      -1.603   3.729 -24.411  0.00  0.00    +0.015 A 
ATOM     15  C   UNL     1      -0.969   3.650 -23.279  0.00  0.00    +0.021 A 
ATOM     16  C   UNL     1      -1.630   3.463 -22.175  0.00  0.00    +0.061 A 
ATOM     17  C   UNL     1      -2.926   3.354 -22.203  0.00  0.00    +0.162 A 
BRANCH  12  19
ATOM     18  C   UNL     1      -5.555   4.102 -24.135  0.00  0.00    +0.277 C 
ATOM     19  O   UNL     1      -4.854   3.324 -23.364  0.00  0.00    -0.491 OA
ENDBRANCH  12  19
BRANCH  17  20
ATOM     20  O   UNL     1      -3.586   3.167 -21.100  0.00  0.00    -0.491 OA
ATOM     21  C   UNL     1      -3.179   3.720 -19.997  0.00  0.00    +0.277 C 
ENDBRANCH  17  20
ENDBRANCH   1  15
BRANCH   7  22
ATOM     22  O   UNL     1       5.137   0.774 -23.012  0.00  0.00    -0.503 OA
ATOM     23  H   UNL     1       5.144   0.252 -22.234  0.00  0.00    +0.292 HD
ENDBRANCH   7  22
BRANCH   6  24
ATOM     24  O   UNL     1       6.247   3.124 -23.074  0.00  0.00    -0.488 OA
ATOM     25  C   UNL     1       6.846   3.469 -21.973  0.00  0.00    +0.277 C 
ENDBRANCH   6  24
BRANCH   5  26
ATOM     26  O   UNL     1       4.766   5.258 -23.194  0.00  0.00    -0.503 OA
ATOM     27  H   UNL     1       4.369   5.976 -22.741  0.00  0.00    +0.292 HD
ENDBRANCH   5  26
TORSDOF 6
ENDMDL
MODEL 5
REMARK VINA RESULT:    -8.864      1.419      3.152
REMARK INTER + INTRA:         -11.643
REMARK INTER:                 -11.216
REMARK INTRA:                  -0.427
REMARK UNBOUND:                -0.188
REMARK  Name = ZINC000006018691
REMARK  9 active torsions:
REMARK  status: ('A' for Active; 'I' for Inactive)
REMARK    1  A    between atoms: C_1  and  O_2
REMARK    2  A    between atoms: O_2  and  C_3
REMARK    3  A    between atoms: C_6  and  C_7
REMARK    4  A    between atoms: C_12  and  O_13
REMARK    5  A    between atoms: C_14  and  O_15
REMARK    6  A    between atoms: O_15  and  C_16
REMARK    7  A    between atoms: C_17  and  O_18
REMARK    8  A    between atoms: C_23  and  O_24
REMARK    9  A    between atoms: O_24  and  C_25
REMARK                            x       y       z     vdW  Elec       q    Type
REMARK                         _______ _______ _______ _____ _____    ______ ____
ROOT
ATOM      1  C   UNL     1       0.427   2.998 -22.982  0.00  0.00    +0.139 A 
ATOM      2  C   UNL     1       0.782   1.932 -22.326  0.00  0.00    +0.098 A 
ATOM      3  C   UNL     1       2.029   1.755 -22.002  0.00  0.00    +0.197 A 
ATOM      4  C   UNL     1       2.920   2.642 -22.331  0.00  0.00    +0.109 A 
ATOM      5  C   UNL     1       4.165   2.464 -22.006  0.00  0.00    +0.177 A 
ATOM      6  C   UNL     1       5.057   3.351 -22.336  0.00  0.00    +0.204 A 
ATOM      7  C   UNL     1       4.702   4.416 -22.991  0.00  0.00    +0.166 A 
ATOM      8  C   UNL     1       3.455   4.594 -23.316  0.00  0.00    +0.096 A 
ATOM      9  C   UNL     1       2.565   3.707 -22.986  0.00  0.00    +0.146 A 
ATOM     10  O   UNL     1       2.384   0.689 -21.347  0.00  0.00    -0.287 OA
ATOM     11  O   UNL     1       1.319   3.886 -23.311  0.00  0.00    -0.454 OA
ENDROOT
BRANCH   1  15
ATOM     12  C   UNL     1      -3.310   3.533 -23.956  0.00  0.00    +0.162 A 
ATOM     13  C   UNL     1      -2.368   3.854 -24.792  0.00  0.00    +0.050 A 
ATOM     14  C   UNL     1      -1.123   3.676 -24.468  0.00  0.00    +0.015 A 
ATOM     15  C   UNL     1      -0.819   3.177 -23.307  0.00  0.00    +0.021 A 
ATOM     16  C   UNL     1      -1.760   2.855 -22.470  0.00  0.00    +0.061 A 
ATOM     17  C   UNL     1      -3.007   3.034 -22.795  0.00  0.00    +0.162 A 
BRANCH  12  19
ATOM     18  C   UNL     1      -4.930   3.584 -25.519  0.00  0.00    +0.277 C 
ATOM     19  O   UNL     1      -4.557   3.711 -24.281  0.00  0.00    -0.491 OA
ENDBRANCH  12  19
BRANCH  17  20
ATOM     20  O   UNL     1      -3.949   2.713 -21.959  0.00  0.00    -0.491 OA
ATOM     21  C   UNL     1      -3.716   2.731 -20.680  0.00  0.00    +0.277 C 
ENDBRANCH  17  20
ENDBRANCH   1  15
BRANCH   7  22
ATOM     22  O   UNL     1       5.593   5.303 -23.321  0.00  0.00    -0.503 OA
ATOM     23  H   UNL     1       5.559   5.710 -24.164  0.00  0.00    +0.292 HD
ENDBRANCH   7  22
BRANCH   6  24
ATOM     24  O   UNL     1       6.303   3.173 -22.011  0.00  0.00    -0.488 OA
ATOM     25  C   UNL     1       6.809   3.815 -21.001  0.00  0.00    +0.277 C 
ENDBRANCH   6  24
BRANCH   5  26
ATOM     26  O   UNL     1       4.520   1.398 -21.351  0.00  0.00    -0.503 OA
ATOM     27  H   UNL     1       4.113   0.575 -21.539  0.00  0.00    +0.292 HD
ENDBRANCH   5  26
TORSDOF 6
ENDMDL
MODEL 6
REMARK VINA RESULT:    -8.600      1.767      7.811
REMARK INTER + INTRA:         -11.302
REMARK INTER:                 -10.843
REMARK INTRA:                  -0.459
REMARK UNBOUND:                -0.188
REMARK  Name = ZINC000006018691
REMARK  9 active torsions:
REMARK  status: ('A' for Active; 'I' for Inactive)
REMARK    1  A    between atoms: C_1  and  O_2
REMARK    2  A    between atoms: O_2  and  C_3
REMARK    3  A    between atoms: C_6  and  C_7
REMARK    4  A    between atoms: C_12  and  O_13
REMARK    5  A    between atoms: C_14  and  O_15
REMARK    6  A    between atoms: O_15  and  C_16
REMARK    7  A    between atoms: C_17  and  O_18
REMARK    8  A    between atoms: C_23  and  O_24
REMARK    9  A    between atoms: O_24  and  C_25
REMARK                            x       y       z     vdW  Elec       q    Type
REMARK                         _______ _______ _______ _____ _____    ______ ____
ROOT
ATOM      1  C   UNL     1       1.192   2.781 -23.114  0.00  0.00    +0.139 A 
ATOM      2  C   UNL     1       0.443   2.495 -22.090  0.00  0.00    +0.098 A 
ATOM      3  C   UNL     1      -0.852   2.524 -22.205  0.00  0.00    +0.197 A 
ATOM      4  C   UNL     1      -1.397   2.840 -23.342  0.00  0.00    +0.109 A 
ATOM      5  C   UNL     1      -2.692   2.869 -23.455  0.00  0.00    +0.177 A 
ATOM      6  C   UNL     1      -3.238   3.185 -24.593  0.00  0.00    +0.204 A 
ATOM      7  C   UNL     1      -2.489   3.471 -25.616  0.00  0.00    +0.166 A 
ATOM      8  C   UNL     1      -1.193   3.442 -25.501  0.00  0.00    +0.096 A 
ATOM      9  C   UNL     1      -0.648   3.126 -24.365  0.00  0.00    +0.146 A 
ATOM     10  O   UNL     1      -1.601   2.238 -21.182  0.00  0.00    -0.287 OA
ATOM     11  O   UNL     1       0.646   3.097 -24.251  0.00  0.00    -0.454 OA
ENDROOT
BRANCH   1  15
ATOM     12  C   UNL     1       5.075   2.693 -22.772  0.00  0.00    +0.162 A 
ATOM     13  C   UNL     1       4.489   3.749 -23.253  0.00  0.00    +0.050 A 
ATOM     14  C   UNL     1       3.195   3.779 -23.367  0.00  0.00    +0.015 A 
ATOM     15  C   UNL     1       2.487   2.752 -23.000  0.00  0.00    +0.021 A 
ATOM     16  C   UNL     1       3.072   1.696 -22.519  0.00  0.00    +0.061 A 
ATOM     17  C   UNL     1       4.368   1.667 -22.405  0.00  0.00    +0.162 A 
BRANCH  12  19
ATOM     18  C   UNL     1       7.014   3.727 -22.278  0.00  0.00    +0.277 C 
ATOM     19  O   UNL     1       6.371   2.664 -22.658  0.00  0.00    -0.491 OA
ENDBRANCH  12  19
BRANCH  17  20
ATOM     20  O   UNL     1       4.954   0.611 -21.923  0.00  0.00    -0.491 OA
ATOM     21  C   UNL     1       4.789   0.288 -20.675  0.00  0.00    +0.277 C 
ENDBRANCH  17  20
ENDBRANCH   1  15
BRANCH   7  22
ATOM     22  O   UNL     1      -3.034   3.787 -26.753  0.00  0.00    -0.503 OA
ATOM     23  H   UNL     1      -3.390   3.118 -27.303  0.00  0.00    +0.292 HD
ENDBRANCH   7  22
BRANCH   6  24
ATOM     24  O   UNL     1      -4.532   3.214 -24.706  0.00  0.00    -0.488 OA
ATOM     25  C   UNL     1      -5.190   4.283 -24.369  0.00  0.00    +0.277 C 
ENDBRANCH   6  24
BRANCH   5  26
ATOM     26  O   UNL     1      -3.441   2.582 -22.432  0.00  0.00    -0.503 OA
ATOM     27  H   UNL     1      -3.638   1.688 -22.231  0.00  0.00    +0.292 HD
ENDBRANCH   5  26
TORSDOF 6
ENDMDL
MODEL 7
REMARK VINA RESULT:    -8.495      1.635      7.519
REMARK INTER + INTRA:         -11.166
REMARK INTER:                 -11.010
REMARK INTRA:                  -0.156
REMARK UNBOUND:                -0.188
REMARK  Name = ZINC000006018691
REMARK  9 active torsions:
REMARK  status: ('A' for Active; 'I' for Inactive)
REMARK    1  A    between atoms: C_1  and  O_2
REMARK    2  A    between atoms: O_2  and  C_3
REMARK    3  A    between atoms: C_6  and  C_7
REMARK    4  A    between atoms: C_12  and  O_13
REMARK    5  A    between atoms: C_14  and  O_15
REMARK    6  A    between atoms: O_15  and  C_16
REMARK    7  A    between atoms: C_17  and  O_18
REMARK    8  A    between atoms: C_23  and  O_24
REMARK    9  A    between atoms: O_24  and  C_25
REMARK                            x       y       z     vdW  Elec       q    Type
REMARK                         _______ _______ _______ _____ _____    ______ ____
ROOT
ATOM      1  C   UNL     1       0.431   3.448 -23.645  0.00  0.00    +0.139 A 
ATOM      2  C   UNL     1      -0.210   3.296 -24.767  0.00  0.00    +0.098 A 
ATOM      3  C   UNL     1      -1.509   3.325 -24.781  0.00  0.00    +0.197 A 
ATOM      4  C   UNL     1      -2.169   3.507 -23.676  0.00  0.00    +0.109 A 
ATOM      5  C   UNL     1      -3.468   3.536 -23.692  0.00  0.00    +0.177 A 
ATOM      6  C   UNL     1      -4.128   3.718 -22.586  0.00  0.00    +0.204 A 
ATOM      7  C   UNL     1      -3.488   3.870 -21.465  0.00  0.00    +0.166 A 
ATOM      8  C   UNL     1      -2.187   3.841 -21.449  0.00  0.00    +0.096 A 
ATOM      9  C   UNL     1      -1.528   3.659 -22.555  0.00  0.00    +0.146 A 
ATOM     10  O   UNL     1      -2.150   3.173 -25.902  0.00  0.00    -0.287 OA
ATOM     11  O   UNL     1      -0.229   3.630 -22.539  0.00  0.00    -0.454 OA
ENDROOT
BRANCH   1  15
ATOM     12  C   UNL     1       4.329   3.361 -23.597  0.00  0.00    +0.162 A 
ATOM     13  C   UNL     1       3.661   2.327 -24.015  0.00  0.00    +0.050 A 
ATOM     14  C   UNL     1       2.362   2.356 -24.031  0.00  0.00    +0.015 A 
ATOM     15  C   UNL     1       1.730   3.419 -23.629  0.00  0.00    +0.021 A 
ATOM     16  C   UNL     1       2.398   4.453 -23.211  0.00  0.00    +0.061 A 
ATOM     17  C   UNL     1       3.698   4.424 -23.195  0.00  0.00    +0.162 A 
BRANCH  12  19
ATOM     18  C   UNL     1       6.253   2.670 -22.653  0.00  0.00    +0.277 C 
ATOM     19  O   UNL     1       5.629   3.332 -23.581  0.00  0.00    -0.491 OA
ENDBRANCH  12  19
BRANCH  17  20
ATOM     20  O   UNL     1       4.366   5.458 -22.777  0.00  0.00    -0.491 OA
ATOM     21  C   UNL     1       3.737   6.540 -22.426  0.00  0.00    +0.277 C 
ENDBRANCH  17  20
ENDBRANCH   1  15
BRANCH   7  22
ATOM     22  O   UNL     1      -4.147   4.051 -20.359  0.00  0.00    -0.503 OA
ATOM     23  H   UNL     1      -4.472   3.314 -19.881  0.00  0.00    +0.292 HD
ENDBRANCH   7  22
BRANCH   6  24
ATOM     24  O   UNL     1      -5.427   3.747 -22.602  0.00  0.00    -0.488 OA
ATOM     25  C   UNL     1      -6.105   2.855 -21.944  0.00  0.00    +0.277 C 
ENDBRANCH   6  24
BRANCH   5  26
ATOM     26  O   UNL     1      -4.108   3.384 -24.813  0.00  0.00    -0.503 OA
ATOM     27  H   UNL     1      -4.081   2.561 -25.260  0.00  0.00    +0.292 HD
ENDBRANCH   5  26
TORSDOF 6
ENDMDL
MODEL 8
REMARK VINA RESULT:    -8.130      1.653      7.559
REMARK INTER + INTRA:         -10.694
REMARK INTER:                 -10.247
REMARK INTRA:                  -0.447
REMARK UNBOUND:                -0.188
REMARK  Name = ZINC000006018691
REMARK  9 active torsions:
REMARK  status: ('A' for Active; 'I' for Inactive)
REMARK    1  A    between atoms: C_1  and  O_2
REMARK    2  A    between atoms: O_2  and  C_3
REMARK    3  A    between atoms: C_6  and  C_7
REMARK    4  A    between atoms: C_12  and  O_13
REMARK    5  A    between atoms: C_14  and  O_15
REMARK    6  A    between atoms: O_15  and  C_16
REMARK    7  A    between atoms: C_17  and  O_18
REMARK    8  A    between atoms: C_23  and  O_24
REMARK    9  A    between atoms: O_24  and  C_25
REMARK                            x       y       z     vdW  Elec       q    Type
REMARK                         _______ _______ _______ _____ _____    ______ ____
ROOT
ATOM      1  C   UNL     1       0.181   2.438 -22.765  0.00  0.00    +0.139 A 
ATOM      2  C   UNL     1      -0.696   2.517 -21.807  0.00  0.00    +0.098 A 
ATOM      3  C   UNL     1      -1.919   2.869 -22.074  0.00  0.00    +0.197 A 
ATOM      4  C   UNL     1      -2.266   3.141 -23.297  0.00  0.00    +0.109 A 
ATOM      5  C   UNL     1      -3.489   3.492 -23.562  0.00  0.00    +0.177 A 
ATOM      6  C   UNL     1      -3.836   3.764 -24.785  0.00  0.00    +0.204 A 
ATOM      7  C   UNL     1      -2.960   3.685 -25.743  0.00  0.00    +0.166 A 
ATOM      8  C   UNL     1      -1.736   3.333 -25.476  0.00  0.00    +0.096 A 
ATOM      9  C   UNL     1      -1.390   3.061 -24.254  0.00  0.00    +0.146 A 
ATOM     10  O   UNL     1      -2.795   2.948 -21.117  0.00  0.00    -0.287 OA
ATOM     11  O   UNL     1      -0.167   2.710 -23.988  0.00  0.00    -0.454 OA
ENDROOT
BRANCH   1  15
ATOM     12  C   UNL     1       3.849   1.384 -21.968  0.00  0.00    +0.162 A 
ATOM     13  C   UNL     1       2.916   0.483 -22.043  0.00  0.00    +0.050 A 
ATOM     14  C   UNL     1       1.693   0.833 -22.308  0.00  0.00    +0.015 A 
ATOM     15  C   UNL     1       1.404   2.086 -22.499  0.00  0.00    +0.021 A 
ATOM     16  C   UNL     1       2.337   2.989 -22.425  0.00  0.00    +0.061 A 
ATOM     17  C   UNL     1       3.560   2.637 -22.160  0.00  0.00    +0.162 A 
BRANCH  12  19
ATOM     18  C   UNL     1       5.325   0.285 -20.670  0.00  0.00    +0.277 C 
ATOM     19  O   UNL     1       5.073   1.033 -21.703  0.00  0.00    -0.491 OA
ENDBRANCH  12  19
BRANCH  17  20
ATOM     20  O   UNL     1       4.494   3.539 -22.085  0.00  0.00    -0.491 OA
ATOM     21  C   UNL     1       4.751   4.293 -23.112  0.00  0.00    +0.277 C 
ENDBRANCH  17  20
ENDBRANCH   1  15
BRANCH   7  22
ATOM     22  O   UNL     1      -3.307   3.956 -26.965  0.00  0.00    -0.503 OA
ATOM     23  H   UNL     1      -2.998   3.421 -27.670  0.00  0.00    +0.292 HD
ENDBRANCH   7  22
BRANCH   6  24
ATOM     24  O   UNL     1      -5.059   4.116 -25.051  0.00  0.00    -0.488 OA
ATOM     25  C   UNL     1      -5.904   3.237 -25.502  0.00  0.00    +0.277 C 
ENDBRANCH   6  24
BRANCH   5  26
ATOM     26  O   UNL     1      -4.365   3.572 -22.605  0.00  0.00    -0.503 OA
ATOM     27  H   UNL     1      -5.245   3.831 -22.796  0.00  0.00    +0.292 HD
ENDBRANCH   5  26
TORSDOF 6
ENDMDL
MODEL 9
REMARK VINA RESULT:    -8.113      1.564      7.565
REMARK INTER + INTRA:         -10.673
REMARK INTER:                 -10.484
REMARK INTRA:                  -0.188
REMARK UNBOUND:                -0.188
REMARK  Name = ZINC000006018691
REMARK  9 active torsions:
REMARK  status: ('A' for Active; 'I' for Inactive)
REMARK    1  A    between atoms: C_1  and  O_2
REMARK    2  A    between atoms: O_2  and  C_3
REMARK    3  A    between atoms: C_6  and  C_7
REMARK    4  A    between atoms: C_12  and  O_13
REMARK    5  A    between atoms: C_14  and  O_15
REMARK    6  A    between atoms: O_15  and  C_16
REMARK    7  A    between atoms: C_17  and  O_18
REMARK    8  A    between atoms: C_23  and  O_24
REMARK    9  A    between atoms: O_24  and  C_25
REMARK                            x       y       z     vdW  Elec       q    Type
REMARK                         _______ _______ _______ _____ _____    ______ ____
ROOT
ATOM      1  C   UNL     1       1.095   3.327 -23.348  0.00  0.00    +0.139 A 
ATOM      2  C   UNL     1       0.724   3.419 -24.592  0.00  0.00    +0.098 A 
ATOM      3  C   UNL     1      -0.541   3.455 -24.891  0.00  0.00    +0.197 A 
ATOM      4  C   UNL     1      -1.434   3.399 -23.949  0.00  0.00    +0.109 A 
ATOM      5  C   UNL     1      -2.699   3.435 -24.249  0.00  0.00    +0.177 A 
ATOM      6  C   UNL     1      -3.593   3.380 -23.307  0.00  0.00    +0.204 A 
ATOM      7  C   UNL     1      -3.222   3.288 -22.064  0.00  0.00    +0.166 A 
ATOM      8  C   UNL     1      -1.957   3.252 -21.764  0.00  0.00    +0.096 A 
ATOM      9  C   UNL     1      -1.064   3.308 -22.706  0.00  0.00    +0.146 A 
ATOM     10  O   UNL     1      -0.912   3.547 -26.134  0.00  0.00    -0.287 OA
ATOM     11  O   UNL     1       0.200   3.271 -22.406  0.00  0.00    -0.454 OA
ENDROOT
BRANCH   1  15
ATOM     12  C   UNL     1       4.886   3.218 -22.447  0.00  0.00    +0.162 A 
ATOM     13  C   UNL     1       4.405   4.228 -23.109  0.00  0.00    +0.050 A 
ATOM     14  C   UNL     1       3.141   4.264 -23.409  0.00  0.00    +0.015 A 
ATOM     15  C   UNL     1       2.359   3.291 -23.048  0.00  0.00    +0.021 A 
ATOM     16  C   UNL     1       2.840   2.281 -22.386  0.00  0.00    +0.061 A 
ATOM     17  C   UNL     1       4.105   2.244 -22.085  0.00  0.00    +0.162 A 
BRANCH  12  19
ATOM     18  C   UNL     1       7.042   3.121 -23.090  0.00  0.00    +0.277 C 
ATOM     19  O   UNL     1       6.151   3.182 -22.146  0.00  0.00    -0.491 OA
ENDBRANCH  12  19
BRANCH  17  20
ATOM     20  O   UNL     1       4.587   1.235 -21.423  0.00  0.00    -0.491 OA
ATOM     21  C   UNL     1       3.784   0.415 -20.813  0.00  0.00    +0.277 C 
ENDBRANCH  17  20
ENDBRANCH   1  15
BRANCH   7  22
ATOM     22  O   UNL     1      -4.115   3.232 -21.122  0.00  0.00    -0.503 OA
ATOM     23  H   UNL     1      -4.925   3.694 -21.216  0.00  0.00    +0.292 HD
ENDBRANCH   7  22
BRANCH   6  24
ATOM     24  O   UNL     1      -4.857   3.416 -23.607  0.00  0.00    -0.488 OA
ATOM     25  C   UNL     1      -5.352   4.455 -24.210  0.00  0.00    +0.277 C 
ENDBRANCH   6  24
BRANCH   5  26
ATOM     26  O   UNL     1      -3.069   3.527 -25.492  0.00  0.00    -0.503 OA
ATOM     27  H   UNL     1      -3.934   3.820 -25.702  0.00  0.00    +0.292 HD
ENDBRANCH   5  26
TORSDOF 6
ENDMDL
