MODEL 1
REMARK VINA RESULT:    -8.922      0.000      0.000
REMARK INTER + INTRA:          -6.859
REMARK INTER:                 -11.652
REMARK INTRA:                   4.793
REMARK UNBOUND:                 4.671
REMARK  Name = CCCC[C@]12Oc3c(OC)ccc4c3[C@]13CCN(C)[C@H](C4)C3=CC=C2OC              ZINC000100393618
REMARK  9 active torsions:
REMARK  status: ('A' for Active; 'I' for Inactive)
REMARK    1  A    between atoms: C_1  and  C_2
REMARK    2  A    between atoms: C_2  and  C_3
REMARK    3  A    between atoms: C_3  and  C_4
REMARK    4  A    between atoms: C_4  and  C_5
REMARK    5  A    between atoms: C_8  and  O_9
REMARK    6  A    between atoms: O_9  and  C_10
REMARK    7  A    between atoms: N_18  and  C_19
REMARK    8  A    between atoms: C_25  and  O_26
REMARK    9  A    between atoms: O_26  and  C_27
REMARK                            x       y       z     vdW  Elec       q    Type
REMARK                         _______ _______ _______ _____ _____    ______ ____
ROOT
ATOM      1  C   UNL     1      -1.460   3.195 -23.789  0.00  0.00    +0.181 C 
ATOM      2  O   UNL     1      -1.803   3.063 -22.320  0.00  0.00    -0.473 OA
ATOM      3  C   UNL     1      -3.281   3.143 -22.038  0.00  0.00    +0.168 A 
ATOM      4  C   UNL     1      -4.196   3.117 -21.155  0.00  0.00    +0.162 A 
ATOM      5  C   UNL     1      -5.409   3.245 -21.506  0.00  0.00    +0.050 A 
ATOM      6  C   UNL     1      -5.709   3.397 -22.716  0.00  0.00    +0.008 A 
ATOM      7  C   UNL     1      -4.801   3.423 -23.589  0.00  0.00    -0.034 A 
ATOM      8  C   UNL     1      -5.103   3.578 -24.820  0.00  0.00    +0.094 C 
ATOM      9  C   UNL     1      -4.198   3.604 -25.689  0.00  0.00    +0.096 C 
ATOM     10  C   UNL     1      -2.983   3.476 -25.340  0.00  0.00    -0.007 C 
ATOM     11  C   UNL     1      -2.070   3.502 -26.220  0.00  0.00    +0.009 C 
ATOM     12  C   UNL     1      -0.866   3.376 -25.883  0.00  0.00    +0.045 C 
ATOM     13  N   UNL     1      -3.246   3.647 -26.757  0.00  0.00    +0.239 N 
ATOM     14  H   UNL     1      -3.522   3.773 -27.731  0.00  0.00    +0.204 HD
ATOM     15  C   UNL     1      -3.604   3.802 -27.950  0.00  0.00    +0.191 C 
ATOM     16  C   UNL     1      -1.883   3.508 -26.403  0.00  0.00    +0.133 C 
ATOM     17  C   UNL     1      -1.575   3.337 -25.031  0.00  0.00    +0.071 C 
ATOM     18  C   UNL     1      -3.588   3.297 -23.258  0.00  0.00    +0.016 A 
ATOM     19  C   UNL     1      -0.558   3.222 -24.662  0.00  0.00    +0.142 C 
ATOM     20  C   UNL     1      -2.686   3.323 -24.130  0.00  0.00    +0.077 C 
ENDROOT
BRANCH   4  21
ATOM     21  O   UNL     1      -3.900   2.964 -19.944  0.00  0.00    -0.491 OA
ATOM     22  C   UNL     1      -3.079   3.738 -19.395  0.00  0.00    +0.277 C 
ENDBRANCH   4  21
BRANCH  19  23
ATOM     23  O   UNL     1       0.647   3.096 -24.328  0.00  0.00    -0.495 OA
ATOM     24  C   UNL     1       1.526   2.918 -25.206  0.00  0.00    +0.276 C 
ENDBRANCH  19  23
BRANCH   1  25
ATOM     25  C   UNL     1      -0.340   3.047 -23.183  0.00  0.00    +0.057 C 
BRANCH  25  26
ATOM     26  C   UNL     1      -0.258   2.539 -22.015  0.00  0.00    +0.004 C 
BRANCH  26  28
ATOM     27  C   UNL     1       1.574   1.474 -21.501  0.00  0.00    +0.004 C 
ATOM     28  C   UNL     1       0.350   1.458 -21.812  0.00  0.00    -0.003 C 
ENDBRANCH  26  28
ENDBRANCH  25  26
ENDBRANCH   1  25
TORSDOF 5
ENDMDL
MODEL 2
REMARK VINA RESULT:    -8.493      1.861      4.365
REMARK INTER + INTRA:          -6.304
REMARK INTER:                 -10.983
REMARK INTRA:                   4.679
REMARK UNBOUND:                 4.671
REMARK  Name = CCCC[C@]12Oc3c(OC)ccc4c3[C@]13CCN(C)[C@H](C4)C3=CC=C2OC              ZINC000100393618
REMARK  9 active torsions:
REMARK  status: ('A' for Active; 'I' for Inactive)
REMARK    1  A    between atoms: C_1  and  C_2
REMARK    2  A    between atoms: C_2  and  C_3
REMARK    3  A    between atoms: C_3  and  C_4
REMARK    4  A    between atoms: C_4  and  C_5
REMARK    5  A    between atoms: C_8  and  O_9
REMARK    6  A    between atoms: O_9  and  C_10
REMARK    7  A    between atoms: N_18  and  C_19
REMARK    8  A    between atoms: C_25  and  O_26
REMARK    9  A    between atoms: O_26  and  C_27
REMARK                            x       y       z     vdW  Elec       q    Type
REMARK                         _______ _______ _______ _____ _____    ______ ____
ROOT
ATOM      1  C   UNL     1      -1.222   2.805 -23.305  0.00  0.00    +0.181 C 
ATOM      2  O   UNL     1      -1.296   2.967 -24.809  0.00  0.00    -0.473 OA
ATOM      3  C   UNL     1      -2.678   3.302 -25.311  0.00  0.00    +0.168 A 
ATOM      4  C   UNL     1      -3.408   3.551 -26.321  0.00  0.00    +0.162 A 
ATOM      5  C   UNL     1      -4.644   3.791 -26.156  0.00  0.00    +0.050 A 
ATOM      6  C   UNL     1      -5.146   3.783 -25.005  0.00  0.00    +0.008 A 
ATOM      7  C   UNL     1      -4.421   3.535 -24.006  0.00  0.00    -0.034 A 
ATOM      8  C   UNL     1      -4.929   3.526 -22.834  0.00  0.00    +0.094 C 
ATOM      9  C   UNL     1      -4.204   3.280 -21.839  0.00  0.00    +0.096 C 
ATOM     10  C   UNL     1      -2.968   3.040 -22.001  0.00  0.00    -0.007 C 
ATOM     11  C   UNL     1      -2.238   2.791 -20.994  0.00  0.00    +0.009 C 
ATOM     12  C   UNL     1      -1.014   2.552 -21.146  0.00  0.00    +0.045 C 
ATOM     13  N   UNL     1      -3.470   3.011 -20.640  0.00  0.00    +0.239 N 
ATOM     14  H   UNL     1      -3.908   3.012 -19.718  0.00  0.00    +0.204 HD
ATOM     15  C   UNL     1      -4.026   3.017 -19.515  0.00  0.00    +0.191 C 
ATOM     16  C   UNL     1      -2.089   2.740 -20.785  0.00  0.00    +0.133 C 
ATOM     17  C   UNL     1      -1.550   2.756 -22.095  0.00  0.00    +0.071 C 
ATOM     18  C   UNL     1      -3.188   3.294 -24.150  0.00  0.00    +0.016 A 
ATOM     19  C   UNL     1      -0.501   2.559 -22.307  0.00  0.00    +0.142 C 
ATOM     20  C   UNL     1      -2.468   3.048 -23.152  0.00  0.00    +0.077 C 
ENDROOT
BRANCH   4  21
ATOM     21  O   UNL     1      -2.910   3.560 -27.474  0.00  0.00    -0.491 OA
ATOM     22  C   UNL     1      -3.643   3.389 -28.477  0.00  0.00    +0.277 C 
ENDBRANCH   4  21
BRANCH  19  23
ATOM     23  O   UNL     1       0.723   2.321 -22.456  0.00  0.00    -0.495 OA
ATOM     24  C   UNL     1       1.289   1.467 -21.730  0.00  0.00    +0.276 C 
ENDBRANCH  19  23
BRANCH   1  25
ATOM     25  C   UNL     1      -0.031   2.601 -23.736  0.00  0.00    +0.057 C 
BRANCH  25  26
ATOM     26  C   UNL     1       0.362   3.014 -24.877  0.00  0.00    +0.004 C 
BRANCH  26  28
ATOM     27  C   UNL     1       2.222   2.018 -25.428  0.00  0.00    +0.004 C 
ATOM     28  C   UNL     1       1.583   3.076 -25.167  0.00  0.00    -0.003 C 
ENDBRANCH  26  28
ENDBRANCH  25  26
ENDBRANCH   1  25
TORSDOF 5
ENDMDL
MODEL 3
REMARK VINA RESULT:    -8.220      1.720      4.266
REMARK INTER + INTRA:          -5.951
REMARK INTER:                 -11.503
REMARK INTRA:                   5.552
REMARK UNBOUND:                 4.671
REMARK  Name = CCCC[C@]12Oc3c(OC)ccc4c3[C@]13CCN(C)[C@H](C4)C3=CC=C2OC              ZINC000100393618
REMARK  9 active torsions:
REMARK  status: ('A' for Active; 'I' for Inactive)
REMARK    1  A    between atoms: C_1  and  C_2
REMARK    2  A    between atoms: C_2  and  C_3
REMARK    3  A    between atoms: C_3  and  C_4
REMARK    4  A    between atoms: C_4  and  C_5
REMARK    5  A    between atoms: C_8  and  O_9
REMARK    6  A    between atoms: O_9  and  C_10
REMARK    7  A    between atoms: N_18  and  C_19
REMARK    8  A    between atoms: C_25  and  O_26
REMARK    9  A    between atoms: O_26  and  C_27
REMARK                            x       y       z     vdW  Elec       q    Type
REMARK                         _______ _______ _______ _____ _____    ______ ____
ROOT
ATOM      1  C   UNL     1      -1.847   3.133 -24.558  0.00  0.00    +0.181 C 
ATOM      2  O   UNL     1      -0.397   2.741 -24.360  0.00  0.00    -0.473 OA
ATOM      3  C   UNL     1      -0.091   2.248 -22.970  0.00  0.00    +0.168 A 
ATOM      4  C   UNL     1       0.794   1.803 -22.172  0.00  0.00    +0.162 A 
ATOM      5  C   UNL     1       0.472   1.514 -20.979  0.00  0.00    +0.050 A 
ATOM      6  C   UNL     1      -0.711   1.664 -20.583  0.00  0.00    +0.008 A 
ATOM      7  C   UNL     1      -1.585   2.105 -21.375  0.00  0.00    -0.034 A 
ATOM      8  C   UNL     1      -2.789   2.259 -20.976  0.00  0.00    +0.094 C 
ATOM      9  C   UNL     1      -3.660   2.699 -21.766  0.00  0.00    +0.096 C 
ATOM     10  C   UNL     1      -3.340   2.989 -22.961  0.00  0.00    -0.007 C 
ATOM     11  C   UNL     1      -4.222   3.433 -23.757  0.00  0.00    +0.009 C 
ATOM     12  C   UNL     1      -3.914   3.722 -24.940  0.00  0.00    +0.045 C 
ATOM     13  N   UNL     1      -4.726   3.191 -22.583  0.00  0.00    +0.239 N 
ATOM     14  H   UNL     1      -5.678   3.302 -22.232  0.00  0.00    +0.204 HD
ATOM     15  C   UNL     1      -5.891   3.321 -22.133  0.00  0.00    +0.191 C 
ATOM     16  C   UNL     1      -4.405   3.524 -23.920  0.00  0.00    +0.133 C 
ATOM     17  C   UNL     1      -3.063   3.344 -24.337  0.00  0.00    +0.071 C 
ATOM     18  C   UNL     1      -1.284   2.399 -22.567  0.00  0.00    +0.016 A 
ATOM     19  C   UNL     1      -2.721   3.572 -25.345  0.00  0.00    +0.142 C 
ATOM     20  C   UNL     1      -2.158   2.838 -23.353  0.00  0.00    +0.077 C 
ENDROOT
BRANCH   4  21
ATOM     21  O   UNL     1       1.977   1.652 -22.563  0.00  0.00    -0.491 OA
ATOM     22  C   UNL     1       2.684   0.730 -22.087  0.00  0.00    +0.277 C 
ENDBRANCH   4  21
BRANCH  19  23
ATOM     23  O   UNL     1      -2.416   3.862 -26.529  0.00  0.00    -0.495 OA
ATOM     24  C   UNL     1      -3.227   3.636 -27.459  0.00  0.00    +0.276 C 
ENDBRANCH  19  23
BRANCH   1  25
ATOM     25  C   UNL     1      -1.272   3.344 -25.685  0.00  0.00    +0.057 C 
BRANCH  25  26
ATOM     26  C   UNL     1      -0.006   3.290 -25.827  0.00  0.00    +0.004 C 
BRANCH  26  28
ATOM     27  C   UNL     1       1.658   4.484 -25.077  0.00  0.00    +0.004 C 
ATOM     28  C   UNL     1       0.693   4.333 -25.879  0.00  0.00    -0.003 C 
ENDBRANCH  26  28
ENDBRANCH  25  26
ENDBRANCH   1  25
TORSDOF 5
ENDMDL
MODEL 4
REMARK VINA RESULT:    -8.199      1.502      3.542
REMARK INTER + INTRA:          -5.925
REMARK INTER:                 -11.705
REMARK INTRA:                   5.781
REMARK UNBOUND:                 4.671
REMARK  Name = CCCC[C@]12Oc3c(OC)ccc4c3[C@]13CCN(C)[C@H](C4)C3=CC=C2OC              ZINC000100393618
REMARK  9 active torsions:
REMARK  status: ('A' for Active; 'I' for Inactive)
REMARK    1  A    between atoms: C_1  and  C_2
REMARK    2  A    between atoms: C_2  and  C_3
REMARK    3  A    between atoms: C_3  and  C_4
REMARK    4  A    between atoms: C_4  and  C_5
REMARK    5  A    between atoms: C_8  and  O_9
REMARK    6  A    between atoms: O_9  and  C_10
REMARK    7  A    between atoms: N_18  and  C_19
REMARK    8  A    between atoms: C_25  and  O_26
REMARK    9  A    between atoms: O_26  and  C_27
REMARK                            x       y       z     vdW  Elec       q    Type
REMARK                         _______ _______ _______ _____ _____    ______ ____
ROOT
ATOM      1  C   UNL     1      -1.535   2.596 -22.526  0.00  0.00    +0.181 C 
ATOM      2  O   UNL     1      -3.010   2.857 -22.305  0.00  0.00    -0.473 OA
ATOM      3  C   UNL     1      -3.723   3.358 -23.535  0.00  0.00    +0.168 A 
ATOM      4  C   UNL     1      -4.825   3.741 -24.040  0.00  0.00    +0.162 A 
ATOM      5  C   UNL     1      -4.866   4.092 -25.259  0.00  0.00    +0.050 A 
ATOM      6  C   UNL     1      -3.828   4.064 -25.966  0.00  0.00    +0.008 A 
ATOM      7  C   UNL     1      -2.738   3.684 -25.463  0.00  0.00    -0.034 A 
ATOM      8  C   UNL     1      -1.681   3.653 -26.179  0.00  0.00    +0.094 C 
ATOM      9  C   UNL     1      -0.594   3.275 -25.677  0.00  0.00    +0.096 C 
ATOM     10  C   UNL     1      -0.551   2.923 -24.457  0.00  0.00    -0.007 C 
ATOM     11  C   UNL     1       0.549   2.541 -23.952  0.00  0.00    +0.009 C 
ATOM     12  C   UNL     1       0.600   2.191 -22.746  0.00  0.00    +0.045 C 
ATOM     13  N   UNL     1       0.691   2.861 -25.205  0.00  0.00    +0.239 N 
ATOM     14  H   UNL     1       1.517   2.848 -25.804  0.00  0.00    +0.204 HD
ATOM     15  C   UNL     1       1.696   2.852 -25.957  0.00  0.00    +0.191 C 
ATOM     16  C   UNL     1       0.776   2.462 -23.849  0.00  0.00    +0.133 C 
ATOM     17  C   UNL     1      -0.411   2.505 -23.077  0.00  0.00    +0.071 C 
ATOM     18  C   UNL     1      -2.677   3.330 -24.251  0.00  0.00    +0.016 A 
ATOM     19  C   UNL     1      -0.446   2.218 -22.028  0.00  0.00    +0.142 C 
ATOM     20  C   UNL     1      -1.589   2.953 -23.753  0.00  0.00    +0.077 C 
ENDROOT
BRANCH   4  21
ATOM     21  O   UNL     1      -5.865   3.772 -23.337  0.00  0.00    -0.491 OA
ATOM     22  C   UNL     1      -5.924   3.112 -22.271  0.00  0.00    +0.277 C 
ENDBRANCH   4  21
BRANCH  19  23
ATOM     23  O   UNL     1      -0.391   1.868 -20.823  0.00  0.00    -0.495 OA
ATOM     24  C   UNL     1       0.701   1.502 -20.324  0.00  0.00    +0.276 C 
ENDBRANCH  19  23
BRANCH   1  25
ATOM     25  C   UNL     1      -1.760   2.301 -21.298  0.00  0.00    +0.057 C 
BRANCH  25  26
ATOM     26  C   UNL     1      -2.877   2.542 -20.732  0.00  0.00    +0.004 C 
BRANCH  26  28
ATOM     27  C   UNL     1      -3.299   4.613 -20.192  0.00  0.00    +0.004 C 
ATOM     28  C   UNL     1      -2.988   3.436 -19.855  0.00  0.00    -0.003 C 
ENDBRANCH  26  28
ENDBRANCH  25  26
ENDBRANCH   1  25
TORSDOF 5
ENDMDL
MODEL 5
REMARK VINA RESULT:    -8.157      1.170      4.330
REMARK INTER + INTRA:          -5.870
REMARK INTER:                 -11.176
REMARK INTRA:                   5.305
REMARK UNBOUND:                 4.671
REMARK  Name = CCCC[C@]12Oc3c(OC)ccc4c3[C@]13CCN(C)[C@H](C4)C3=CC=C2OC              ZINC000100393618
REMARK  9 active torsions:
REMARK  status: ('A' for Active; 'I' for Inactive)
REMARK    1  A    between atoms: C_1  and  C_2
REMARK    2  A    between atoms: C_2  and  C_3
REMARK    3  A    between atoms: C_3  and  C_4
REMARK    4  A    between atoms: C_4  and  C_5
REMARK    5  A    between atoms: C_8  and  O_9
REMARK    6  A    between atoms: O_9  and  C_10
REMARK    7  A    between atoms: N_18  and  C_19
REMARK    8  A    between atoms: C_25  and  O_26
REMARK    9  A    between atoms: O_26  and  C_27
REMARK                            x       y       z     vdW  Elec       q    Type
REMARK                         _______ _______ _______ _____ _____    ______ ____
ROOT
ATOM      1  C   UNL     1      -2.764   2.777 -22.857  0.00  0.00    +0.181 C 
ATOM      2  O   UNL     1      -1.657   2.379 -21.903  0.00  0.00    -0.473 OA
ATOM      3  C   UNL     1      -0.286   2.404 -22.528  0.00  0.00    +0.168 A 
ATOM      4  C   UNL     1       0.960   2.217 -22.361  0.00  0.00    +0.162 A 
ATOM      5  C   UNL     1       1.757   2.405 -23.330  0.00  0.00    +0.050 A 
ATOM      6  C   UNL     1       1.323   2.774 -24.450  0.00  0.00    +0.008 A 
ATOM      7  C   UNL     1       0.088   2.959 -24.613  0.00  0.00    -0.034 A 
ATOM      8  C   UNL     1      -0.356   3.334 -25.750  0.00  0.00    +0.094 C 
ATOM      9  C   UNL     1      -1.587   3.519 -25.912  0.00  0.00    +0.096 C 
ATOM     10  C   UNL     1      -2.387   3.331 -24.943  0.00  0.00    -0.007 C 
ATOM     11  C   UNL     1      -3.631   3.519 -25.110  0.00  0.00    +0.009 C 
ATOM     12  C   UNL     1      -4.428   3.335 -24.156  0.00  0.00    +0.045 C 
ATOM     13  N   UNL     1      -2.968   3.757 -26.203  0.00  0.00    +0.239 N 
ATOM     14  H   UNL     1      -3.290   4.057 -27.124  0.00  0.00    +0.204 HD
ATOM     15  C   UNL     1      -3.345   4.125 -27.342  0.00  0.00    +0.191 C 
ATOM     16  C   UNL     1      -3.886   3.558 -25.145  0.00  0.00    +0.133 C 
ATOM     17  C   UNL     1      -3.368   3.141 -23.895  0.00  0.00    +0.071 C 
ATOM     18  C   UNL     1      -0.721   2.777 -23.659  0.00  0.00    +0.016 A 
ATOM     19  C   UNL     1      -3.995   2.962 -23.023  0.00  0.00    +0.142 C 
ATOM     20  C   UNL     1      -1.951   2.963 -23.826  0.00  0.00    +0.077 C 
ENDROOT
BRANCH   4  21
ATOM     21  O   UNL     1       1.398   1.848 -21.243  0.00  0.00    -0.491 OA
ATOM     22  C   UNL     1       2.593   1.481 -21.126  0.00  0.00    +0.277 C 
ENDBRANCH   4  21
BRANCH  19  23
ATOM     23  O   UNL     1      -4.795   2.780 -22.072  0.00  0.00    -0.495 OA
ATOM     24  C   UNL     1      -5.970   3.215 -22.148  0.00  0.00    +0.276 C 
ENDBRANCH  19  23
BRANCH   1  25
ATOM     25  C   UNL     1      -3.342   2.522 -21.740  0.00  0.00    +0.057 C 
BRANCH  25  26
ATOM     26  C   UNL     1      -2.752   2.665 -20.618  0.00  0.00    +0.004 C 
BRANCH  26  28
ATOM     27  C   UNL     1      -3.114   4.792 -20.302  0.00  0.00    +0.004 C 
ATOM     28  C   UNL     1      -3.034   3.616 -19.847  0.00  0.00    -0.003 C 
ENDBRANCH  26  28
ENDBRANCH  25  26
ENDBRANCH   1  25
TORSDOF 5
ENDMDL
MODEL 6
REMARK VINA RESULT:    -7.883      1.841      4.256
REMARK INTER + INTRA:          -5.516
REMARK INTER:                 -10.703
REMARK INTRA:                   5.187
REMARK UNBOUND:                 4.671
REMARK  Name = CCCC[C@]12Oc3c(OC)ccc4c3[C@]13CCN(C)[C@H](C4)C3=CC=C2OC              ZINC000100393618
REMARK  9 active torsions:
REMARK  status: ('A' for Active; 'I' for Inactive)
REMARK    1  A    between atoms: C_1  and  C_2
REMARK    2  A    between atoms: C_2  and  C_3
REMARK    3  A    between atoms: C_3  and  C_4
REMARK    4  A    between atoms: C_4  and  C_5
REMARK    5  A    between atoms: C_8  and  O_9
REMARK    6  A    between atoms: O_9  and  C_10
REMARK    7  A    between atoms: N_18  and  C_19
REMARK    8  A    between atoms: C_25  and  O_26
REMARK    9  A    between atoms: O_26  and  C_27
REMARK                            x       y       z     vdW  Elec       q    Type
REMARK                         _______ _______ _______ _____ _____    ______ ____
ROOT
ATOM      1  C   UNL     1      -1.253   3.298 -24.069  0.00  0.00    +0.181 C 
ATOM      2  O   UNL     1      -2.718   3.648 -24.233  0.00  0.00    -0.473 OA
ATOM      3  C   UNL     1      -3.563   3.274 -23.042  0.00  0.00    +0.168 A 
ATOM      4  C   UNL     1      -4.725   3.263 -22.527  0.00  0.00    +0.162 A 
ATOM      5  C   UNL     1      -4.891   2.775 -21.367  0.00  0.00    +0.050 A 
ATOM      6  C   UNL     1      -3.917   2.305 -20.727  0.00  0.00    +0.008 A 
ATOM      7  C   UNL     1      -2.767   2.317 -21.239  0.00  0.00    -0.034 A 
ATOM      8  C   UNL     1      -1.775   1.840 -20.592  0.00  0.00    +0.094 C 
ATOM      9  C   UNL     1      -0.628   1.853 -21.104  0.00  0.00    +0.096 C 
ATOM     10  C   UNL     1      -0.459   2.340 -22.264  0.00  0.00    -0.007 C 
ATOM     11  C   UNL     1       0.700   2.352 -22.779  0.00  0.00    +0.009 C 
ATOM     12  C   UNL     1       0.875   2.832 -23.927  0.00  0.00    +0.045 C 
ATOM     13  N   UNL     1       0.716   1.818 -21.593  0.00  0.00    +0.239 N 
ATOM     14  H   UNL     1       1.487   1.429 -21.049  0.00  0.00    +0.204 HD
ATOM     15  C   UNL     1       1.651   1.335 -20.909  0.00  0.00    +0.191 C 
ATOM     16  C   UNL     1       0.939   2.353 -22.883  0.00  0.00    +0.133 C 
ATOM     17  C   UNL     1      -0.177   2.876 -23.580  0.00  0.00    +0.071 C 
ATOM     18  C   UNL     1      -2.582   2.799 -22.394  0.00  0.00    +0.016 A 
ATOM     19  C   UNL     1      -0.105   3.308 -24.577  0.00  0.00    +0.142 C 
ATOM     20  C   UNL     1      -1.434   2.809 -22.901  0.00  0.00    +0.077 C 
ENDROOT
BRANCH   4  21
ATOM     21  O   UNL     1      -5.701   3.732 -23.162  0.00  0.00    -0.491 OA
ATOM     22  C   UNL     1      -5.581   4.020 -24.378  0.00  0.00    +0.277 C 
ENDBRANCH   4  21
BRANCH  19  23
ATOM     23  O   UNL     1       0.073   3.788 -25.724  0.00  0.00    -0.495 OA
ATOM     24  C   UNL     1       1.207   4.212 -26.058  0.00  0.00    +0.276 C 
ENDBRANCH  19  23
BRANCH   1  25
ATOM     25  C   UNL     1      -1.355   3.836 -25.229  0.00  0.00    +0.057 C 
BRANCH  25  26
ATOM     26  C   UNL     1      -2.465   3.907 -25.854  0.00  0.00    +0.004 C 
BRANCH  26  28
ATOM     27  C   UNL     1      -3.724   3.421 -27.566  0.00  0.00    +0.004 C 
ATOM     28  C   UNL     1      -2.581   3.485 -27.031  0.00  0.00    -0.003 C 
ENDBRANCH  26  28
ENDBRANCH  25  26
ENDBRANCH   1  25
TORSDOF 5
ENDMDL
MODEL 7
REMARK VINA RESULT:    -7.706      1.878      5.571
REMARK INTER + INTRA:          -5.287
REMARK INTER:                 -10.001
REMARK INTRA:                   4.714
REMARK UNBOUND:                 4.671
REMARK  Name = CCCC[C@]12Oc3c(OC)ccc4c3[C@]13CCN(C)[C@H](C4)C3=CC=C2OC              ZINC000100393618
REMARK  9 active torsions:
REMARK  status: ('A' for Active; 'I' for Inactive)
REMARK    1  A    between atoms: C_1  and  C_2
REMARK    2  A    between atoms: C_2  and  C_3
REMARK    3  A    between atoms: C_3  and  C_4
REMARK    4  A    between atoms: C_4  and  C_5
REMARK    5  A    between atoms: C_8  and  O_9
REMARK    6  A    between atoms: O_9  and  C_10
REMARK    7  A    between atoms: N_18  and  C_19
REMARK    8  A    between atoms: C_25  and  O_26
REMARK    9  A    between atoms: O_26  and  C_27
REMARK                            x       y       z     vdW  Elec       q    Type
REMARK                         _______ _______ _______ _____ _____    ______ ____
ROOT
ATOM      1  C   UNL     1      -2.674   3.388 -24.025  0.00  0.00    +0.181 C 
ATOM      2  O   UNL     1      -1.412   3.345 -24.861  0.00  0.00    -0.473 OA
ATOM      3  C   UNL     1      -0.214   2.815 -24.115  0.00  0.00    +0.168 A 
ATOM      4  C   UNL     1       1.023   2.527 -24.163  0.00  0.00    +0.162 A 
ATOM      5  C   UNL     1       1.597   2.060 -23.132  0.00  0.00    +0.050 A 
ATOM      6  C   UNL     1       0.952   1.880 -22.070  0.00  0.00    +0.008 A 
ATOM      7  C   UNL     1      -0.274   2.166 -22.025  0.00  0.00    -0.034 A 
ATOM      8  C   UNL     1      -0.933   1.984 -20.946  0.00  0.00    +0.094 C 
ATOM      9  C   UNL     1      -2.155   2.269 -20.902  0.00  0.00    +0.096 C 
ATOM     10  C   UNL     1      -2.731   2.738 -21.932  0.00  0.00    -0.007 C 
ATOM     11  C   UNL     1      -3.966   3.025 -21.886  0.00  0.00    +0.009 C 
ATOM     12  C   UNL     1      -4.544   3.489 -22.901  0.00  0.00    +0.045 C 
ATOM     13  N   UNL     1      -3.547   2.560 -20.746  0.00  0.00    +0.239 N 
ATOM     14  H   UNL     1      -4.044   2.403 -19.868  0.00  0.00    +0.204 HD
ATOM     15  C   UNL     1      -4.141   2.360 -19.658  0.00  0.00    +0.191 C 
ATOM     16  C   UNL     1      -4.220   3.083 -21.875  0.00  0.00    +0.133 C 
ATOM     17  C   UNL     1      -3.467   3.275 -23.059  0.00  0.00    +0.071 C 
ATOM     18  C   UNL     1      -0.863   2.633 -23.041  0.00  0.00    +0.016 A 
ATOM     19  C   UNL     1      -3.896   3.672 -23.977  0.00  0.00    +0.142 C 
ATOM     20  C   UNL     1      -2.084   2.916 -22.993  0.00  0.00    +0.077 C 
ENDROOT
BRANCH   4  21
ATOM     21  O   UNL     1       1.672   2.705 -25.224  0.00  0.00    -0.491 OA
ATOM     22  C   UNL     1       2.255   1.740 -25.774  0.00  0.00    +0.277 C 
ENDBRANCH   4  21
BRANCH  19  23
ATOM     23  O   UNL     1      -4.477   4.136 -24.990  0.00  0.00    -0.495 OA
ATOM     24  C   UNL     1      -5.618   4.647 -24.880  0.00  0.00    +0.276 C 
ENDBRANCH  19  23
BRANCH   1  25
ATOM     25  C   UNL     1      -3.007   3.836 -25.180  0.00  0.00    +0.057 C 
BRANCH  25  26
ATOM     26  C   UNL     1      -2.462   3.421 -26.256  0.00  0.00    +0.004 C 
BRANCH  26  28
ATOM     27  C   UNL     1      -3.658   3.255 -28.072  0.00  0.00    +0.004 C 
ATOM     28  C   UNL     1      -2.802   3.872 -27.378  0.00  0.00    -0.003 C 
ENDBRANCH  26  28
ENDBRANCH  25  26
ENDBRANCH   1  25
TORSDOF 5
ENDMDL
MODEL 8
REMARK VINA RESULT:    -6.813      5.806      8.431
REMARK INTER + INTRA:          -4.134
REMARK INTER:                  -8.792
REMARK INTRA:                   4.658
REMARK UNBOUND:                 4.671
REMARK  Name = CCCC[C@]12Oc3c(OC)ccc4c3[C@]13CCN(C)[C@H](C4)C3=CC=C2OC              ZINC000100393618
REMARK  9 active torsions:
REMARK  status: ('A' for Active; 'I' for Inactive)
REMARK    1  A    between atoms: C_1  and  C_2
REMARK    2  A    between atoms: C_2  and  C_3
REMARK    3  A    between atoms: C_3  and  C_4
REMARK    4  A    between atoms: C_4  and  C_5
REMARK    5  A    between atoms: C_8  and  O_9
REMARK    6  A    between atoms: O_9  and  C_10
REMARK    7  A    between atoms: N_18  and  C_19
REMARK    8  A    between atoms: C_25  and  O_26
REMARK    9  A    between atoms: O_26  and  C_27
REMARK                            x       y       z     vdW  Elec       q    Type
REMARK                         _______ _______ _______ _____ _____    ______ ____
ROOT
ATOM      1  C   UNL     1       5.158   6.013 -22.387  0.00  0.00    +0.181 C 
ATOM      2  O   UNL     1       3.680   6.346 -22.422  0.00  0.00    -0.473 OA
ATOM      3  C   UNL     1       2.832   5.255 -23.022  0.00  0.00    +0.168 A 
ATOM      4  C   UNL     1       1.661   4.875 -23.341  0.00  0.00    +0.162 A 
ATOM      5  C   UNL     1       1.497   3.736 -23.876  0.00  0.00    +0.050 A 
ATOM      6  C   UNL     1       2.480   2.985 -24.092  0.00  0.00    +0.008 A 
ATOM      7  C   UNL     1       3.639   3.363 -23.775  0.00  0.00    -0.034 A 
ATOM      8  C   UNL     1       4.641   2.602 -23.993  0.00  0.00    +0.094 C 
ATOM      9  C   UNL     1       5.796   2.980 -23.677  0.00  0.00    +0.096 C 
ATOM     10  C   UNL     1       5.963   4.119 -23.141  0.00  0.00    -0.007 C 
ATOM     11  C   UNL     1       7.131   4.499 -22.823  0.00  0.00    +0.009 C 
ATOM     12  C   UNL     1       7.304   5.625 -22.292  0.00  0.00    +0.045 C 
ATOM     13  N   UNL     1       7.150   3.313 -23.356  0.00  0.00    +0.239 N 
ATOM     14  H   UNL     1       7.928   2.681 -23.544  0.00  0.00    +0.204 HD
ATOM     15  C   UNL     1       8.095   2.522 -23.595  0.00  0.00    +0.191 C 
ATOM     16  C   UNL     1       7.372   4.576 -22.758  0.00  0.00    +0.133 C 
ATOM     17  C   UNL     1       6.244   5.401 -22.527  0.00  0.00    +0.071 C 
ATOM     18  C   UNL     1       3.823   4.494 -23.241  0.00  0.00    +0.016 A 
ATOM     19  C   UNL     1       6.314   6.387 -22.072  0.00  0.00    +0.142 C 
ATOM     20  C   UNL     1       4.978   4.868 -22.927  0.00  0.00    +0.077 C 
ENDROOT
BRANCH   4  21
ATOM     21  O   UNL     1       0.675   5.622 -23.127  0.00  0.00    -0.491 OA
ATOM     22  C   UNL     1      -0.491   5.173 -23.241  0.00  0.00    +0.277 C 
ENDBRANCH   4  21
BRANCH  19  23
ATOM     23  O   UNL     1       6.491   7.512 -21.542  0.00  0.00    -0.495 OA
ATOM     24  C   UNL     1       7.539   7.741 -20.890  0.00  0.00    +0.276 C 
ENDBRANCH  19  23
BRANCH   1  25
ATOM     25  C   UNL     1       5.052   7.183 -21.871  0.00  0.00    +0.057 C 
BRANCH  25  26
ATOM     26  C   UNL     1       4.025   7.918 -22.051  0.00  0.00    +0.004 C 
BRANCH  26  28
ATOM     27  C   UNL     1       4.115   9.796 -20.946  0.00  0.00    +0.004 C 
ATOM     28  C   UNL     1       4.108   9.172 -22.044  0.00  0.00    -0.003 C 
ENDBRANCH  26  28
ENDBRANCH  25  26
ENDBRANCH   1  25
TORSDOF 5
ENDMDL
MODEL 9
REMARK VINA RESULT:    -6.720      4.767      7.504
REMARK INTER + INTRA:          -4.013
REMARK INTER:                  -8.684
REMARK INTRA:                   4.671
REMARK UNBOUND:                 4.671
REMARK  Name = CCCC[C@]12Oc3c(OC)ccc4c3[C@]13CCN(C)[C@H](C4)C3=CC=C2OC              ZINC000100393618
REMARK  9 active torsions:
REMARK  status: ('A' for Active; 'I' for Inactive)
REMARK    1  A    between atoms: C_1  and  C_2
REMARK    2  A    between atoms: C_2  and  C_3
REMARK    3  A    between atoms: C_3  and  C_4
REMARK    4  A    between atoms: C_4  and  C_5
REMARK    5  A    between atoms: C_8  and  O_9
REMARK    6  A    between atoms: O_9  and  C_10
REMARK    7  A    between atoms: N_18  and  C_19
REMARK    8  A    between atoms: C_25  and  O_26
REMARK    9  A    between atoms: O_26  and  C_27
REMARK                            x       y       z     vdW  Elec       q    Type
REMARK                         _______ _______ _______ _____ _____    ______ ____
ROOT
ATOM      1  C   UNL     1       4.569   4.723 -22.687  0.00  0.00    +0.181 C 
ATOM      2  O   UNL     1       3.258   5.411 -23.006  0.00  0.00    -0.473 OA
ATOM      3  C   UNL     1       2.117   4.454 -23.238  0.00  0.00    +0.168 A 
ATOM      4  C   UNL     1       0.884   4.321 -23.516  0.00  0.00    +0.162 A 
ATOM      5  C   UNL     1       0.383   3.157 -23.597  0.00  0.00    +0.050 A 
ATOM      6  C   UNL     1       1.096   2.141 -23.405  0.00  0.00    +0.008 A 
ATOM      7  C   UNL     1       2.318   2.276 -23.131  0.00  0.00    -0.034 A 
ATOM      8  C   UNL     1       3.046   1.245 -22.936  0.00  0.00    +0.094 C 
ATOM      9  C   UNL     1       4.264   1.380 -22.662  0.00  0.00    +0.096 C 
ATOM     10  C   UNL     1       4.767   2.543 -22.580  0.00  0.00    -0.007 C 
ATOM     11  C   UNL     1       5.998   2.677 -22.304  0.00  0.00    +0.009 C 
ATOM     12  C   UNL     1       6.504   3.825 -22.221  0.00  0.00    +0.045 C 
ATOM     13  N   UNL     1       5.658   1.423 -22.346  0.00  0.00    +0.239 N 
ATOM     14  H   UNL     1       6.212   0.579 -22.196  0.00  0.00    +0.204 HD
ATOM     15  C   UNL     1       6.323   0.373 -22.164  0.00  0.00    +0.191 C 
ATOM     16  C   UNL     1       6.252   2.703 -22.247  0.00  0.00    +0.133 C 
ATOM     17  C   UNL     1       5.423   3.830 -22.468  0.00  0.00    +0.071 C 
ATOM     18  C   UNL     1       2.835   3.426 -23.046  0.00  0.00    +0.016 A 
ATOM     19  C   UNL     1       5.788   4.854 -22.413  0.00  0.00    +0.142 C 
ATOM     20  C   UNL     1       4.052   3.557 -22.772  0.00  0.00    +0.077 C 
ENDROOT
BRANCH   4  21
ATOM     21  O   UNL     1       0.167   5.334 -23.708  0.00  0.00    -0.491 OA
ATOM     22  C   UNL     1      -1.027   5.342 -23.319  0.00  0.00    +0.277 C 
ENDBRANCH   4  21
BRANCH  19  23
ATOM     23  O   UNL     1       6.296   6.000 -22.330  0.00  0.00    -0.495 OA
ATOM     24  C   UNL     1       7.542   6.129 -22.241  0.00  0.00    +0.276 C 
ENDBRANCH  19  23
BRANCH   1  25
ATOM     25  C   UNL     1       4.822   5.981 -22.665  0.00  0.00    +0.057 C 
BRANCH  25  26
ATOM     26  C   UNL     1       3.940   6.849 -22.354  0.00  0.00    +0.004 C 
BRANCH  26  28
ATOM     27  C   UNL     1       4.348   8.271 -20.752  0.00  0.00    +0.004 C 
ATOM     28  C   UNL     1       4.262   8.006 -21.984  0.00  0.00    -0.003 C 
ENDBRANCH  26  28
ENDBRANCH  25  26
ENDBRANCH   1  25
TORSDOF 5
ENDMDL
