MODEL 1
REMARK VINA RESULT:   -10.981      0.000      0.000
REMARK INTER + INTRA:         -12.024
REMARK INTER:                 -12.248
REMARK INTRA:                   0.224
REMARK UNBOUND:                 0.240
REMARK  Name = ZINC000019701796
REMARK  4 active torsions:
REMARK  status: ('A' for Active; 'I' for Inactive)
REMARK    1  A    between atoms: C_1  and  O_2
REMARK    2  A    between atoms: O_2  and  C_3
REMARK    3  A    between atoms: C_8  and  O_9
REMARK    4  A    between atoms: O_9  and  C_10
REMARK                            x       y       z     vdW  Elec       q    Type
REMARK                         _______ _______ _______ _____ _____    ______ ____
ROOT
ATOM      1  C   UNL     1      -4.288   3.314 -22.508  0.00  0.00    +0.162 A 
ATOM      2  C   UNL     1      -3.932   2.704 -21.417  0.00  0.00    +0.050 A 
ATOM      3  C   UNL     1      -2.704   2.305 -21.265  0.00  0.00    +0.008 A 
ATOM      4  C   UNL     1      -1.831   2.516 -22.206  0.00  0.00    -0.030 A 
ATOM      5  C   UNL     1      -2.187   3.126 -23.297  0.00  0.00    +0.046 A 
ATOM      6  C   UNL     1      -1.314   3.336 -24.237  0.00  0.00    +0.172 C 
ATOM      7  N   UNL     1      -0.086   2.937 -24.086  0.00  0.00    +0.244 N 
ATOM      8  H   UNL     1      -0.293   3.408 -24.967  0.00  0.00    +0.204 HD
ATOM      9  C   UNL     1       0.787   3.148 -25.026  0.00  0.00    +0.137 C 
ATOM     10  C   UNL     1       2.014   2.749 -24.875  0.00  0.00    +0.086 C 
ATOM     11  C   UNL     1       2.370   2.139 -23.783  0.00  0.00    -0.030 A 
ATOM     12  C   UNL     1       3.598   1.740 -23.631  0.00  0.00    +0.053 A 
ATOM     13  C   UNL     1       3.952   1.130 -22.539  0.00  0.00    +0.167 A 
ATOM     14  C   UNL     1       3.080   0.920 -21.599  0.00  0.00    +0.167 A 
ATOM     15  O   UNL     1       3.680   0.301 -20.626  0.00  0.00    -0.453 OA
ATOM     16  C   UNL     1       4.923   0.129 -20.964  0.00  0.00    +0.466 C 
ATOM     17  C   UNL     1       1.852   1.319 -21.751  0.00  0.00    +0.059 A 
ATOM     18  O   UNL     1       5.091   0.642 -22.147  0.00  0.00    -0.453 OA
ATOM     19  C   UNL     1       1.497   1.929 -22.843  0.00  0.00    +0.008 A 
ATOM     20  C   UNL     1       0.269   2.327 -22.994  0.00  0.00    +0.100 C 
ATOM     21  C   UNL     1      -0.603   2.117 -22.054  0.00  0.00    +0.095 C 
ATOM     22  C   UNL     1      -3.415   3.525 -23.449  0.00  0.00    +0.170 A 
ENDROOT
BRANCH   1  24
ATOM     23  C   UNL     1      -6.489   3.038 -22.125  0.00  0.00    +0.277 C 
ATOM     24  O   UNL     1      -5.515   3.713 -22.660  0.00  0.00    -0.491 OA
ENDBRANCH   1  24
BRANCH  22  25
ATOM     25  O   UNL     1      -3.770   4.135 -24.541  0.00  0.00    -0.491 OA
ATOM     26  C   UNL     1      -4.326   3.466 -25.507  0.00  0.00    +0.277 C 
ENDBRANCH  22  25
TORSDOF 2
ENDMDL
MODEL 2
REMARK VINA RESULT:   -10.380      1.042      7.040
REMARK INTER + INTRA:         -11.353
REMARK INTER:                 -11.620
REMARK INTRA:                   0.267
REMARK UNBOUND:                 0.240
REMARK  Name = ZINC000019701796
REMARK  4 active torsions:
REMARK  status: ('A' for Active; 'I' for Inactive)
REMARK    1  A    between atoms: C_1  and  O_2
REMARK    2  A    between atoms: O_2  and  C_3
REMARK    3  A    between atoms: C_8  and  O_9
REMARK    4  A    between atoms: O_9  and  C_10
REMARK                            x       y       z     vdW  Elec       q    Type
REMARK                         _______ _______ _______ _____ _____    ______ ____
ROOT
ATOM      1  C   UNL     1       3.695   1.407 -21.610  0.00  0.00    +0.162 A 
ATOM      2  C   UNL     1       2.868   1.167 -20.636  0.00  0.00    +0.050 A 
ATOM      3  C   UNL     1       1.604   1.439 -20.775  0.00  0.00    +0.008 A 
ATOM      4  C   UNL     1       1.168   1.951 -21.888  0.00  0.00    -0.030 A 
ATOM      5  C   UNL     1       1.995   2.191 -22.862  0.00  0.00    +0.046 A 
ATOM      6  C   UNL     1       1.559   2.703 -23.974  0.00  0.00    +0.172 C 
ATOM      7  N   UNL     1       0.295   2.975 -24.113  0.00  0.00    +0.244 N 
ATOM      8  H   UNL     1       0.885   3.189 -24.917  0.00  0.00    +0.204 HD
ATOM      9  C   UNL     1      -0.141   3.486 -25.225  0.00  0.00    +0.137 C 
ATOM     10  C   UNL     1      -1.404   3.758 -25.364  0.00  0.00    +0.086 C 
ATOM     11  C   UNL     1      -2.232   3.519 -24.390  0.00  0.00    -0.030 A 
ATOM     12  C   UNL     1      -3.496   3.791 -24.529  0.00  0.00    +0.053 A 
ATOM     13  C   UNL     1      -4.323   3.551 -23.555  0.00  0.00    +0.167 A 
ATOM     14  C   UNL     1      -3.886   3.039 -22.443  0.00  0.00    +0.167 A 
ATOM     15  O   UNL     1      -4.900   2.899 -21.641  0.00  0.00    -0.453 OA
ATOM     16  C   UNL     1      -5.963   3.324 -22.257  0.00  0.00    +0.466 C 
ATOM     17  C   UNL     1      -2.623   2.767 -22.304  0.00  0.00    +0.059 A 
ATOM     18  O   UNL     1      -5.606   3.727 -23.440  0.00  0.00    -0.453 OA
ATOM     19  C   UNL     1      -1.795   3.007 -23.278  0.00  0.00    +0.008 A 
ATOM     20  C   UNL     1      -0.532   2.735 -23.139  0.00  0.00    +0.100 C 
ATOM     21  C   UNL     1      -0.096   2.223 -22.027  0.00  0.00    +0.095 C 
ATOM     22  C   UNL     1       3.259   1.919 -22.723  0.00  0.00    +0.170 A 
ENDROOT
BRANCH   1  24
ATOM     23  C   UNL     1       5.334   0.181 -20.673  0.00  0.00    +0.277 C 
ATOM     24  O   UNL     1       4.959   1.135 -21.471  0.00  0.00    -0.491 OA
ENDBRANCH   1  24
BRANCH  22  25
ATOM     25  O   UNL     1       4.086   2.159 -23.697  0.00  0.00    -0.491 OA
ATOM     26  C   UNL     1       4.895   3.173 -23.626  0.00  0.00    +0.277 C 
ENDBRANCH  22  25
TORSDOF 2
ENDMDL
MODEL 3
REMARK VINA RESULT:    -9.932      1.647      7.577
REMARK INTER + INTRA:         -10.853
REMARK INTER:                 -11.091
REMARK INTRA:                   0.238
REMARK UNBOUND:                 0.240
REMARK  Name = ZINC000019701796
REMARK  4 active torsions:
REMARK  status: ('A' for Active; 'I' for Inactive)
REMARK    1  A    between atoms: C_1  and  O_2
REMARK    2  A    between atoms: O_2  and  C_3
REMARK    3  A    between atoms: C_8  and  O_9
REMARK    4  A    between atoms: O_9  and  C_10
REMARK                            x       y       z     vdW  Elec       q    Type
REMARK                         _______ _______ _______ _____ _____    ______ ____
ROOT
ATOM      1  C   UNL     1       4.860   3.058 -22.499  0.00  0.00    +0.162 A 
ATOM      2  C   UNL     1       4.517   3.917 -23.412  0.00  0.00    +0.050 A 
ATOM      3  C   UNL     1       3.261   4.102 -23.692  0.00  0.00    +0.008 A 
ATOM      4  C   UNL     1       2.348   3.427 -23.058  0.00  0.00    -0.030 A 
ATOM      5  C   UNL     1       2.691   2.568 -22.144  0.00  0.00    +0.046 A 
ATOM      6  C   UNL     1       1.778   1.894 -21.511  0.00  0.00    +0.172 C 
ATOM      7  N   UNL     1       0.521   2.079 -21.790  0.00  0.00    +0.244 N 
ATOM      8  H   UNL     1       0.717   1.390 -21.063  0.00  0.00    +0.204 HD
ATOM      9  C   UNL     1      -0.391   1.405 -21.157  0.00  0.00    +0.137 C 
ATOM     10  C   UNL     1      -1.647   1.590 -21.436  0.00  0.00    +0.086 C 
ATOM     11  C   UNL     1      -1.990   2.449 -22.349  0.00  0.00    -0.030 A 
ATOM     12  C   UNL     1      -3.246   2.634 -22.629  0.00  0.00    +0.053 A 
ATOM     13  C   UNL     1      -3.589   3.494 -23.542  0.00  0.00    +0.167 A 
ATOM     14  C   UNL     1      -2.676   4.168 -24.175  0.00  0.00    +0.167 A 
ATOM     15  O   UNL     1      -3.272   4.949 -25.026  0.00  0.00    -0.453 OA
ATOM     16  C   UNL     1      -4.553   4.759 -24.919  0.00  0.00    +0.466 C 
ATOM     17  C   UNL     1      -1.420   3.983 -23.896  0.00  0.00    +0.059 A 
ATOM     18  O   UNL     1      -4.749   3.859 -24.001  0.00  0.00    -0.453 OA
ATOM     19  C   UNL     1      -1.077   3.123 -22.983  0.00  0.00    +0.008 A 
ATOM     20  C   UNL     1       0.179   2.939 -22.704  0.00  0.00    +0.100 C 
ATOM     21  C   UNL     1       1.092   3.613 -23.337  0.00  0.00    +0.095 C 
ATOM     22  C   UNL     1       3.947   2.383 -21.865  0.00  0.00    +0.170 A 
ENDROOT
BRANCH   1  24
ATOM     23  C   UNL     1       6.822   3.845 -21.723  0.00  0.00    +0.277 C 
ATOM     24  O   UNL     1       6.116   2.872 -22.219  0.00  0.00    -0.491 OA
ENDBRANCH   1  24
BRANCH  22  25
ATOM     25  O   UNL     1       4.290   1.524 -20.951  0.00  0.00    -0.491 OA
ATOM     26  C   UNL     1       4.712   0.344 -21.296  0.00  0.00    +0.277 C 
ENDBRANCH  22  25
TORSDOF 2
ENDMDL
MODEL 4
REMARK VINA RESULT:    -9.689      1.694      3.111
REMARK INTER + INTRA:         -10.581
REMARK INTER:                 -10.796
REMARK INTRA:                   0.215
REMARK UNBOUND:                 0.240
REMARK  Name = ZINC000019701796
REMARK  4 active torsions:
REMARK  status: ('A' for Active; 'I' for Inactive)
REMARK    1  A    between atoms: C_1  and  O_2
REMARK    2  A    between atoms: O_2  and  C_3
REMARK    3  A    between atoms: C_8  and  O_9
REMARK    4  A    between atoms: O_9  and  C_10
REMARK                            x       y       z     vdW  Elec       q    Type
REMARK                         _______ _______ _______ _____ _____    ______ ____
ROOT
ATOM      1  C   UNL     1      -2.996   3.308 -24.226  0.00  0.00    +0.162 A 
ATOM      2  C   UNL     1      -2.219   3.807 -25.142  0.00  0.00    +0.050 A 
ATOM      3  C   UNL     1      -0.928   3.758 -24.997  0.00  0.00    +0.008 A 
ATOM      4  C   UNL     1      -0.414   3.210 -23.935  0.00  0.00    -0.030 A 
ATOM      5  C   UNL     1      -1.191   2.711 -23.020  0.00  0.00    +0.046 A 
ATOM      6  C   UNL     1      -0.677   2.163 -21.960  0.00  0.00    +0.172 C 
ATOM      7  N   UNL     1       0.615   2.114 -21.814  0.00  0.00    +0.244 N 
ATOM      8  H   UNL     1       0.068   1.703 -21.057  0.00  0.00    +0.204 HD
ATOM      9  C   UNL     1       1.129   1.566 -20.754  0.00  0.00    +0.137 C 
ATOM     10  C   UNL     1       2.420   1.517 -20.608  0.00  0.00    +0.086 C 
ATOM     11  C   UNL     1       3.196   2.016 -21.523  0.00  0.00    -0.030 A 
ATOM     12  C   UNL     1       4.487   1.967 -21.378  0.00  0.00    +0.053 A 
ATOM     13  C   UNL     1       5.263   2.466 -22.294  0.00  0.00    +0.167 A 
ATOM     14  C   UNL     1       4.749   3.014 -23.354  0.00  0.00    +0.167 A 
ATOM     15  O   UNL     1       5.726   3.430 -24.105  0.00  0.00    -0.453 OA
ATOM     16  C   UNL     1       6.844   3.140 -23.508  0.00  0.00    +0.466 C 
ATOM     17  C   UNL     1       3.458   3.063 -23.499  0.00  0.00    +0.059 A 
ATOM     18  O   UNL     1       6.558   2.544 -22.389  0.00  0.00    -0.453 OA
ATOM     19  C   UNL     1       2.682   2.564 -22.584  0.00  0.00    +0.008 A 
ATOM     20  C   UNL     1       1.391   2.613 -22.730  0.00  0.00    +0.100 C 
ATOM     21  C   UNL     1       0.877   3.161 -23.790  0.00  0.00    +0.095 C 
ATOM     22  C   UNL     1      -2.482   2.760 -23.165  0.00  0.00    +0.170 A 
ENDROOT
BRANCH   1  24
ATOM     23  C   UNL     1      -4.858   4.467 -24.733  0.00  0.00    +0.277 C 
ATOM     24  O   UNL     1      -4.287   3.357 -24.371  0.00  0.00    -0.491 OA
ENDBRANCH   1  24
BRANCH  22  25
ATOM     25  O   UNL     1      -3.259   2.261 -22.250  0.00  0.00    -0.491 OA
ATOM     26  C   UNL     1      -3.785   3.038 -21.351  0.00  0.00    +0.277 C 
ENDBRANCH  22  25
TORSDOF 2
ENDMDL
MODEL 5
REMARK VINA RESULT:    -8.770      3.071      4.438
REMARK INTER + INTRA:          -9.555
REMARK INTER:                  -9.828
REMARK INTRA:                   0.273
REMARK UNBOUND:                 0.240
REMARK  Name = ZINC000019701796
REMARK  4 active torsions:
REMARK  status: ('A' for Active; 'I' for Inactive)
REMARK    1  A    between atoms: C_1  and  O_2
REMARK    2  A    between atoms: O_2  and  C_3
REMARK    3  A    between atoms: C_8  and  O_9
REMARK    4  A    between atoms: O_9  and  C_10
REMARK                            x       y       z     vdW  Elec       q    Type
REMARK                         _______ _______ _______ _____ _____    ______ ____
ROOT
ATOM      1  C   UNL     1      -1.207   3.689 -23.376  0.00  0.00    +0.162 A 
ATOM      2  C   UNL     1      -0.741   4.883 -23.594  0.00  0.00    +0.050 A 
ATOM      3  C   UNL     1       0.539   5.102 -23.532  0.00  0.00    +0.008 A 
ATOM      4  C   UNL     1       1.353   4.127 -23.253  0.00  0.00    -0.030 A 
ATOM      5  C   UNL     1       0.887   2.933 -23.035  0.00  0.00    +0.046 A 
ATOM      6  C   UNL     1       1.700   1.959 -22.756  0.00  0.00    +0.172 C 
ATOM      7  N   UNL     1       2.981   2.178 -22.695  0.00  0.00    +0.244 N 
ATOM      8  H   UNL     1       2.687   1.218 -22.513  0.00  0.00    +0.204 HD
ATOM      9  C   UNL     1       3.794   1.204 -22.416  0.00  0.00    +0.137 C 
ATOM     10  C   UNL     1       5.074   1.423 -22.354  0.00  0.00    +0.086 C 
ATOM     11  C   UNL     1       5.540   2.616 -22.572  0.00  0.00    -0.030 A 
ATOM     12  C   UNL     1       6.820   2.836 -22.510  0.00  0.00    +0.053 A 
ATOM     13  C   UNL     1       7.285   4.030 -22.728  0.00  0.00    +0.167 A 
ATOM     14  C   UNL     1       6.472   5.004 -23.007  0.00  0.00    +0.167 A 
ATOM     15  O   UNL     1       7.179   6.081 -23.179  0.00  0.00    -0.453 OA
ATOM     16  C   UNL     1       8.430   5.773 -23.006  0.00  0.00    +0.466 C 
ATOM     17  C   UNL     1       5.192   4.785 -23.069  0.00  0.00    +0.059 A 
ATOM     18  O   UNL     1       8.496   4.505 -22.728  0.00  0.00    -0.453 OA
ATOM     19  C   UNL     1       4.726   3.591 -22.851  0.00  0.00    +0.008 A 
ATOM     20  C   UNL     1       3.446   3.372 -22.913  0.00  0.00    +0.100 C 
ATOM     21  C   UNL     1       2.633   4.346 -23.192  0.00  0.00    +0.095 C 
ATOM     22  C   UNL     1      -0.393   2.713 -23.097  0.00  0.00    +0.170 A 
ENDROOT
BRANCH   1  24
ATOM     23  C   UNL     1      -3.156   3.820 -24.495  0.00  0.00    +0.277 C 
ATOM     24  O   UNL     1      -2.487   3.469 -23.438  0.00  0.00    -0.491 OA
ENDBRANCH   1  24
BRANCH  22  25
ATOM     25  O   UNL     1      -0.860   1.520 -22.879  0.00  0.00    -0.491 OA
ATOM     26  C   UNL     1      -1.112   1.132 -21.665  0.00  0.00    +0.277 C 
ENDBRANCH  22  25
TORSDOF 2
ENDMDL
MODEL 6
REMARK VINA RESULT:    -8.189      4.214      8.144
REMARK INTER + INTRA:          -8.906
REMARK INTER:                  -9.139
REMARK INTRA:                   0.233
REMARK UNBOUND:                 0.240
REMARK  Name = ZINC000019701796
REMARK  4 active torsions:
REMARK  status: ('A' for Active; 'I' for Inactive)
REMARK    1  A    between atoms: C_1  and  O_2
REMARK    2  A    between atoms: O_2  and  C_3
REMARK    3  A    between atoms: C_8  and  O_9
REMARK    4  A    between atoms: O_9  and  C_10
REMARK                            x       y       z     vdW  Elec       q    Type
REMARK                         _______ _______ _______ _____ _____    ______ ____
ROOT
ATOM      1  C   UNL     1       6.397   7.212 -21.823  0.00  0.00    +0.162 A 
ATOM      2  C   UNL     1       5.344   7.963 -21.689  0.00  0.00    +0.050 A 
ATOM      3  C   UNL     1       4.173   7.506 -22.021  0.00  0.00    +0.008 A 
ATOM      4  C   UNL     1       4.056   6.298 -22.488  0.00  0.00    -0.030 A 
ATOM      5  C   UNL     1       5.109   5.547 -22.622  0.00  0.00    +0.046 A 
ATOM      6  C   UNL     1       4.991   4.340 -23.089  0.00  0.00    +0.172 C 
ATOM      7  N   UNL     1       3.819   3.883 -23.422  0.00  0.00    +0.244 N 
ATOM      8  H   UNL     1       4.600   3.239 -23.554  0.00  0.00    +0.204 HD
ATOM      9  C   UNL     1       3.702   2.676 -23.889  0.00  0.00    +0.137 C 
ATOM     10  C   UNL     1       2.531   2.219 -24.221  0.00  0.00    +0.086 C 
ATOM     11  C   UNL     1       1.478   2.969 -24.088  0.00  0.00    -0.030 A 
ATOM     12  C   UNL     1       0.308   2.513 -24.420  0.00  0.00    +0.053 A 
ATOM     13  C   UNL     1      -0.745   3.264 -24.286  0.00  0.00    +0.167 A 
ATOM     14  C   UNL     1      -0.627   4.471 -23.819  0.00  0.00    +0.167 A 
ATOM     15  O   UNL     1      -1.811   5.006 -23.784  0.00  0.00    -0.453 OA
ATOM     16  C   UNL     1      -2.662   4.129 -24.229  0.00  0.00    +0.466 C 
ATOM     17  C   UNL     1       0.544   4.928 -23.487  0.00  0.00    +0.059 A 
ATOM     18  O   UNL     1      -2.002   3.053 -24.539  0.00  0.00    -0.453 OA
ATOM     19  C   UNL     1       1.597   4.177 -23.621  0.00  0.00    +0.008 A 
ATOM     20  C   UNL     1       2.767   4.634 -23.288  0.00  0.00    +0.100 C 
ATOM     21  C   UNL     1       2.885   5.841 -22.821  0.00  0.00    +0.095 C 
ATOM     22  C   UNL     1       6.280   6.004 -22.290  0.00  0.00    +0.170 A 
ENDROOT
BRANCH   1  24
ATOM     23  C   UNL     1       7.667   8.636 -20.628  0.00  0.00    +0.277 C 
ATOM     24  O   UNL     1       7.568   7.668 -21.490  0.00  0.00    -0.491 OA
ENDBRANCH   1  24
BRANCH  22  25
ATOM     25  O   UNL     1       7.333   5.253 -22.423  0.00  0.00    -0.491 OA
ATOM     26  C   UNL     1       7.765   4.556 -21.416  0.00  0.00    +0.277 C 
ENDBRANCH  22  25
TORSDOF 2
ENDMDL
