MODEL 1
REMARK VINA RESULT:   -11.104      0.000      0.000
REMARK INTER + INTRA:         -11.753
REMARK INTER:                 -11.753
REMARK INTRA:                   0.000
REMARK UNBOUND:                 0.000
REMARK  Name = C[C@]12CC[C@@H]3c4cc(Br)c(O)c(Br)c4CC[C@@H]3[C@H]1CC[C@@H]2O         ZINC000105151550
REMARK  3 active torsions:
REMARK  status: ('A' for Active; 'I' for Inactive)
REMARK    1  A    between atoms: C_1  and  C_2
REMARK    2  A    between atoms: C_10  and  O_11
REMARK    3  A    between atoms: C_21  and  O_22
REMARK                            x       y       z     vdW  Elec       q    Type
REMARK                         _______ _______ _______ _____ _____    ______ ____
ROOT
ATOM      1  C   UNL     1       2.770   2.317 -24.764  0.00  0.00    +0.014 C 
ATOM      2  C   UNL     1       2.012   2.079 -23.734  0.00  0.00    -0.003 C 
ATOM      3  C   UNL     1       1.399   2.669 -24.717  0.00  0.00    +0.010 C 
ATOM      4  C   UNL     1       0.137   2.966 -24.611  0.00  0.00    +0.009 C 
ATOM      5  C   UNL     1      -0.511   2.672 -23.523  0.00  0.00    +0.023 C 
ATOM      6  C   UNL     1      -1.773   2.969 -23.417  0.00  0.00    -0.039 A 
ATOM      7  C   UNL     1      -2.385   3.559 -24.400  0.00  0.00    +0.023 A 
ATOM      8  C   UNL     1      -3.647   3.856 -24.295  0.00  0.00    +0.061 A 
ATOM      9  C   UNL     1      -4.295   3.562 -23.207  0.00  0.00    +0.145 A 
ATOM     10  C   UNL     1      -3.681   2.972 -22.224  0.00  0.00    +0.064 A 
ATOM     11 BR   UNL     1      -4.329   2.678 -21.136  0.00  0.00    -0.046 Br
ATOM     12 BR   UNL     1      -4.260   4.446 -25.277  0.00  0.00    -0.046 Br
ATOM     13  C   UNL     1      -2.421   2.675 -22.329  0.00  0.00    -0.026 A 
ATOM     14  C   UNL     1      -1.807   2.085 -21.347  0.00  0.00    +0.037 C 
ATOM     15  C   UNL     1      -0.545   1.788 -21.453  0.00  0.00    +0.009 C 
ATOM     16  C   UNL     1       0.103   2.082 -22.541  0.00  0.00    +0.000 C 
ATOM     17  C   UNL     1       3.241   1.683 -23.589  0.00  0.00    +0.121 C 
ATOM     18  C   UNL     1       3.353   1.144 -22.411  0.00  0.00    +0.032 C 
ATOM     19  C   UNL     1       2.193   1.208 -21.829  0.00  0.00    +0.007 C 
ATOM     20  C   UNL     1       1.363   1.785 -22.646  0.00  0.00    +0.001 C 
ENDROOT
BRANCH   9  21
ATOM     21  O   UNL     1      -5.557   3.859 -23.101  0.00  0.00    -0.505 OA
ATOM     22  H   UNL     1      -6.189   3.177 -22.983  0.00  0.00    +0.292 HD
ENDBRANCH   9  21
BRANCH  17  23
ATOM     23  O   UNL     1       4.192   1.804 -24.467  0.00  0.00    -0.391 OA
ATOM     24  H   UNL     1       3.916   1.391 -25.301  0.00  0.00    +0.210 HD
ENDBRANCH  17  23
TORSDOF 2
ENDMDL
MODEL 2
REMARK VINA RESULT:   -11.046      2.233      6.515
REMARK INTER + INTRA:         -11.692
REMARK INTER:                 -11.692
REMARK INTRA:                   0.000
REMARK UNBOUND:                 0.000
REMARK  Name = C[C@]12CC[C@@H]3c4cc(Br)c(O)c(Br)c4CC[C@@H]3[C@H]1CC[C@@H]2O         ZINC000105151550
REMARK  3 active torsions:
REMARK  status: ('A' for Active; 'I' for Inactive)
REMARK    1  A    between atoms: C_1  and  C_2
REMARK    2  A    between atoms: C_10  and  O_11
REMARK    3  A    between atoms: C_21  and  O_22
REMARK                            x       y       z     vdW  Elec       q    Type
REMARK                         _______ _______ _______ _____ _____    ______ ____
ROOT
ATOM      1  C   UNL     1      -4.852   2.856 -21.433  0.00  0.00    +0.014 C 
ATOM      2  C   UNL     1      -4.119   3.101 -22.479  0.00  0.00    -0.003 C 
ATOM      3  C   UNL     1      -3.462   2.591 -21.480  0.00  0.00    +0.010 C 
ATOM      4  C   UNL     1      -2.184   2.372 -21.587  0.00  0.00    +0.009 C 
ATOM      5  C   UNL     1      -1.565   2.663 -22.693  0.00  0.00    +0.023 C 
ATOM      6  C   UNL     1      -0.288   2.444 -22.800  0.00  0.00    -0.039 A 
ATOM      7  C   UNL     1       0.369   1.933 -21.801  0.00  0.00    +0.023 A 
ATOM      8  C   UNL     1       1.647   1.714 -21.908  0.00  0.00    +0.061 A 
ATOM      9  C   UNL     1       2.266   2.005 -23.014  0.00  0.00    +0.145 A 
ATOM     10  C   UNL     1       1.607   2.516 -24.012  0.00  0.00    +0.064 A 
ATOM     11 BR   UNL     1       2.226   2.807 -25.118  0.00  0.00    -0.046 Br
ATOM     12 BR   UNL     1       2.304   1.204 -20.910  0.00  0.00    -0.046 Br
ATOM     13  C   UNL     1       0.331   2.735 -23.906  0.00  0.00    -0.026 A 
ATOM     14  C   UNL     1      -0.328   3.245 -24.904  0.00  0.00    +0.037 C 
ATOM     15  C   UNL     1      -1.604   3.464 -24.797  0.00  0.00    +0.009 C 
ATOM     16  C   UNL     1      -2.224   3.173 -23.691  0.00  0.00    +0.000 C 
ATOM     17  C   UNL     1      -5.373   3.412 -22.627  0.00  0.00    +0.121 C 
ATOM     18  C   UNL     1      -5.529   3.895 -23.824  0.00  0.00    +0.032 C 
ATOM     19  C   UNL     1      -4.371   3.883 -24.415  0.00  0.00    +0.007 C 
ATOM     20  C   UNL     1      -3.500   3.392 -23.585  0.00  0.00    +0.001 C 
ENDROOT
BRANCH   9  21
ATOM     21  O   UNL     1       3.543   1.786 -23.121  0.00  0.00    -0.505 OA
ATOM     22  H   UNL     1       3.853   1.081 -23.654  0.00  0.00    +0.292 HD
ENDBRANCH   9  21
BRANCH  17  23
ATOM     23  O   UNL     1      -6.307   3.265 -21.735  0.00  0.00    -0.391 OA
ATOM     24  H   UNL     1      -5.943   3.444 -20.853  0.00  0.00    +0.210 HD
ENDBRANCH  17  23
TORSDOF 2
ENDMDL
MODEL 3
REMARK VINA RESULT:   -11.018      0.799      2.591
REMARK INTER + INTRA:         -11.662
REMARK INTER:                 -11.662
REMARK INTRA:                   0.000
REMARK UNBOUND:                 0.000
REMARK  Name = C[C@]12CC[C@@H]3c4cc(Br)c(O)c(Br)c4CC[C@@H]3[C@H]1CC[C@@H]2O         ZINC000105151550
REMARK  3 active torsions:
REMARK  status: ('A' for Active; 'I' for Inactive)
REMARK    1  A    between atoms: C_1  and  C_2
REMARK    2  A    between atoms: C_10  and  O_11
REMARK    3  A    between atoms: C_21  and  O_22
REMARK                            x       y       z     vdW  Elec       q    Type
REMARK                         _______ _______ _______ _____ _____    ______ ____
ROOT
ATOM      1  C   UNL     1       2.374   1.149 -21.737  0.00  0.00    +0.014 C 
ATOM      2  C   UNL     1       1.812   1.775 -22.729  0.00  0.00    -0.003 C 
ATOM      3  C   UNL     1       1.002   1.500 -21.750  0.00  0.00    +0.010 C 
ATOM      4  C   UNL     1      -0.248   1.850 -21.823  0.00  0.00    +0.009 C 
ATOM      5  C   UNL     1      -0.688   2.475 -22.875  0.00  0.00    +0.023 C 
ATOM      6  C   UNL     1      -1.937   2.825 -22.949  0.00  0.00    -0.039 A 
ATOM      7  C   UNL     1      -2.747   2.550 -21.970  0.00  0.00    +0.023 A 
ATOM      8  C   UNL     1      -3.998   2.900 -22.043  0.00  0.00    +0.061 A 
ATOM      9  C   UNL     1      -4.437   3.525 -23.095  0.00  0.00    +0.145 A 
ATOM     10  C   UNL     1      -3.626   3.800 -24.073  0.00  0.00    +0.064 A 
ATOM     11 BR   UNL     1      -4.066   4.425 -25.125  0.00  0.00    -0.046 Br
ATOM     12 BR   UNL     1      -4.808   2.625 -21.065  0.00  0.00    -0.046 Br
ATOM     13  C   UNL     1      -2.377   3.450 -24.000  0.00  0.00    -0.026 A 
ATOM     14  C   UNL     1      -1.566   3.725 -24.979  0.00  0.00    +0.037 C 
ATOM     15  C   UNL     1      -0.316   3.375 -24.905  0.00  0.00    +0.009 C 
ATOM     16  C   UNL     1       0.123   2.750 -23.853  0.00  0.00    +0.000 C 
ATOM     17  C   UNL     1       3.079   1.541 -22.900  0.00  0.00    +0.121 C 
ATOM     18  C   UNL     1       3.423   2.021 -24.059  0.00  0.00    +0.032 C 
ATOM     19  C   UNL     1       2.368   2.552 -24.602  0.00  0.00    +0.007 C 
ATOM     20  C   UNL     1       1.373   2.400 -23.781  0.00  0.00    +0.001 C 
ENDROOT
BRANCH   9  21
ATOM     21  O   UNL     1      -5.687   3.875 -23.168  0.00  0.00    -0.505 OA
ATOM     22  H   UNL     1      -6.343   3.359 -22.743  0.00  0.00    +0.292 HD
ENDBRANCH   9  21
BRANCH  17  23
ATOM     23  O   UNL     1       3.865   0.933 -22.062  0.00  0.00    -0.391 OA
ATOM     24  H   UNL     1       4.289   1.587 -21.484  0.00  0.00    +0.210 HD
ENDBRANCH  17  23
TORSDOF 2
ENDMDL
MODEL 4
REMARK VINA RESULT:   -10.745      2.410      5.869
REMARK INTER + INTRA:         -11.373
REMARK INTER:                 -11.373
REMARK INTRA:                   0.000
REMARK UNBOUND:                 0.000
REMARK  Name = C[C@]12CC[C@@H]3c4cc(Br)c(O)c(Br)c4CC[C@@H]3[C@H]1CC[C@@H]2O         ZINC000105151550
REMARK  3 active torsions:
REMARK  status: ('A' for Active; 'I' for Inactive)
REMARK    1  A    between atoms: C_1  and  C_2
REMARK    2  A    between atoms: C_10  and  O_11
REMARK    3  A    between atoms: C_21  and  O_22
REMARK                            x       y       z     vdW  Elec       q    Type
REMARK                         _______ _______ _______ _____ _____    ______ ____
ROOT
ATOM      1  C   UNL     1      -3.688   4.080 -25.781  0.00  0.00    +0.014 C 
ATOM      2  C   UNL     1      -3.426   3.674 -24.573  0.00  0.00    -0.003 C 
ATOM      3  C   UNL     1      -2.395   3.678 -25.365  0.00  0.00    +0.010 C 
ATOM      4  C   UNL     1      -1.233   3.297 -24.922  0.00  0.00    +0.009 C 
ATOM      5  C   UNL     1      -1.103   2.912 -23.687  0.00  0.00    +0.023 C 
ATOM      6  C   UNL     1       0.058   2.531 -23.243  0.00  0.00    -0.039 A 
ATOM      7  C   UNL     1       1.088   2.534 -24.035  0.00  0.00    +0.023 A 
ATOM      8  C   UNL     1       2.250   2.153 -23.592  0.00  0.00    +0.061 A 
ATOM      9  C   UNL     1       2.380   1.768 -22.357  0.00  0.00    +0.145 A 
ATOM     10  C   UNL     1       1.348   1.765 -21.566  0.00  0.00    +0.064 A 
ATOM     11 BR   UNL     1       1.479   1.380 -20.331  0.00  0.00    -0.046 Br
ATOM     12 BR   UNL     1       3.281   2.156 -24.383  0.00  0.00    -0.046 Br
ATOM     13  C   UNL     1       0.188   2.146 -22.008  0.00  0.00    -0.026 A 
ATOM     14  C   UNL     1      -0.844   2.143 -21.217  0.00  0.00    +0.037 C 
ATOM     15  C   UNL     1      -2.005   2.524 -21.660  0.00  0.00    +0.009 C 
ATOM     16  C   UNL     1      -2.135   2.909 -22.895  0.00  0.00    +0.000 C 
ATOM     17  C   UNL     1      -4.669   4.001 -24.763  0.00  0.00    +0.121 C 
ATOM     18  C   UNL     1      -5.309   3.818 -23.646  0.00  0.00    +0.032 C 
ATOM     19  C   UNL     1      -4.459   3.379 -22.766  0.00  0.00    +0.007 C 
ATOM     20  C   UNL     1      -3.296   3.290 -23.338  0.00  0.00    +0.001 C 
ENDROOT
BRANCH   9  21
ATOM     21  O   UNL     1       3.541   1.387 -21.914  0.00  0.00    -0.505 OA
ATOM     22  H   UNL     1       4.160   2.024 -21.617  0.00  0.00    +0.292 HD
ENDBRANCH   9  21
BRANCH  17  23
ATOM     23  O   UNL     1      -5.184   4.434 -25.875  0.00  0.00    -0.391 OA
ATOM     24  H   UNL     1      -5.491   5.347 -25.756  0.00  0.00    +0.210 HD
ENDBRANCH  17  23
TORSDOF 2
ENDMDL
MODEL 5
REMARK VINA RESULT:   -10.098      3.148      6.707
REMARK INTER + INTRA:         -10.689
REMARK INTER:                 -10.689
REMARK INTRA:                   0.000
REMARK UNBOUND:                 0.000
REMARK  Name = C[C@]12CC[C@@H]3c4cc(Br)c(O)c(Br)c4CC[C@@H]3[C@H]1CC[C@@H]2O         ZINC000105151550
REMARK  3 active torsions:
REMARK  status: ('A' for Active; 'I' for Inactive)
REMARK    1  A    between atoms: C_1  and  C_2
REMARK    2  A    between atoms: C_10  and  O_11
REMARK    3  A    between atoms: C_21  and  O_22
REMARK                            x       y       z     vdW  Elec       q    Type
REMARK                         _______ _______ _______ _____ _____    ______ ____
ROOT
ATOM      1  C   UNL     1      -2.540   2.194 -21.838  0.00  0.00    +0.014 C 
ATOM      2  C   UNL     1      -1.624   2.869 -22.469  0.00  0.00    -0.003 C 
ATOM      3  C   UNL     1      -1.156   1.931 -21.700  0.00  0.00    +0.010 C 
ATOM      4  C   UNL     1       0.128   1.740 -21.616  0.00  0.00    +0.009 C 
ATOM      5  C   UNL     1       0.942   2.487 -22.301  0.00  0.00    +0.023 C 
ATOM      6  C   UNL     1       2.226   2.297 -22.218  0.00  0.00    -0.039 A 
ATOM      7  C   UNL     1       2.694   1.359 -21.449  0.00  0.00    +0.023 A 
ATOM      8  C   UNL     1       3.978   1.169 -21.366  0.00  0.00    +0.061 A 
ATOM      9  C   UNL     1       4.792   1.916 -22.051  0.00  0.00    +0.145 A 
ATOM     10  C   UNL     1       4.322   2.854 -22.819  0.00  0.00    +0.064 A 
ATOM     11 BR   UNL     1       5.136   3.601 -23.504  0.00  0.00    -0.046 Br
ATOM     12 BR   UNL     1       4.447   0.231 -20.598  0.00  0.00    -0.046 Br
ATOM     13  C   UNL     1       3.040   3.044 -22.903  0.00  0.00    -0.026 A 
ATOM     14  C   UNL     1       2.570   3.982 -23.672  0.00  0.00    +0.037 C 
ATOM     15  C   UNL     1       1.287   4.172 -23.755  0.00  0.00    +0.009 C 
ATOM     16  C   UNL     1       0.472   3.425 -23.070  0.00  0.00    +0.000 C 
ATOM     17  C   UNL     1      -2.838   3.257 -22.724  0.00  0.00    +0.121 C 
ATOM     18  C   UNL     1      -2.774   4.245 -23.568  0.00  0.00    +0.032 C 
ATOM     19  C   UNL     1      -1.521   4.466 -23.833  0.00  0.00    +0.007 C 
ATOM     20  C   UNL     1      -0.810   3.616 -23.154  0.00  0.00    +0.001 C 
ENDROOT
BRANCH   9  21
ATOM     21  O   UNL     1       6.076   1.726 -21.968  0.00  0.00    -0.505 OA
ATOM     22  H   UNL     1       6.484   1.062 -22.487  0.00  0.00    +0.292 HD
ENDBRANCH   9  21
BRANCH  17  23
ATOM     23  O   UNL     1      -3.925   2.748 -22.225  0.00  0.00    -0.391 OA
ATOM     24  H   UNL     1      -3.845   2.700 -21.259  0.00  0.00    +0.210 HD
ENDBRANCH  17  23
TORSDOF 2
ENDMDL
MODEL 6
REMARK VINA RESULT:    -9.633      3.180      6.230
REMARK INTER + INTRA:         -10.196
REMARK INTER:                 -10.196
REMARK INTRA:                   0.000
REMARK UNBOUND:                 0.000
REMARK  Name = C[C@]12CC[C@@H]3c4cc(Br)c(O)c(Br)c4CC[C@@H]3[C@H]1CC[C@@H]2O         ZINC000105151550
REMARK  3 active torsions:
REMARK  status: ('A' for Active; 'I' for Inactive)
REMARK    1  A    between atoms: C_1  and  C_2
REMARK    2  A    between atoms: C_10  and  O_11
REMARK    3  A    between atoms: C_21  and  O_22
REMARK                            x       y       z     vdW  Elec       q    Type
REMARK                         _______ _______ _______ _____ _____    ______ ____
ROOT
ATOM      1  C   UNL     1      -1.724   4.628 -24.272  0.00  0.00    +0.014 C 
ATOM      2  C   UNL     1      -1.326   3.705 -23.445  0.00  0.00    -0.003 C 
ATOM      3  C   UNL     1      -0.358   4.349 -24.026  0.00  0.00    +0.010 C 
ATOM      4  C   UNL     1       0.878   4.044 -23.757  0.00  0.00    +0.009 C 
ATOM      5  C   UNL     1       1.144   3.096 -22.908  0.00  0.00    +0.023 C 
ATOM      6  C   UNL     1       2.378   2.792 -22.639  0.00  0.00    -0.039 A 
ATOM      7  C   UNL     1       3.347   3.435 -23.220  0.00  0.00    +0.023 A 
ATOM      8  C   UNL     1       4.583   3.131 -22.951  0.00  0.00    +0.061 A 
ATOM      9  C   UNL     1       4.849   2.183 -22.102  0.00  0.00    +0.145 A 
ATOM     10  C   UNL     1       3.879   1.540 -21.521  0.00  0.00    +0.064 A 
ATOM     11 BR   UNL     1       4.144   0.592 -20.672  0.00  0.00    -0.046 Br
ATOM     12 BR   UNL     1       5.552   3.774 -23.531  0.00  0.00    -0.046 Br
ATOM     13  C   UNL     1       2.644   1.844 -21.790  0.00  0.00    -0.026 A 
ATOM     14  C   UNL     1       1.674   1.201 -21.210  0.00  0.00    +0.037 C 
ATOM     15  C   UNL     1       0.440   1.505 -21.479  0.00  0.00    +0.009 C 
ATOM     16  C   UNL     1       0.174   2.453 -22.328  0.00  0.00    +0.000 C 
ATOM     17  C   UNL     1      -2.618   3.812 -23.537  0.00  0.00    +0.121 C 
ATOM     18  C   UNL     1      -3.152   2.930 -22.744  0.00  0.00    +0.032 C 
ATOM     19  C   UNL     1      -2.189   2.279 -22.163  0.00  0.00    +0.007 C 
ATOM     20  C   UNL     1      -1.061   2.757 -22.596  0.00  0.00    +0.001 C 
ENDROOT
BRANCH   9  21
ATOM     21  O   UNL     1       6.083   1.878 -21.833  0.00  0.00    -0.505 OA
ATOM     22  H   UNL     1       6.401   1.946 -20.954  0.00  0.00    +0.292 HD
ENDBRANCH   9  21
BRANCH  17  23
ATOM     23  O   UNL     1      -3.265   4.653 -24.289  0.00  0.00    -0.391 OA
ATOM     24  H   UNL     1      -3.624   5.368 -23.740  0.00  0.00    +0.210 HD
ENDBRANCH  17  23
TORSDOF 2
ENDMDL
MODEL 7
REMARK VINA RESULT:    -8.864      3.771      6.945
REMARK INTER + INTRA:          -9.382
REMARK INTER:                  -9.382
REMARK INTRA:                   0.000
REMARK UNBOUND:                 0.000
REMARK  Name = C[C@]12CC[C@@H]3c4cc(Br)c(O)c(Br)c4CC[C@@H]3[C@H]1CC[C@@H]2O         ZINC000105151550
REMARK  3 active torsions:
REMARK  status: ('A' for Active; 'I' for Inactive)
REMARK    1  A    between atoms: C_1  and  C_2
REMARK    2  A    between atoms: C_10  and  O_11
REMARK    3  A    between atoms: C_21  and  O_22
REMARK                            x       y       z     vdW  Elec       q    Type
REMARK                         _______ _______ _______ _____ _____    ______ ____
ROOT
ATOM      1  C   UNL     1      -1.412   2.182 -23.275  0.00  0.00    +0.014 C 
ATOM      2  C   UNL     1      -0.577   3.177 -23.360  0.00  0.00    -0.003 C 
ATOM      3  C   UNL     1      -0.022   2.046 -23.040  0.00  0.00    +0.010 C 
ATOM      4  C   UNL     1       1.261   1.986 -22.837  0.00  0.00    +0.009 C 
ATOM      5  C   UNL     1       1.988   3.057 -22.954  0.00  0.00    +0.023 C 
ATOM      6  C   UNL     1       3.271   2.999 -22.752  0.00  0.00    -0.039 A 
ATOM      7  C   UNL     1       3.826   1.867 -22.432  0.00  0.00    +0.023 A 
ATOM      8  C   UNL     1       5.110   1.808 -22.229  0.00  0.00    +0.061 A 
ATOM      9  C   UNL     1       5.837   2.879 -22.346  0.00  0.00    +0.145 A 
ATOM     10  C   UNL     1       5.280   4.010 -22.666  0.00  0.00    +0.064 A 
ATOM     11 BR   UNL     1       6.007   5.081 -22.783  0.00  0.00    -0.046 Br
ATOM     12 BR   UNL     1       5.665   0.678 -21.909  0.00  0.00    -0.046 Br
ATOM     13  C   UNL     1       3.998   4.070 -22.869  0.00  0.00    -0.026 A 
ATOM     14  C   UNL     1       3.441   5.201 -23.189  0.00  0.00    +0.037 C 
ATOM     15  C   UNL     1       2.159   5.260 -23.392  0.00  0.00    +0.009 C 
ATOM     16  C   UNL     1       1.432   4.188 -23.275  0.00  0.00    +0.000 C 
ATOM     17  C   UNL     1      -1.811   3.499 -23.611  0.00  0.00    +0.121 C 
ATOM     18  C   UNL     1      -1.847   4.770 -23.883  0.00  0.00    +0.032 C 
ATOM     19  C   UNL     1      -0.635   5.232 -23.801  0.00  0.00    +0.007 C 
ATOM     20  C   UNL     1       0.150   4.248 -23.477  0.00  0.00    +0.001 C 
ENDROOT
BRANCH   9  21
ATOM     21  O   UNL     1       7.119   2.820 -22.143  0.00  0.00    -0.505 OA
ATOM     22  H   UNL     1       7.710   3.162 -22.784  0.00  0.00    +0.292 HD
ENDBRANCH   9  21
BRANCH  17  23
ATOM     23  O   UNL     1      -2.831   2.692 -23.593  0.00  0.00    -0.391 OA
ATOM     24  H   UNL     1      -2.573   1.836 -23.970  0.00  0.00    +0.210 HD
ENDBRANCH  17  23
TORSDOF 2
ENDMDL
