MODEL 1
REMARK VINA RESULT:    -9.393      0.000      0.000
REMARK INTER + INTRA:          -9.668
REMARK INTER:                  -9.668
REMARK INTRA:                   0.000
REMARK UNBOUND:                 0.000
REMARK  Name = ZINC000004104723
REMARK  4 active torsions:
REMARK  status: ('A' for Active; 'I' for Inactive)
REMARK    1  A    between atoms: C_1  and  C_2
REMARK    2  A    between atoms: C_2  and  C_3
REMARK    3  A    between atoms: C_12  and  C_13
REMARK    4  A    between atoms: C_12  and  O_14
REMARK                            x       y       z     vdW  Elec       q    Type
REMARK                         _______ _______ _______ _____ _____    ______ ____
ROOT
ATOM      1  C   UNL     1      -5.482   3.300 -22.111  0.00  0.00    +0.011 C 
ATOM      2  C   UNL     1      -4.319   2.857 -21.738  0.00  0.00    -0.028 C 
ATOM      3  C   UNL     1      -3.064   2.523 -21.793  0.00  0.00    -0.001 C 
ATOM      4  C   UNL     1      -1.830   2.136 -21.662  0.00  0.00    +0.012 C 
ATOM      5  C   UNL     1      -0.878   2.151 -22.547  0.00  0.00    +0.075 C 
ATOM      6  C   UNL     1      -0.924   2.556 -23.782  0.00  0.00    +0.137 C 
ATOM      7  C   UNL     1      -1.935   3.047 -24.436  0.00  0.00    +0.061 C 
ATOM      8  C   UNL     1      -1.869   3.423 -25.678  0.00  0.00    +0.014 C 
ATOM      9  C   UNL     1      -3.042   3.863 -26.028  0.00  0.00    +0.035 C 
ATOM     10  C   UNL     1      -3.833   3.758 -25.001  0.00  0.00    +0.067 C 
ATOM     11  C   UNL     1      -4.809   3.758 -24.143  0.00  0.00    +0.041 C 
ATOM     12  C   UNL     1      -3.149   3.254 -24.018  0.00  0.00    +0.034 C 
ATOM     13  O   UNL     1       0.186   2.458 -24.450  0.00  0.00    -0.297 OA
ATOM     14  C   UNL     1      -4.583   2.539 -20.505  0.00  0.00    +0.011 C 
ATOM     15  C   UNL     1      -3.651   3.020 -22.842  0.00  0.00    +0.005 C 
ENDROOT
BRANCH  10  16
ATOM     16  O   UNL     1      -4.721   4.262 -25.805  0.00  0.00    -0.389 OA
ATOM     17  H   UNL     1      -5.216   4.958 -25.345  0.00  0.00    +0.210 HD
ENDBRANCH  10  16
TORSDOF 1
ENDMDL
MODEL 2
REMARK VINA RESULT:    -9.142      1.470      3.485
REMARK INTER + INTRA:          -9.409
REMARK INTER:                  -9.409
REMARK INTRA:                   0.000
REMARK UNBOUND:                 0.000
REMARK  Name = ZINC000004104723
REMARK  4 active torsions:
REMARK  status: ('A' for Active; 'I' for Inactive)
REMARK    1  A    between atoms: C_1  and  C_2
REMARK    2  A    between atoms: C_2  and  C_3
REMARK    3  A    between atoms: C_12  and  C_13
REMARK    4  A    between atoms: C_12  and  O_14
REMARK                            x       y       z     vdW  Elec       q    Type
REMARK                         _______ _______ _______ _____ _____    ______ ____
ROOT
ATOM      1  C   UNL     1      -4.501   3.902 -25.721  0.00  0.00    +0.011 C 
ATOM      2  C   UNL     1      -3.267   3.547 -25.524  0.00  0.00    -0.028 C 
ATOM      3  C   UNL     1      -2.192   3.157 -24.906  0.00  0.00    -0.001 C 
ATOM      4  C   UNL     1      -1.031   2.776 -24.462  0.00  0.00    +0.012 C 
ATOM      5  C   UNL     1      -0.690   2.467 -23.247  0.00  0.00    +0.075 C 
ATOM      6  C   UNL     1      -1.424   2.463 -22.174  0.00  0.00    +0.137 C 
ATOM      7  C   UNL     1      -2.682   2.766 -22.053  0.00  0.00    +0.061 C 
ATOM      8  C   UNL     1      -3.323   2.727 -20.922  0.00  0.00    +0.014 C 
ATOM      9  C   UNL     1      -4.553   3.086 -21.144  0.00  0.00    +0.035 C 
ATOM     10  C   UNL     1      -4.673   3.347 -22.412  0.00  0.00    +0.067 C 
ATOM     11  C   UNL     1      -5.050   3.662 -23.615  0.00  0.00    +0.041 C 
ATOM     12  C   UNL     1      -3.517   3.149 -22.974  0.00  0.00    +0.034 C 
ATOM     13  O   UNL     1      -0.821   2.108 -21.079  0.00  0.00    -0.297 OA
ATOM     14  C   UNL     1      -2.807   3.648 -26.735  0.00  0.00    +0.011 C 
ATOM     15  C   UNL     1      -3.299   3.323 -24.243  0.00  0.00    +0.005 C 
ENDROOT
BRANCH  10  16
ATOM     16  O   UNL     1      -5.907   3.610 -22.103  0.00  0.00    -0.389 OA
ATOM     17  H   UNL     1      -6.379   3.921 -22.891  0.00  0.00    +0.210 HD
ENDBRANCH  10  16
TORSDOF 1
ENDMDL
MODEL 3
REMARK VINA RESULT:    -9.105      1.339      3.368
REMARK INTER + INTRA:          -9.371
REMARK INTER:                  -9.371
REMARK INTRA:                   0.000
REMARK UNBOUND:                 0.000
REMARK  Name = ZINC000004104723
REMARK  4 active torsions:
REMARK  status: ('A' for Active; 'I' for Inactive)
REMARK    1  A    between atoms: C_1  and  C_2
REMARK    2  A    between atoms: C_2  and  C_3
REMARK    3  A    between atoms: C_12  and  C_13
REMARK    4  A    between atoms: C_12  and  O_14
REMARK                            x       y       z     vdW  Elec       q    Type
REMARK                         _______ _______ _______ _____ _____    ______ ____
ROOT
ATOM      1  C   UNL     1       0.061   2.206 -23.033  0.00  0.00    +0.011 C 
ATOM      2  C   UNL     1      -0.907   2.272 -22.168  0.00  0.00    -0.028 C 
ATOM      3  C   UNL     1      -2.090   2.481 -21.673  0.00  0.00    -0.001 C 
ATOM      4  C   UNL     1      -3.197   2.631 -21.008  0.00  0.00    +0.012 C 
ATOM      5  C   UNL     1      -4.352   3.045 -21.439  0.00  0.00    +0.075 C 
ATOM      6  C   UNL     1      -4.685   3.411 -22.642  0.00  0.00    +0.137 C 
ATOM      7  C   UNL     1      -3.945   3.453 -23.709  0.00  0.00    +0.061 C 
ATOM      8  C   UNL     1      -4.384   3.839 -24.870  0.00  0.00    +0.014 C 
ATOM      9  C   UNL     1      -3.400   3.764 -25.718  0.00  0.00    +0.035 C 
ATOM     10  C   UNL     1      -2.352   3.333 -25.080  0.00  0.00    +0.067 C 
ATOM     11  C   UNL     1      -1.184   2.924 -24.685  0.00  0.00    +0.041 C 
ATOM     12  C   UNL     1      -2.689   3.140 -23.839  0.00  0.00    +0.034 C 
ATOM     13  O   UNL     1      -5.920   3.783 -22.796  0.00  0.00    -0.297 OA
ATOM     14  C   UNL     1      -0.286   1.859 -21.103  0.00  0.00    +0.011 C 
ATOM     15  C   UNL     1      -1.864   2.708 -22.933  0.00  0.00    +0.005 C 
ENDROOT
BRANCH  10  16
ATOM     16  O   UNL     1      -1.772   3.440 -26.238  0.00  0.00    -0.389 OA
ATOM     17  H   UNL     1      -1.623   2.555 -26.608  0.00  0.00    +0.210 HD
ENDBRANCH  10  16
TORSDOF 1
ENDMDL
MODEL 4
REMARK VINA RESULT:    -9.095      1.582      4.029
REMARK INTER + INTRA:          -9.361
REMARK INTER:                  -9.361
REMARK INTRA:                   0.000
REMARK UNBOUND:                 0.000
REMARK  Name = ZINC000004104723
REMARK  4 active torsions:
REMARK  status: ('A' for Active; 'I' for Inactive)
REMARK    1  A    between atoms: C_1  and  C_2
REMARK    2  A    between atoms: C_2  and  C_3
REMARK    3  A    between atoms: C_12  and  C_13
REMARK    4  A    between atoms: C_12  and  O_14
REMARK                            x       y       z     vdW  Elec       q    Type
REMARK                         _______ _______ _______ _____ _____    ______ ____
ROOT
ATOM      1  C   UNL     1      -0.755   1.886 -21.738  0.00  0.00    +0.011 C 
ATOM      2  C   UNL     1      -0.813   2.409 -22.926  0.00  0.00    -0.028 C 
ATOM      3  C   UNL     1      -1.299   2.986 -23.984  0.00  0.00    -0.001 C 
ATOM      4  C   UNL     1      -1.606   3.548 -25.115  0.00  0.00    +0.012 C 
ATOM      5  C   UNL     1      -2.756   4.011 -25.505  0.00  0.00    +0.075 C 
ATOM      6  C   UNL     1      -3.885   4.026 -24.859  0.00  0.00    +0.137 C 
ATOM      7  C   UNL     1      -4.141   3.582 -23.665  0.00  0.00    +0.061 C 
ATOM      8  C   UNL     1      -5.315   3.649 -23.112  0.00  0.00    +0.014 C 
ATOM      9  C   UNL     1      -5.233   3.121 -21.926  0.00  0.00    +0.035 C 
ATOM     10  C   UNL     1      -4.007   2.728 -21.746  0.00  0.00    +0.067 C 
ATOM     11  C   UNL     1      -2.873   2.255 -21.323  0.00  0.00    +0.041 C 
ATOM     12  C   UNL     1      -3.332   3.013 -22.820  0.00  0.00    +0.034 C 
ATOM     13  O   UNL     1      -4.889   4.555 -25.492  0.00  0.00    -0.297 OA
ATOM     14  C   UNL     1       0.422   2.251 -23.302  0.00  0.00    +0.011 C 
ATOM     15  C   UNL     1      -2.067   2.748 -22.962  0.00  0.00    +0.005 C 
ENDROOT
BRANCH  10  16
ATOM     16  O   UNL     1      -4.444   2.344 -20.584  0.00  0.00    -0.389 OA
ATOM     17  H   UNL     1      -4.589   1.385 -20.593  0.00  0.00    +0.210 HD
ENDBRANCH  10  16
TORSDOF 1
ENDMDL
MODEL 5
REMARK VINA RESULT:    -8.910      1.546      3.491
REMARK INTER + INTRA:          -9.170
REMARK INTER:                  -9.170
REMARK INTRA:                   0.000
REMARK UNBOUND:                 0.000
REMARK  Name = ZINC000004104723
REMARK  4 active torsions:
REMARK  status: ('A' for Active; 'I' for Inactive)
REMARK    1  A    between atoms: C_1  and  C_2
REMARK    2  A    between atoms: C_2  and  C_3
REMARK    3  A    between atoms: C_12  and  C_13
REMARK    4  A    between atoms: C_12  and  O_14
REMARK                            x       y       z     vdW  Elec       q    Type
REMARK                         _______ _______ _______ _____ _____    ______ ____
ROOT
ATOM      1  C   UNL     1      -0.828   3.664 -25.461  0.00  0.00    +0.011 C 
ATOM      2  C   UNL     1      -0.763   3.178 -24.257  0.00  0.00    -0.028 C 
ATOM      3  C   UNL     1      -1.139   2.787 -23.076  0.00  0.00    -0.001 C 
ATOM      4  C   UNL     1      -1.328   2.348 -21.867  0.00  0.00    +0.012 C 
ATOM      5  C   UNL     1      -2.435   2.296 -21.188  0.00  0.00    +0.075 C 
ATOM      6  C   UNL     1      -3.627   2.669 -21.549  0.00  0.00    +0.137 C 
ATOM      7  C   UNL     1      -4.005   3.186 -22.680  0.00  0.00    +0.061 C 
ATOM      8  C   UNL     1      -5.234   3.526 -22.938  0.00  0.00    +0.014 C 
ATOM      9  C   UNL     1      -5.274   4.008 -24.145  0.00  0.00    +0.035 C 
ATOM     10  C   UNL     1      -4.069   3.967 -24.634  0.00  0.00    +0.067 C 
ATOM     11  C   UNL     1      -2.982   4.035 -25.342  0.00  0.00    +0.041 C 
ATOM     12  C   UNL     1      -3.286   3.459 -23.729  0.00  0.00    +0.034 C 
ATOM     13  O   UNL     1      -4.564   2.502 -20.664  0.00  0.00    -0.297 OA
ATOM     14  C   UNL     1       0.507   2.906 -24.191  0.00  0.00    +0.011 C 
ATOM     15  C   UNL     1      -2.010   3.281 -23.905  0.00  0.00    +0.005 C 
ENDROOT
BRANCH  10  16
ATOM     16  O   UNL     1      -4.626   4.488 -25.687  0.00  0.00    -0.389 OA
ATOM     17  H   UNL     1      -5.103   5.295 -25.434  0.00  0.00    +0.210 HD
ENDBRANCH  10  16
TORSDOF 1
ENDMDL
MODEL 6
REMARK VINA RESULT:    -8.756      1.179      1.799
REMARK INTER + INTRA:          -9.012
REMARK INTER:                  -9.012
REMARK INTRA:                   0.000
REMARK UNBOUND:                 0.000
REMARK  Name = ZINC000004104723
REMARK  4 active torsions:
REMARK  status: ('A' for Active; 'I' for Inactive)
REMARK    1  A    between atoms: C_1  and  C_2
REMARK    2  A    between atoms: C_2  and  C_3
REMARK    3  A    between atoms: C_12  and  C_13
REMARK    4  A    between atoms: C_12  and  O_14
REMARK                            x       y       z     vdW  Elec       q    Type
REMARK                         _______ _______ _______ _____ _____    ______ ____
ROOT
ATOM      1  C   UNL     1      -5.142   3.716 -24.057  0.00  0.00    +0.011 C 
ATOM      2  C   UNL     1      -4.549   3.382 -22.950  0.00  0.00    -0.028 C 
ATOM      3  C   UNL     1      -3.603   3.051 -22.122  0.00  0.00    -0.001 C 
ATOM      4  C   UNL     1      -2.797   2.714 -21.160  0.00  0.00    +0.012 C 
ATOM      5  C   UNL     1      -1.513   2.519 -21.209  0.00  0.00    +0.075 C 
ATOM      6  C   UNL     1      -0.717   2.613 -22.233  0.00  0.00    +0.137 C 
ATOM      7  C   UNL     1      -1.010   2.926 -23.460  0.00  0.00    +0.061 C 
ATOM      8  C   UNL     1      -0.128   2.991 -24.413  0.00  0.00    +0.014 C 
ATOM      9  C   UNL     1      -0.742   3.326 -25.509  0.00  0.00    +0.035 C 
ATOM     10  C   UNL     1      -2.005   3.469 -25.233  0.00  0.00    +0.067 C 
ATOM     11  C   UNL     1      -3.288   3.671 -25.222  0.00  0.00    +0.041 C 
ATOM     12  C   UNL     1      -2.170   3.221 -23.968  0.00  0.00    +0.034 C 
ATOM     13  O   UNL     1       0.537   2.362 -21.998  0.00  0.00    -0.297 OA
ATOM     14  C   UNL     1      -5.569   3.370 -22.143  0.00  0.00    +0.011 C 
ATOM     15  C   UNL     1      -3.324   3.277 -23.372  0.00  0.00    +0.005 C 
ENDROOT
BRANCH  10  16
ATOM     16  O   UNL     1      -2.108   3.758 -26.496  0.00  0.00    -0.389 OA
ATOM     17  H   UNL     1      -2.597   4.591 -26.598  0.00  0.00    +0.210 HD
ENDBRANCH  10  16
TORSDOF 1
ENDMDL
MODEL 7
REMARK VINA RESULT:    -8.733      1.302      3.296
REMARK INTER + INTRA:          -8.989
REMARK INTER:                  -8.989
REMARK INTRA:                   0.000
REMARK UNBOUND:                 0.000
REMARK  Name = ZINC000004104723
REMARK  4 active torsions:
REMARK  status: ('A' for Active; 'I' for Inactive)
REMARK    1  A    between atoms: C_1  and  C_2
REMARK    2  A    between atoms: C_2  and  C_3
REMARK    3  A    between atoms: C_12  and  C_13
REMARK    4  A    between atoms: C_12  and  O_14
REMARK                            x       y       z     vdW  Elec       q    Type
REMARK                         _______ _______ _______ _____ _____    ______ ____
ROOT
ATOM      1  C   UNL     1      -4.230   2.612 -20.950  0.00  0.00    +0.011 C 
ATOM      2  C   UNL     1      -4.375   3.051 -22.165  0.00  0.00    -0.028 C 
ATOM      3  C   UNL     1      -4.078   3.399 -23.381  0.00  0.00    -0.001 C 
ATOM      4  C   UNL     1      -3.969   3.792 -24.615  0.00  0.00    +0.012 C 
ATOM      5  C   UNL     1      -2.908   3.826 -25.365  0.00  0.00    +0.075 C 
ATOM      6  C   UNL     1      -1.692   3.474 -25.066  0.00  0.00    +0.137 C 
ATOM      7  C   UNL     1      -1.239   3.003 -23.942  0.00  0.00    +0.061 C 
ATOM      8  C   UNL     1       0.006   2.681 -23.751  0.00  0.00    +0.014 C 
ATOM      9  C   UNL     1       0.126   2.246 -22.532  0.00  0.00    +0.035 C 
ATOM     10  C   UNL     1      -1.045   2.298 -21.969  0.00  0.00    +0.067 C 
ATOM     11  C   UNL     1      -2.084   2.251 -21.191  0.00  0.00    +0.041 C 
ATOM     12  C   UNL     1      -1.888   2.766 -22.841  0.00  0.00    +0.034 C 
ATOM     13  O   UNL     1      -0.815   3.613 -26.015  0.00  0.00    -0.297 OA
ATOM     14  C   UNL     1      -5.649   3.312 -22.160  0.00  0.00    +0.011 C 
ATOM     15  C   UNL     1      -3.152   2.942 -22.591  0.00  0.00    +0.005 C 
ENDROOT
BRANCH  10  16
ATOM     16  O   UNL     1      -0.419   1.821 -20.935  0.00  0.00    -0.389 OA
ATOM     17  H   UNL     1      -0.849   2.134 -20.123  0.00  0.00    +0.210 HD
ENDBRANCH  10  16
TORSDOF 1
ENDMDL
MODEL 8
REMARK VINA RESULT:    -8.686      1.502      4.618
REMARK INTER + INTRA:          -8.940
REMARK INTER:                  -8.940
REMARK INTRA:                   0.000
REMARK UNBOUND:                 0.000
REMARK  Name = ZINC000004104723
REMARK  4 active torsions:
REMARK  status: ('A' for Active; 'I' for Inactive)
REMARK    1  A    between atoms: C_1  and  C_2
REMARK    2  A    between atoms: C_2  and  C_3
REMARK    3  A    between atoms: C_12  and  C_13
REMARK    4  A    between atoms: C_12  and  O_14
REMARK                            x       y       z     vdW  Elec       q    Type
REMARK                         _______ _______ _______ _____ _____    ______ ____
ROOT
ATOM      1  C   UNL     1      -1.349   3.376 -25.820  0.00  0.00    +0.011 C 
ATOM      2  C   UNL     1      -2.629   3.556 -25.686  0.00  0.00    -0.028 C 
ATOM      3  C   UNL     1      -3.797   3.653 -25.123  0.00  0.00    -0.001 C 
ATOM      4  C   UNL     1      -5.031   3.787 -24.739  0.00  0.00    +0.012 C 
ATOM      5  C   UNL     1      -5.522   3.681 -23.540  0.00  0.00    +0.075 C 
ATOM      6  C   UNL     1      -4.902   3.415 -22.429  0.00  0.00    +0.137 C 
ATOM      7  C   UNL     1      -3.635   3.189 -22.243  0.00  0.00    +0.061 C 
ATOM      8  C   UNL     1      -3.117   2.931 -21.080  0.00  0.00    +0.014 C 
ATOM      9  C   UNL     1      -1.838   2.755 -21.239  0.00  0.00    +0.035 C 
ATOM     10  C   UNL     1      -1.566   2.905 -22.502  0.00  0.00    +0.067 C 
ATOM     11  C   UNL     1      -1.039   3.003 -23.685  0.00  0.00    +0.041 C 
ATOM     12  C   UNL     1      -2.676   3.173 -23.122  0.00  0.00    +0.034 C 
ATOM     13  O   UNL     1      -5.645   3.369 -21.364  0.00  0.00    -0.297 OA
ATOM     14  C   UNL     1      -2.954   3.795 -26.922  0.00  0.00    +0.011 C 
ATOM     15  C   UNL     1      -2.748   3.379 -24.404  0.00  0.00    +0.005 C 
ENDROOT
BRANCH  10  16
ATOM     16  O   UNL     1      -0.346   2.657 -22.128  0.00  0.00    -0.389 OA
ATOM     17  H   UNL     1       0.204   2.492 -22.911  0.00  0.00    +0.210 HD
ENDBRANCH  10  16
TORSDOF 1
ENDMDL
MODEL 9
REMARK VINA RESULT:    -8.579      0.615      3.187
REMARK INTER + INTRA:          -8.830
REMARK INTER:                  -8.830
REMARK INTRA:                   0.000
REMARK UNBOUND:                 0.000
REMARK  Name = ZINC000004104723
REMARK  4 active torsions:
REMARK  status: ('A' for Active; 'I' for Inactive)
REMARK    1  A    between atoms: C_1  and  C_2
REMARK    2  A    between atoms: C_2  and  C_3
REMARK    3  A    between atoms: C_12  and  C_13
REMARK    4  A    between atoms: C_12  and  O_14
REMARK                            x       y       z     vdW  Elec       q    Type
REMARK                         _______ _______ _______ _____ _____    ______ ____
ROOT
ATOM      1  C   UNL     1      -2.155   2.033 -21.010  0.00  0.00    +0.011 C 
ATOM      2  C   UNL     1      -3.290   2.519 -21.417  0.00  0.00    -0.028 C 
ATOM      3  C   UNL     1      -4.180   3.051 -22.201  0.00  0.00    -0.001 C 
ATOM      4  C   UNL     1      -5.190   3.571 -22.832  0.00  0.00    +0.012 C 
ATOM      5  C   UNL     1      -5.249   3.991 -24.060  0.00  0.00    +0.075 C 
ATOM      6  C   UNL     1      -4.313   3.994 -24.963  0.00  0.00    +0.137 C 
ATOM      7  C   UNL     1      -3.086   3.579 -24.857  0.00  0.00    +0.061 C 
ATOM      8  C   UNL     1      -2.226   3.629 -25.831  0.00  0.00    +0.014 C 
ATOM      9  C   UNL     1      -1.101   3.139 -25.401  0.00  0.00    +0.035 C 
ATOM     10  C   UNL     1      -1.265   2.785 -24.161  0.00  0.00    +0.067 C 
ATOM     11  C   UNL     1      -1.169   2.356 -22.938  0.00  0.00    +0.041 C 
ATOM     12  C   UNL     1      -2.491   3.057 -23.825  0.00  0.00    +0.034 C 
ATOM     13  O   UNL     1      -4.648   4.477 -26.122  0.00  0.00    -0.297 OA
ATOM     14  C   UNL     1      -3.995   2.384 -20.333  0.00  0.00    +0.011 C 
ATOM     15  C   UNL     1      -2.978   2.822 -22.643  0.00  0.00    +0.005 C 
ENDROOT
BRANCH  10  16
ATOM     16  O   UNL     1      -0.019   2.424 -24.241  0.00  0.00    -0.389 OA
ATOM     17  H   UNL     1       0.033   1.458 -24.314  0.00  0.00    +0.210 HD
ENDBRANCH  10  16
TORSDOF 1
ENDMDL
