MODEL 1
REMARK VINA RESULT:   -10.326      0.000      0.000
REMARK INTER + INTRA:         -10.326
REMARK INTER:                 -10.326
REMARK INTRA:                   0.000
REMARK UNBOUND:                 0.000
REMARK  Name = C[C@@H]1CC[C@@H]2[C@@H](C)C(=O)O[C@@H]3O[C@]4(C)CC[C@H]1[C@]32OO4    ZINC000100065755
REMARK  3 active torsions:
REMARK  status: ('A' for Active; 'I' for Inactive)
REMARK    1  A    between atoms: C_1  and  C_2
REMARK    2  A    between atoms: C_6  and  C_7
REMARK    3  A    between atoms: C_13  and  C_14
REMARK                            x       y       z     vdW  Elec       q    Type
REMARK                         _______ _______ _______ _____ _____    ______ ____
ROOT
ATOM      1  C   UNL     1      -5.725   3.390 -22.119  0.00  0.00    +0.008 C 
ATOM      2  C   UNL     1      -4.460   3.052 -22.105  0.00  0.00    -0.008 C 
ATOM      3  C   UNL     1      -3.889   2.698 -20.980  0.00  0.00    +0.004 C 
ATOM      4  C   UNL     1      -2.608   2.355 -20.966  0.00  0.00    +0.008 C 
ATOM      5  C   UNL     1      -1.913   2.371 -22.076  0.00  0.00    +0.044 C 
ATOM      6  C   UNL     1      -0.647   2.032 -22.062  0.00  0.00    +0.101 C 
ATOM      7  C   UNL     1       0.062   2.044 -23.172  0.00  0.00    +0.313 C 
ATOM      8  O   UNL     1      -0.523   2.404 -24.312  0.00  0.00    -0.432 OA
ATOM      9  C   UNL     1      -1.788   2.742 -24.327  0.00  0.00    +0.349 C 
ATOM     10  O   UNL     1      -2.059   3.039 -25.573  0.00  0.00    -0.305 OA
ATOM     11  C   UNL     1      -3.220   3.437 -26.075  0.00  0.00    +0.204 C 
ATOM     12  C   UNL     1      -4.351   3.623 -25.442  0.00  0.00    +0.068 C 
ATOM     13  C   UNL     1      -4.609   3.460 -24.153  0.00  0.00    +0.012 C 
ATOM     14  C   UNL     1      -3.237   3.676 -27.379  0.00  0.00    +0.077 C 
ATOM     15  O   UNL     1      -3.681   3.365 -24.994  0.00  0.00    -0.199 OA
ATOM     16  O   UNL     1      -3.404   3.090 -23.872  0.00  0.00    -0.218 OA
ATOM     17  O   UNL     1       1.334   1.703 -23.153  0.00  0.00    -0.250 OA
ATOM     18  C   UNL     1      -0.083   1.680 -20.933  0.00  0.00    +0.019 C 
ATOM     19  C   UNL     1      -2.484   2.725 -23.201  0.00  0.00    +0.173 C 
ATOM     20  C   UNL     1      -3.765   3.067 -23.215  0.00  0.00    +0.034 C 
ENDROOT
TORSDOF 0
ENDMDL
MODEL 2
REMARK VINA RESULT:    -9.879      1.076      4.001
REMARK INTER + INTRA:          -9.879
REMARK INTER:                  -9.879
REMARK INTRA:                   0.000
REMARK UNBOUND:                 0.000
REMARK  Name = C[C@@H]1CC[C@@H]2[C@@H](C)C(=O)O[C@@H]3O[C@]4(C)CC[C@H]1[C@]32OO4    ZINC000100065755
REMARK  3 active torsions:
REMARK  status: ('A' for Active; 'I' for Inactive)
REMARK    1  A    between atoms: C_1  and  C_2
REMARK    2  A    between atoms: C_6  and  C_7
REMARK    3  A    between atoms: C_13  and  C_14
REMARK                            x       y       z     vdW  Elec       q    Type
REMARK                         _______ _______ _______ _____ _____    ______ ____
ROOT
ATOM      1  C   UNL     1      -3.682   2.888 -19.925  0.00  0.00    +0.008 C 
ATOM      2  C   UNL     1      -3.741   3.050 -21.224  0.00  0.00    -0.008 C 
ATOM      3  C   UNL     1      -4.866   3.413 -21.788  0.00  0.00    +0.004 C 
ATOM      4  C   UNL     1      -4.926   3.577 -23.102  0.00  0.00    +0.008 C 
ATOM      5  C   UNL     1      -3.860   3.376 -23.837  0.00  0.00    +0.044 C 
ATOM      6  C   UNL     1      -3.919   3.537 -25.136  0.00  0.00    +0.101 C 
ATOM      7  C   UNL     1      -2.855   3.338 -25.885  0.00  0.00    +0.313 C 
ATOM      8  O   UNL     1      -1.714   2.969 -25.307  0.00  0.00    -0.432 OA
ATOM      9  C   UNL     1      -1.654   2.807 -24.009  0.00  0.00    +0.349 C 
ATOM     10  O   UNL     1      -0.420   2.450 -23.754  0.00  0.00    -0.305 OA
ATOM     11  C   UNL     1       0.114   2.175 -22.573  0.00  0.00    +0.204 C 
ATOM     12  C   UNL     1      -0.467   2.198 -21.399  0.00  0.00    +0.068 C 
ATOM     13  C   UNL     1      -1.724   2.500 -21.110  0.00  0.00    +0.012 C 
ATOM     14  C   UNL     1       1.396   1.834 -22.580  0.00  0.00    +0.077 C 
ATOM     15  O   UNL     1      -0.932   2.398 -22.078  0.00  0.00    -0.199 OA
ATOM     16  O   UNL     1      -2.043   2.723 -22.341  0.00  0.00    -0.218 OA
ATOM     17  O   UNL     1      -2.918   3.502 -27.191  0.00  0.00    -0.250 OA
ATOM     18  C   UNL     1      -5.048   3.901 -25.693  0.00  0.00    +0.019 C 
ATOM     19  C   UNL     1      -2.735   3.013 -23.273  0.00  0.00    +0.173 C 
ATOM     20  C   UNL     1      -2.675   2.849 -21.958  0.00  0.00    +0.034 C 
ENDROOT
TORSDOF 0
ENDMDL
MODEL 3
REMARK VINA RESULT:    -9.803      1.581      4.073
REMARK INTER + INTRA:          -9.803
REMARK INTER:                  -9.803
REMARK INTRA:                   0.000
REMARK UNBOUND:                 0.000
REMARK  Name = C[C@@H]1CC[C@@H]2[C@@H](C)C(=O)O[C@@H]3O[C@]4(C)CC[C@H]1[C@]32OO4    ZINC000100065755
REMARK  3 active torsions:
REMARK  status: ('A' for Active; 'I' for Inactive)
REMARK    1  A    between atoms: C_1  and  C_2
REMARK    2  A    between atoms: C_6  and  C_7
REMARK    3  A    between atoms: C_13  and  C_14
REMARK                            x       y       z     vdW  Elec       q    Type
REMARK                         _______ _______ _______ _____ _____    ______ ____
ROOT
ATOM      1  C   UNL     1      -2.943   3.725 -27.095  0.00  0.00    +0.008 C 
ATOM      2  C   UNL     1      -3.283   3.614 -25.835  0.00  0.00    -0.008 C 
ATOM      3  C   UNL     1      -4.548   3.559 -25.500  0.00  0.00    +0.004 C 
ATOM      4  C   UNL     1      -4.893   3.447 -24.225  0.00  0.00    +0.008 C 
ATOM      5  C   UNL     1      -3.968   3.392 -23.298  0.00  0.00    +0.044 C 
ATOM      6  C   UNL     1      -4.309   3.281 -22.038  0.00  0.00    +0.101 C 
ATOM      7  C   UNL     1      -3.388   3.225 -21.098  0.00  0.00    +0.313 C 
ATOM      8  O   UNL     1      -2.103   3.281 -21.443  0.00  0.00    -0.432 OA
ATOM      9  C   UNL     1      -1.763   3.392 -22.702  0.00  0.00    +0.349 C 
ATOM     10  O   UNL     1      -0.453   3.421 -22.712  0.00  0.00    -0.305 OA
ATOM     11  C   UNL     1       0.345   3.525 -23.765  0.00  0.00    +0.204 C 
ATOM     12  C   UNL     1       0.007   3.621 -25.027  0.00  0.00    +0.068 C 
ATOM     13  C   UNL     1      -1.208   3.637 -25.554  0.00  0.00    +0.012 C 
ATOM     14  C   UNL     1       1.646   3.533 -23.510  0.00  0.00    +0.077 C 
ATOM     15  O   UNL     1      -0.611   3.560 -24.452  0.00  0.00    -0.199 OA
ATOM     16  O   UNL     1      -1.798   3.531 -24.411  0.00  0.00    -0.218 OA
ATOM     17  O   UNL     1      -3.735   3.113 -19.832  0.00  0.00    -0.250 OA
ATOM     18  C   UNL     1      -5.576   3.227 -21.712  0.00  0.00    +0.019 C 
ATOM     19  C   UNL     1      -2.703   3.447 -23.633  0.00  0.00    +0.173 C 
ATOM     20  C   UNL     1      -2.358   3.559 -24.908  0.00  0.00    +0.034 C 
ENDROOT
TORSDOF 0
ENDMDL
MODEL 4
REMARK VINA RESULT:    -9.514      1.597      3.670
REMARK INTER + INTRA:          -9.514
REMARK INTER:                  -9.514
REMARK INTRA:                   0.000
REMARK UNBOUND:                 0.000
REMARK  Name = C[C@@H]1CC[C@@H]2[C@@H](C)C(=O)O[C@@H]3O[C@]4(C)CC[C@H]1[C@]32OO4    ZINC000100065755
REMARK  3 active torsions:
REMARK  status: ('A' for Active; 'I' for Inactive)
REMARK    1  A    between atoms: C_1  and  C_2
REMARK    2  A    between atoms: C_6  and  C_7
REMARK    3  A    between atoms: C_13  and  C_14
REMARK                            x       y       z     vdW  Elec       q    Type
REMARK                         _______ _______ _______ _____ _____    ______ ____
ROOT
ATOM      1  C   UNL     1      -5.173   3.389 -25.485  0.00  0.00    +0.008 C 
ATOM      2  C   UNL     1      -3.881   3.482 -25.290  0.00  0.00    -0.008 C 
ATOM      3  C   UNL     1      -3.068   3.551 -26.315  0.00  0.00    +0.004 C 
ATOM      4  C   UNL     1      -1.760   3.645 -26.118  0.00  0.00    +0.008 C 
ATOM      5  C   UNL     1      -1.281   3.669 -24.899  0.00  0.00    +0.044 C 
ATOM      6  C   UNL     1       0.011   3.762 -24.705  0.00  0.00    +0.101 C 
ATOM      7  C   UNL     1       0.505   3.787 -23.484  0.00  0.00    +0.313 C 
ATOM      8  O   UNL     1      -0.326   3.716 -22.446  0.00  0.00    -0.432 OA
ATOM      9  C   UNL     1      -1.617   3.623 -22.640  0.00  0.00    +0.349 C 
ATOM     10  O   UNL     1      -2.150   3.572 -21.444  0.00  0.00    -0.305 OA
ATOM     11  C   UNL     1      -3.436   3.475 -21.137  0.00  0.00    +0.204 C 
ATOM     12  C   UNL     1      -4.458   3.408 -21.953  0.00  0.00    +0.068 C 
ATOM     13  C   UNL     1      -4.455   3.420 -23.277  0.00  0.00    +0.012 C 
ATOM     14  C   UNL     1      -3.723   3.442 -19.842  0.00  0.00    +0.077 C 
ATOM     15  O   UNL     1      -3.684   3.468 -22.288  0.00  0.00    -0.199 OA
ATOM     16  O   UNL     1      -3.170   3.516 -23.358  0.00  0.00    -0.218 OA
ATOM     17  O   UNL     1       1.805   3.880 -23.293  0.00  0.00    -0.250 OA
ATOM     18  C   UNL     1       0.818   3.831 -25.734  0.00  0.00    +0.019 C 
ATOM     19  C   UNL     1      -2.094   3.599 -23.874  0.00  0.00    +0.173 C 
ATOM     20  C   UNL     1      -3.402   3.505 -24.071  0.00  0.00    +0.034 C 
ENDROOT
TORSDOF 0
ENDMDL
MODEL 5
REMARK VINA RESULT:    -9.349      1.563      3.641
REMARK INTER + INTRA:          -9.349
REMARK INTER:                  -9.349
REMARK INTRA:                   0.000
REMARK UNBOUND:                 0.000
REMARK  Name = C[C@@H]1CC[C@@H]2[C@@H](C)C(=O)O[C@@H]3O[C@]4(C)CC[C@H]1[C@]32OO4    ZINC000100065755
REMARK  3 active torsions:
REMARK  status: ('A' for Active; 'I' for Inactive)
REMARK    1  A    between atoms: C_1  and  C_2
REMARK    2  A    between atoms: C_6  and  C_7
REMARK    3  A    between atoms: C_13  and  C_14
REMARK                            x       y       z     vdW  Elec       q    Type
REMARK                         _______ _______ _______ _____ _____    ______ ____
ROOT
ATOM      1  C   UNL     1      -2.793   4.110 -25.688  0.00  0.00    +0.008 C 
ATOM      2  C   UNL     1      -1.804   3.611 -24.990  0.00  0.00    -0.008 C 
ATOM      3  C   UNL     1      -0.597   3.575 -25.499  0.00  0.00    +0.004 C 
ATOM      4  C   UNL     1       0.405   3.069 -24.793  0.00  0.00    +0.008 C 
ATOM      5  C   UNL     1       0.189   2.605 -23.587  0.00  0.00    +0.044 C 
ATOM      6  C   UNL     1       1.179   2.106 -22.889  0.00  0.00    +0.101 C 
ATOM      7  C   UNL     1       0.974   1.637 -21.676  0.00  0.00    +0.313 C 
ATOM      8  O   UNL     1      -0.255   1.675 -21.164  0.00  0.00    -0.432 OA
ATOM      9  C   UNL     1      -1.244   2.175 -21.860  0.00  0.00    +0.349 C 
ATOM     10  O   UNL     1      -2.302   2.071 -21.095  0.00  0.00    -0.305 OA
ATOM     11  C   UNL     1      -3.542   2.446 -21.375  0.00  0.00    +0.204 C 
ATOM     12  C   UNL     1      -3.988   3.002 -22.474  0.00  0.00    +0.068 C 
ATOM     13  C   UNL     1      -3.312   3.323 -23.566  0.00  0.00    +0.012 C 
ATOM     14  C   UNL     1      -4.442   2.232 -20.425  0.00  0.00    +0.077 C 
ATOM     15  O   UNL     1      -3.164   2.813 -22.429  0.00  0.00    -0.199 OA
ATOM     16  O   UNL     1      -2.188   2.893 -23.099  0.00  0.00    -0.218 OA
ATOM     17  O   UNL     1       1.972   1.135 -20.978  0.00  0.00    -0.250 OA
ATOM     18  C   UNL     1       2.383   2.073 -23.405  0.00  0.00    +0.019 C 
ATOM     19  C   UNL     1      -1.018   2.641 -23.078  0.00  0.00    +0.173 C 
ATOM     20  C   UNL     1      -2.020   3.147 -23.785  0.00  0.00    +0.034 C 
ENDROOT
TORSDOF 0
ENDMDL
MODEL 6
REMARK VINA RESULT:    -9.173      1.831      5.125
REMARK INTER + INTRA:          -9.173
REMARK INTER:                  -9.173
REMARK INTRA:                   0.000
REMARK UNBOUND:                 0.000
REMARK  Name = C[C@@H]1CC[C@@H]2[C@@H](C)C(=O)O[C@@H]3O[C@]4(C)CC[C@H]1[C@]32OO4    ZINC000100065755
REMARK  3 active torsions:
REMARK  status: ('A' for Active; 'I' for Inactive)
REMARK    1  A    between atoms: C_1  and  C_2
REMARK    2  A    between atoms: C_6  and  C_7
REMARK    3  A    between atoms: C_13  and  C_14
REMARK                            x       y       z     vdW  Elec       q    Type
REMARK                         _______ _______ _______ _____ _____    ______ ____
ROOT
ATOM      1  C   UNL     1       0.798   3.579 -25.844  0.00  0.00    +0.008 C 
ATOM      2  C   UNL     1      -0.239   3.435 -25.056  0.00  0.00    -0.008 C 
ATOM      3  C   UNL     1      -1.429   3.799 -25.466  0.00  0.00    +0.004 C 
ATOM      4  C   UNL     1      -2.478   3.653 -24.668  0.00  0.00    +0.008 C 
ATOM      5  C   UNL     1      -2.325   3.145 -23.471  0.00  0.00    +0.044 C 
ATOM      6  C   UNL     1      -3.361   3.000 -22.683  0.00  0.00    +0.101 C 
ATOM      7  C   UNL     1      -3.220   2.490 -21.476  0.00  0.00    +0.313 C 
ATOM      8  O   UNL     1      -2.009   2.121 -21.065  0.00  0.00    -0.432 OA
ATOM      9  C   UNL     1      -0.973   2.265 -21.852  0.00  0.00    +0.349 C 
ATOM     10  O   UNL     1       0.052   1.818 -21.171  0.00  0.00    -0.305 OA
ATOM     11  C   UNL     1       1.318   1.763 -21.559  0.00  0.00    +0.204 C 
ATOM     12  C   UNL     1       1.828   2.140 -22.706  0.00  0.00    +0.068 C 
ATOM     13  C   UNL     1       1.205   2.665 -23.749  0.00  0.00    +0.012 C 
ATOM     14  C   UNL     1       2.175   1.264 -20.678  0.00  0.00    +0.077 C 
ATOM     15  O   UNL     1       0.995   2.233 -22.590  0.00  0.00    -0.199 OA
ATOM     16  O   UNL     1       0.046   2.631 -23.182  0.00  0.00    -0.218 OA
ATOM     17  O   UNL     1      -4.266   2.347 -20.687  0.00  0.00    -0.250 OA
ATOM     18  C   UNL     1      -4.548   3.367 -23.099  0.00  0.00    +0.019 C 
ATOM     19  C   UNL     1      -1.135   2.780 -23.061  0.00  0.00    +0.173 C 
ATOM     20  C   UNL     1      -0.086   2.926 -23.859  0.00  0.00    +0.034 C 
ENDROOT
TORSDOF 0
ENDMDL
MODEL 7
REMARK VINA RESULT:    -8.107      3.582      7.198
REMARK INTER + INTRA:          -8.107
REMARK INTER:                  -8.107
REMARK INTRA:                   0.000
REMARK UNBOUND:                 0.000
REMARK  Name = C[C@@H]1CC[C@@H]2[C@@H](C)C(=O)O[C@@H]3O[C@]4(C)CC[C@H]1[C@]32OO4    ZINC000100065755
REMARK  3 active torsions:
REMARK  status: ('A' for Active; 'I' for Inactive)
REMARK    1  A    between atoms: C_1  and  C_2
REMARK    2  A    between atoms: C_6  and  C_7
REMARK    3  A    between atoms: C_13  and  C_14
REMARK                            x       y       z     vdW  Elec       q    Type
REMARK                         _______ _______ _______ _____ _____    ______ ____
ROOT
ATOM      1  C   UNL     1       4.939   4.858 -23.270  0.00  0.00    +0.008 C 
ATOM      2  C   UNL     1       3.762   4.311 -23.096  0.00  0.00    -0.008 C 
ATOM      3  C   UNL     1       2.684   4.930 -23.510  0.00  0.00    +0.004 C 
ATOM      4  C   UNL     1       1.492   4.376 -23.333  0.00  0.00    +0.008 C 
ATOM      5  C   UNL     1       1.392   3.210 -22.744  0.00  0.00    +0.044 C 
ATOM      6  C   UNL     1       0.214   2.663 -22.570  0.00  0.00    +0.101 C 
ATOM      7  C   UNL     1       0.101   1.491 -21.979  0.00  0.00    +0.313 C 
ATOM      8  O   UNL     1       1.199   0.866 -21.560  0.00  0.00    -0.432 OA
ATOM      9  C   UNL     1       2.376   1.412 -21.735  0.00  0.00    +0.349 C 
ATOM     10  O   UNL     1       3.236   0.567 -21.224  0.00  0.00    -0.305 OA
ATOM     11  C   UNL     1       4.555   0.690 -21.169  0.00  0.00    +0.204 C 
ATOM     12  C   UNL     1       5.292   1.679 -21.609  0.00  0.00    +0.068 C 
ATOM     13  C   UNL     1       4.901   2.790 -22.214  0.00  0.00    +0.012 C 
ATOM     14  C   UNL     1       5.209  -0.312 -20.597  0.00  0.00    +0.077 C 
ATOM     15  O   UNL     1       4.453   1.731 -21.711  0.00  0.00    -0.199 OA
ATOM     16  O   UNL     1       3.649   2.476 -22.166  0.00  0.00    -0.218 OA
ATOM     17  O   UNL     1      -1.085   0.944 -21.806  0.00  0.00    -0.250 OA
ATOM     18  C   UNL     1      -0.859   3.288 -22.987  0.00  0.00    +0.019 C 
ATOM     19  C   UNL     1       2.470   2.591 -22.330  0.00  0.00    +0.173 C 
ATOM     20  C   UNL     1       3.661   3.145 -22.507  0.00  0.00    +0.034 C 
ENDROOT
TORSDOF 0
ENDMDL
MODEL 8
REMARK VINA RESULT:    -8.096      1.651      5.001
REMARK INTER + INTRA:          -8.096
REMARK INTER:                  -8.096
REMARK INTRA:                   0.000
REMARK UNBOUND:                 0.000
REMARK  Name = C[C@@H]1CC[C@@H]2[C@@H](C)C(=O)O[C@@H]3O[C@]4(C)CC[C@H]1[C@]32OO4    ZINC000100065755
REMARK  3 active torsions:
REMARK  status: ('A' for Active; 'I' for Inactive)
REMARK    1  A    between atoms: C_1  and  C_2
REMARK    2  A    between atoms: C_6  and  C_7
REMARK    3  A    between atoms: C_13  and  C_14
REMARK                            x       y       z     vdW  Elec       q    Type
REMARK                         _______ _______ _______ _____ _____    ______ ____
ROOT
ATOM      1  C   UNL     1       1.096   3.505 -23.196  0.00  0.00    +0.008 C 
ATOM      2  C   UNL     1      -0.014   3.490 -23.890  0.00  0.00    -0.008 C 
ATOM      3  C   UNL     1       0.031   3.538 -25.199  0.00  0.00    +0.004 C 
ATOM      4  C   UNL     1      -1.093   3.522 -25.902  0.00  0.00    +0.008 C 
ATOM      5  C   UNL     1      -2.249   3.459 -25.289  0.00  0.00    +0.044 C 
ATOM      6  C   UNL     1      -3.359   3.444 -25.983  0.00  0.00    +0.101 C 
ATOM      7  C   UNL     1      -4.528   3.381 -25.378  0.00  0.00    +0.313 C 
ATOM      8  O   UNL     1      -4.568   3.333 -24.048  0.00  0.00    -0.432 OA
ATOM      9  C   UNL     1      -3.459   3.348 -23.353  0.00  0.00    +0.349 C 
ATOM     10  O   UNL     1      -3.828   3.290 -22.098  0.00  0.00    -0.305 OA
ATOM     11  C   UNL     1      -3.048   3.280 -21.026  0.00  0.00    +0.204 C 
ATOM     12  C   UNL     1      -1.739   3.325 -20.980  0.00  0.00    +0.068 C 
ATOM     13  C   UNL     1      -0.883   3.391 -21.987  0.00  0.00    +0.012 C 
ATOM     14  C   UNL     1      -3.669   3.216 -19.857  0.00  0.00    +0.077 C 
ATOM     15  O   UNL     1      -2.112   3.339 -21.740  0.00  0.00    -0.199 OA
ATOM     16  O   UNL     1      -1.810   3.390 -22.887  0.00  0.00    -0.218 OA
ATOM     17  O   UNL     1      -5.642   3.366 -26.081  0.00  0.00    -0.250 OA
ATOM     18  C   UNL     1      -3.306   3.493 -27.292  0.00  0.00    +0.019 C 
ATOM     19  C   UNL     1      -2.294   3.411 -23.980  0.00  0.00    +0.173 C 
ATOM     20  C   UNL     1      -1.170   3.427 -23.277  0.00  0.00    +0.034 C 
ENDROOT
TORSDOF 0
ENDMDL
MODEL 9
REMARK VINA RESULT:    -7.966      3.302      5.730
REMARK INTER + INTRA:          -7.966
REMARK INTER:                  -7.966
REMARK INTRA:                   0.000
REMARK UNBOUND:                 0.000
REMARK  Name = C[C@@H]1CC[C@@H]2[C@@H](C)C(=O)O[C@@H]3O[C@]4(C)CC[C@H]1[C@]32OO4    ZINC000100065755
REMARK  3 active torsions:
REMARK  status: ('A' for Active; 'I' for Inactive)
REMARK    1  A    between atoms: C_1  and  C_2
REMARK    2  A    between atoms: C_6  and  C_7
REMARK    3  A    between atoms: C_13  and  C_14
REMARK                            x       y       z     vdW  Elec       q    Type
REMARK                         _______ _______ _______ _____ _____    ______ ____
ROOT
ATOM      1  C   UNL     1       1.363   4.959 -24.432  0.00  0.00    +0.008 C 
ATOM      2  C   UNL     1       2.127   4.135 -23.759  0.00  0.00    -0.008 C 
ATOM      3  C   UNL     1       3.430   4.228 -23.850  0.00  0.00    +0.004 C 
ATOM      4  C   UNL     1       4.204   3.394 -23.168  0.00  0.00    +0.008 C 
ATOM      5  C   UNL     1       3.664   2.477 -22.403  0.00  0.00    +0.044 C 
ATOM      6  C   UNL     1       4.428   1.653 -21.730  0.00  0.00    +0.101 C 
ATOM      7  C   UNL     1       3.898   0.727 -20.958  0.00  0.00    +0.313 C 
ATOM      8  O   UNL     1       2.573   0.637 -20.869  0.00  0.00    -0.432 OA
ATOM      9  C   UNL     1       1.808   1.460 -21.542  0.00  0.00    +0.349 C 
ATOM     10  O   UNL     1       0.579   1.120 -21.247  0.00  0.00    -0.305 OA
ATOM     11  C   UNL     1      -0.541   1.672 -21.693  0.00  0.00    +0.204 C 
ATOM     12  C   UNL     1      -0.670   2.677 -22.523  0.00  0.00    +0.068 C 
ATOM     13  C   UNL     1       0.281   3.382 -23.116  0.00  0.00    +0.012 C 
ATOM     14  C   UNL     1      -1.670   1.142 -21.242  0.00  0.00    +0.077 C 
ATOM     15  O   UNL     1       0.112   2.424 -22.322  0.00  0.00    -0.199 OA
ATOM     16  O   UNL     1       1.238   2.708 -22.569  0.00  0.00    -0.218 OA
ATOM     17  O   UNL     1       4.670  -0.100 -20.282  0.00  0.00    -0.250 OA
ATOM     18  C   UNL     1       5.731   1.752 -21.826  0.00  0.00    +0.019 C 
ATOM     19  C   UNL     1       2.361   2.384 -22.313  0.00  0.00    +0.173 C 
ATOM     20  C   UNL     1       1.587   3.218 -22.994  0.00  0.00    +0.034 C 
ENDROOT
TORSDOF 0
ENDMDL
