MODEL 1
REMARK VINA RESULT:    -8.963      0.000      0.000
REMARK INTER + INTRA:         -11.274
REMARK INTER:                 -11.160
REMARK INTRA:                  -0.114
REMARK UNBOUND:                 0.046
REMARK  Name = ZINC000003871711
REMARK  8 active torsions:
REMARK  status: ('A' for Active; 'I' for Inactive)
REMARK    1  A    between atoms: C_1  and  O_2
REMARK    2  A    between atoms: O_2  and  C_3
REMARK    3  A    between atoms: C_4  and  O_5
REMARK    4  A    between atoms: C_9  and  O_10
REMARK    5  A    between atoms: C_13  and  C_14
REMARK    6  A    between atoms: C_14  and  O_15
REMARK    7  A    between atoms: C_16  and  O_17
REMARK    8  A    between atoms: C_18  and  O_19
REMARK                            x       y       z     vdW  Elec       q    Type
REMARK                         _______ _______ _______ _____ _____    ______ ____
ROOT
ATOM      1  C   UNL     1      -2.723   3.763 -25.194  0.00  0.00    +0.203 A 
ATOM      2  C   UNL     1      -3.663   3.930 -24.312  0.00  0.00    +0.163 A 
ATOM      3  C   UNL     1      -3.460   3.590 -23.074  0.00  0.00    +0.064 A 
ATOM      4  C   UNL     1      -2.317   3.083 -22.718  0.00  0.00    +0.072 A 
ATOM      5  C   UNL     1      -1.377   2.916 -23.601  0.00  0.00    +0.044 A 
ATOM      6  C   UNL     1      -0.234   2.409 -23.245  0.00  0.00    +0.196 C 
ATOM      7  O   UNL     1       0.706   2.242 -24.127  0.00  0.00    -0.360 OA
ATOM      8  C   UNL     1       1.849   1.734 -23.772  0.00  0.00    +0.175 C 
ATOM      9  C   UNL     1       2.052   1.394 -22.534  0.00  0.00    +0.178 C 
ATOM     10  C   UNL     1       1.112   1.561 -21.652  0.00  0.00    +0.189 C 
ATOM     11  C   UNL     1      -0.031   2.068 -22.007  0.00  0.00    +0.241 C 
ATOM     12  O   UNL     1      -0.971   2.235 -21.124  0.00  0.00    -0.452 OA
ATOM     13  C   UNL     1      -2.114   2.742 -21.480  0.00  0.00    +0.340 C 
ATOM     14  O   UNL     1      -3.054   2.909 -20.597  0.00  0.00    -0.245 OA
ATOM     15  C   UNL     1      -1.580   3.256 -24.838  0.00  0.00    +0.169 A 
ENDROOT
BRANCH   1  17
ATOM     16  C   UNL     1      -3.523   3.281 -27.243  0.00  0.00    +0.277 C 
ATOM     17  O   UNL     1      -2.926   4.103 -26.432  0.00  0.00    -0.489 OA
ENDBRANCH   1  17
BRANCH  10  18
ATOM     18  O   UNL     1       1.315   1.221 -20.413  0.00  0.00    -0.385 OA
ATOM     19  H   UNL     1       0.462   1.122 -19.962  0.00  0.00    +0.210 HD
ENDBRANCH  10  18
BRANCH   9  20
ATOM     20  O   UNL     1       3.195   0.887 -22.178  0.00  0.00    -0.386 OA
ATOM     21  H   UNL     1       3.771   0.811 -22.955  0.00  0.00    +0.210 HD
ENDBRANCH   9  20
BRANCH  15  22
ATOM     22  O   UNL     1      -0.640   3.089 -25.721  0.00  0.00    -0.503 OA
ATOM     23  H   UNL     1      -0.436   2.228 -26.032  0.00  0.00    +0.292 HD
ENDBRANCH  15  22
BRANCH   2  24
ATOM     24  O   UNL     1      -4.806   4.437 -24.667  0.00  0.00    -0.503 OA
ATOM     25  H   UNL     1      -5.134   5.202 -24.236  0.00  0.00    +0.292 HD
ENDBRANCH   2  24
BRANCH   8  26
ATOM     26  C   UNL     1       2.789   1.567 -24.654  0.00  0.00    +0.190 C 
BRANCH  26  27
ATOM     27  O   UNL     1       3.060   0.375 -25.097  0.00  0.00    -0.392 OA
ATOM     28  H   UNL     1       3.326   0.429 -26.028  0.00  0.00    +0.210 HD
ENDBRANCH  26  27
ENDBRANCH   8  26
TORSDOF 7
ENDMDL
MODEL 2
REMARK VINA RESULT:    -8.740      1.289      5.432
REMARK INTER + INTRA:         -10.993
REMARK INTER:                 -10.912
REMARK INTRA:                  -0.081
REMARK UNBOUND:                 0.046
REMARK  Name = ZINC000003871711
REMARK  8 active torsions:
REMARK  status: ('A' for Active; 'I' for Inactive)
REMARK    1  A    between atoms: C_1  and  O_2
REMARK    2  A    between atoms: O_2  and  C_3
REMARK    3  A    between atoms: C_4  and  O_5
REMARK    4  A    between atoms: C_9  and  O_10
REMARK    5  A    between atoms: C_13  and  C_14
REMARK    6  A    between atoms: C_14  and  O_15
REMARK    7  A    between atoms: C_16  and  O_17
REMARK    8  A    between atoms: C_18  and  O_19
REMARK                            x       y       z     vdW  Elec       q    Type
REMARK                         _______ _______ _______ _____ _____    ______ ____
ROOT
ATOM      1  C   UNL     1       0.552   1.821 -22.691  0.00  0.00    +0.203 A 
ATOM      2  C   UNL     1       0.338   1.712 -21.413  0.00  0.00    +0.163 A 
ATOM      3  C   UNL     1      -0.814   2.051 -20.916  0.00  0.00    +0.064 A 
ATOM      4  C   UNL     1      -1.751   2.500 -21.697  0.00  0.00    +0.072 A 
ATOM      5  C   UNL     1      -1.538   2.610 -22.974  0.00  0.00    +0.044 A 
ATOM      6  C   UNL     1      -2.475   3.059 -23.754  0.00  0.00    +0.196 C 
ATOM      7  O   UNL     1      -2.261   3.168 -25.031  0.00  0.00    -0.360 OA
ATOM      8  C   UNL     1      -3.199   3.618 -25.812  0.00  0.00    +0.175 C 
ATOM      9  C   UNL     1      -4.351   3.957 -25.315  0.00  0.00    +0.178 C 
ATOM     10  C   UNL     1      -4.565   3.848 -24.037  0.00  0.00    +0.189 C 
ATOM     11  C   UNL     1      -3.627   3.399 -23.257  0.00  0.00    +0.241 C 
ATOM     12  O   UNL     1      -3.842   3.289 -21.979  0.00  0.00    -0.452 OA
ATOM     13  C   UNL     1      -2.904   2.840 -21.199  0.00  0.00    +0.340 C 
ATOM     14  O   UNL     1      -3.118   2.731 -19.921  0.00  0.00    -0.245 OA
ATOM     15  C   UNL     1      -0.386   2.270 -23.471  0.00  0.00    +0.169 A 
ENDROOT
BRANCH   1  17
ATOM     16  C   UNL     1       2.656   2.362 -23.283  0.00  0.00    +0.277 C 
ATOM     17  O   UNL     1       1.704   1.481 -23.189  0.00  0.00    -0.489 OA
ENDBRANCH   1  17
BRANCH  10  18
ATOM     18  O   UNL     1      -5.717   4.188 -23.539  0.00  0.00    -0.385 OA
ATOM     19  H   UNL     1      -5.677   4.142 -22.571  0.00  0.00    +0.210 HD
ENDBRANCH  10  18
BRANCH   9  20
ATOM     20  O   UNL     1      -5.289   4.406 -26.095  0.00  0.00    -0.386 OA
ATOM     21  H   UNL     1      -5.107   5.332 -26.319  0.00  0.00    +0.210 HD
ENDBRANCH   9  20
BRANCH  15  22
ATOM     22  O   UNL     1      -0.171   2.380 -24.749  0.00  0.00    -0.503 OA
ATOM     23  H   UNL     1      -0.849   2.698 -25.313  0.00  0.00    +0.292 HD
ENDBRANCH  15  22
BRANCH   2  24
ATOM     24  O   UNL     1       1.276   1.263 -20.633  0.00  0.00    -0.503 OA
ATOM     25  H   UNL     1       1.327   0.347 -20.441  0.00  0.00    +0.292 HD
ENDBRANCH   2  24
BRANCH   8  26
ATOM     26  C   UNL     1      -2.985   3.727 -27.089  0.00  0.00    +0.190 C 
BRANCH  26  27
ATOM     27  O   UNL     1      -3.782   3.143 -27.934  0.00  0.00    -0.392 OA
ATOM     28  H   UNL     1      -3.746   3.606 -28.786  0.00  0.00    +0.210 HD
ENDBRANCH  26  27
ENDBRANCH   8  26
TORSDOF 7
ENDMDL
MODEL 3
REMARK VINA RESULT:    -8.434      1.948      4.261
REMARK INTER + INTRA:         -10.606
REMARK INTER:                 -10.754
REMARK INTRA:                   0.148
REMARK UNBOUND:                 0.046
REMARK  Name = ZINC000003871711
REMARK  8 active torsions:
REMARK  status: ('A' for Active; 'I' for Inactive)
REMARK    1  A    between atoms: C_1  and  O_2
REMARK    2  A    between atoms: O_2  and  C_3
REMARK    3  A    between atoms: C_4  and  O_5
REMARK    4  A    between atoms: C_9  and  O_10
REMARK    5  A    between atoms: C_13  and  C_14
REMARK    6  A    between atoms: C_14  and  O_15
REMARK    7  A    between atoms: C_16  and  O_17
REMARK    8  A    between atoms: C_18  and  O_19
REMARK                            x       y       z     vdW  Elec       q    Type
REMARK                         _______ _______ _______ _____ _____    ______ ____
ROOT
ATOM      1  C   UNL     1      -1.142   2.456 -22.282  0.00  0.00    +0.203 A 
ATOM      2  C   UNL     1      -1.486   3.178 -23.307  0.00  0.00    +0.163 A 
ATOM      3  C   UNL     1      -0.587   3.553 -24.168  0.00  0.00    +0.064 A 
ATOM      4  C   UNL     1       0.655   3.204 -24.005  0.00  0.00    +0.072 A 
ATOM      5  C   UNL     1       0.998   2.482 -22.980  0.00  0.00    +0.044 A 
ATOM      6  C   UNL     1       2.240   2.134 -22.817  0.00  0.00    +0.196 C 
ATOM      7  O   UNL     1       2.583   1.411 -21.792  0.00  0.00    -0.360 OA
ATOM      8  C   UNL     1       3.825   1.063 -21.629  0.00  0.00    +0.175 C 
ATOM      9  C   UNL     1       4.724   1.437 -22.490  0.00  0.00    +0.178 C 
ATOM     10  C   UNL     1       4.380   2.160 -23.515  0.00  0.00    +0.189 C 
ATOM     11  C   UNL     1       3.138   2.508 -23.678  0.00  0.00    +0.241 C 
ATOM     12  O   UNL     1       2.795   3.231 -24.703  0.00  0.00    -0.452 OA
ATOM     13  C   UNL     1       1.554   3.579 -24.867  0.00  0.00    +0.340 C 
ATOM     14  O   UNL     1       1.210   4.302 -25.891  0.00  0.00    -0.245 OA
ATOM     15  C   UNL     1       0.100   2.108 -22.119  0.00  0.00    +0.169 A 
ENDROOT
BRANCH   1  17
ATOM     16  C   UNL     1      -2.585   2.956 -20.627  0.00  0.00    +0.277 C 
ATOM     17  O   UNL     1      -2.041   2.081 -21.420  0.00  0.00    -0.489 OA
ENDBRANCH   1  17
BRANCH  10  18
ATOM     18  O   UNL     1       5.279   2.535 -24.377  0.00  0.00    -0.385 OA
ATOM     19  H   UNL     1       5.520   3.460 -24.210  0.00  0.00    +0.210 HD
ENDBRANCH  10  18
BRANCH   9  20
ATOM     20  O   UNL     1       5.965   1.089 -22.327  0.00  0.00    -0.386 OA
ATOM     21  H   UNL     1       6.530   1.623 -22.907  0.00  0.00    +0.210 HD
ENDBRANCH   9  20
BRANCH  15  22
ATOM     22  O   UNL     1       0.443   1.385 -21.094  0.00  0.00    -0.503 OA
ATOM     23  H   UNL     1      -0.036   0.605 -20.888  0.00  0.00    +0.292 HD
ENDBRANCH  15  22
BRANCH   2  24
ATOM     24  O   UNL     1      -2.727   3.526 -23.470  0.00  0.00    -0.503 OA
ATOM     25  H   UNL     1      -2.936   4.380 -23.795  0.00  0.00    +0.292 HD
ENDBRANCH   2  24
BRANCH   8  26
ATOM     26  C   UNL     1       4.168   0.341 -20.605  0.00  0.00    +0.190 C 
BRANCH  26  27
ATOM     27  O   UNL     1       5.168   0.706 -19.857  0.00  0.00    -0.392 OA
ATOM     28  H   UNL     1       4.831   1.095 -19.035  0.00  0.00    +0.210 HD
ENDBRANCH  26  27
ENDBRANCH   8  26
TORSDOF 7
ENDMDL
MODEL 4
REMARK VINA RESULT:    -8.397      1.336      3.746
REMARK INTER + INTRA:         -10.560
REMARK INTER:                 -10.565
REMARK INTRA:                   0.005
REMARK UNBOUND:                 0.046
REMARK  Name = ZINC000003871711
REMARK  8 active torsions:
REMARK  status: ('A' for Active; 'I' for Inactive)
REMARK    1  A    between atoms: C_1  and  O_2
REMARK    2  A    between atoms: O_2  and  C_3
REMARK    3  A    between atoms: C_4  and  O_5
REMARK    4  A    between atoms: C_9  and  O_10
REMARK    5  A    between atoms: C_13  and  C_14
REMARK    6  A    between atoms: C_14  and  O_15
REMARK    7  A    between atoms: C_16  and  O_17
REMARK    8  A    between atoms: C_18  and  O_19
REMARK                            x       y       z     vdW  Elec       q    Type
REMARK                         _______ _______ _______ _____ _____    ______ ____
ROOT
ATOM      1  C   UNL     1      -3.322   3.006 -21.653  0.00  0.00    +0.203 A 
ATOM      2  C   UNL     1      -4.178   3.362 -22.563  0.00  0.00    +0.163 A 
ATOM      3  C   UNL     1      -3.794   3.500 -23.797  0.00  0.00    +0.064 A 
ATOM      4  C   UNL     1      -2.554   3.283 -24.121  0.00  0.00    +0.072 A 
ATOM      5  C   UNL     1      -1.698   2.927 -23.210  0.00  0.00    +0.044 A 
ATOM      6  C   UNL     1      -0.457   2.710 -23.534  0.00  0.00    +0.196 C 
ATOM      7  O   UNL     1       0.399   2.354 -22.623  0.00  0.00    -0.360 OA
ATOM      8  C   UNL     1       1.639   2.136 -22.946  0.00  0.00    +0.175 C 
ATOM      9  C   UNL     1       2.023   2.275 -24.180  0.00  0.00    +0.178 C 
ATOM     10  C   UNL     1       1.167   2.630 -25.091  0.00  0.00    +0.189 C 
ATOM     11  C   UNL     1      -0.074   2.848 -24.767  0.00  0.00    +0.241 C 
ATOM     12  O   UNL     1      -0.930   3.204 -25.679  0.00  0.00    -0.452 OA
ATOM     13  C   UNL     1      -2.171   3.421 -25.356  0.00  0.00    +0.340 C 
ATOM     14  O   UNL     1      -3.027   3.777 -26.266  0.00  0.00    -0.245 OA
ATOM     15  C   UNL     1      -2.081   2.789 -21.976  0.00  0.00    +0.169 A 
ENDROOT
BRANCH   1  17
ATOM     16  C   UNL     1      -3.322   3.724 -19.519  0.00  0.00    +0.277 C 
ATOM     17  O   UNL     1      -3.705   2.867 -20.418  0.00  0.00    -0.489 OA
ENDBRANCH   1  17
BRANCH  10  18
ATOM     18  O   UNL     1       1.550   2.769 -26.326  0.00  0.00    -0.385 OA
ATOM     19  H   UNL     1       0.862   3.234 -26.827  0.00  0.00    +0.210 HD
ENDBRANCH  10  18
BRANCH   9  20
ATOM     20  O   UNL     1       3.263   2.057 -24.504  0.00  0.00    -0.386 OA
ATOM     21  H   UNL     1       3.801   1.997 -23.699  0.00  0.00    +0.210 HD
ENDBRANCH   9  20
BRANCH  15  22
ATOM     22  O   UNL     1      -1.225   2.433 -21.065  0.00  0.00    -0.503 OA
ATOM     23  H   UNL     1      -0.377   2.832 -21.037  0.00  0.00    +0.292 HD
ENDBRANCH  15  22
BRANCH   2  24
ATOM     24  O   UNL     1      -5.418   3.579 -22.240  0.00  0.00    -0.503 OA
ATOM     25  H   UNL     1      -5.650   4.353 -21.765  0.00  0.00    +0.292 HD
ENDBRANCH   2  24
BRANCH   8  26
ATOM     26  C   UNL     1       2.496   1.780 -22.036  0.00  0.00    +0.190 C 
BRANCH  26  27
ATOM     27  O   UNL     1       3.432   2.604 -21.666  0.00  0.00    -0.392 OA
ATOM     28  H   UNL     1       3.774   2.336 -20.799  0.00  0.00    +0.210 HD
ENDBRANCH  26  27
ENDBRANCH   8  26
TORSDOF 7
ENDMDL
MODEL 5
REMARK VINA RESULT:    -8.348      1.376      6.196
REMARK INTER + INTRA:         -10.498
REMARK INTER:                 -10.415
REMARK INTRA:                  -0.083
REMARK UNBOUND:                 0.046
REMARK  Name = ZINC000003871711
REMARK  8 active torsions:
REMARK  status: ('A' for Active; 'I' for Inactive)
REMARK    1  A    between atoms: C_1  and  O_2
REMARK    2  A    between atoms: O_2  and  C_3
REMARK    3  A    between atoms: C_4  and  O_5
REMARK    4  A    between atoms: C_9  and  O_10
REMARK    5  A    between atoms: C_13  and  C_14
REMARK    6  A    between atoms: C_14  and  O_15
REMARK    7  A    between atoms: C_16  and  O_17
REMARK    8  A    between atoms: C_18  and  O_19
REMARK                            x       y       z     vdW  Elec       q    Type
REMARK                         _______ _______ _______ _____ _____    ______ ____
ROOT
ATOM      1  C   UNL     1       2.174   1.140 -22.500  0.00  0.00    +0.203 A 
ATOM      2  C   UNL     1       2.892   1.549 -23.503  0.00  0.00    +0.163 A 
ATOM      3  C   UNL     1       2.372   2.337 -24.396  0.00  0.00    +0.064 A 
ATOM      4  C   UNL     1       1.134   2.717 -24.285  0.00  0.00    +0.072 A 
ATOM      5  C   UNL     1       0.416   2.309 -23.282  0.00  0.00    +0.044 A 
ATOM      6  C   UNL     1      -0.823   2.688 -23.171  0.00  0.00    +0.196 C 
ATOM      7  O   UNL     1      -1.541   2.280 -22.168  0.00  0.00    -0.360 OA
ATOM      8  C   UNL     1      -2.779   2.660 -22.057  0.00  0.00    +0.175 C 
ATOM      9  C   UNL     1      -3.299   3.448 -22.950  0.00  0.00    +0.178 C 
ATOM     10  C   UNL     1      -2.581   3.857 -23.954  0.00  0.00    +0.189 C 
ATOM     11  C   UNL     1      -1.343   3.477 -24.064  0.00  0.00    +0.241 C 
ATOM     12  O   UNL     1      -0.625   3.885 -25.069  0.00  0.00    -0.452 OA
ATOM     13  C   UNL     1       0.614   3.505 -25.179  0.00  0.00    +0.340 C 
ATOM     14  O   UNL     1       1.332   3.914 -26.183  0.00  0.00    -0.245 OA
ATOM     15  C   UNL     1       0.936   1.520 -22.389  0.00  0.00    +0.169 A 
ENDROOT
BRANCH   1  17
ATOM     16  C   UNL     1       3.461   0.839 -20.677  0.00  0.00    +0.277 C 
ATOM     17  O   UNL     1       2.694   0.352 -21.606  0.00  0.00    -0.489 OA
ENDBRANCH   1  17
BRANCH  10  18
ATOM     18  O   UNL     1      -3.101   4.645 -24.847  0.00  0.00    -0.385 OA
ATOM     19  H   UNL     1      -4.029   4.820 -24.623  0.00  0.00    +0.210 HD
ENDBRANCH  10  18
BRANCH   9  20
ATOM     20  O   UNL     1      -4.538   3.828 -22.839  0.00  0.00    -0.386 OA
ATOM     21  H   UNL     1      -4.940   3.399 -22.068  0.00  0.00    +0.210 HD
ENDBRANCH   9  20
BRANCH  15  22
ATOM     22  O   UNL     1       0.217   1.112 -21.385  0.00  0.00    -0.503 OA
ATOM     23  H   UNL     1       0.548   0.449 -20.811  0.00  0.00    +0.292 HD
ENDBRANCH  15  22
BRANCH   2  24
ATOM     24  O   UNL     1       4.130   1.169 -23.614  0.00  0.00    -0.503 OA
ATOM     25  H   UNL     1       4.759   1.426 -22.968  0.00  0.00    +0.292 HD
ENDBRANCH   2  24
BRANCH   8  26
ATOM     26  C   UNL     1      -3.497   2.252 -21.054  0.00  0.00    +0.190 C 
BRANCH  26  27
ATOM     27  O   UNL     1      -3.730   3.050 -20.053  0.00  0.00    -0.392 OA
ATOM     28  H   UNL     1      -4.677   3.252 -20.014  0.00  0.00    +0.210 HD
ENDBRANCH  26  27
ENDBRANCH   8  26
TORSDOF 7
ENDMDL
MODEL 6
REMARK VINA RESULT:    -7.927      1.260      5.207
REMARK INTER + INTRA:          -9.966
REMARK INTER:                  -9.851
REMARK INTRA:                  -0.115
REMARK UNBOUND:                 0.046
REMARK  Name = ZINC000003871711
REMARK  8 active torsions:
REMARK  status: ('A' for Active; 'I' for Inactive)
REMARK    1  A    between atoms: C_1  and  O_2
REMARK    2  A    between atoms: O_2  and  C_3
REMARK    3  A    between atoms: C_4  and  O_5
REMARK    4  A    between atoms: C_9  and  O_10
REMARK    5  A    between atoms: C_13  and  C_14
REMARK    6  A    between atoms: C_14  and  O_15
REMARK    7  A    between atoms: C_16  and  O_17
REMARK    8  A    between atoms: C_18  and  O_19
REMARK                            x       y       z     vdW  Elec       q    Type
REMARK                         _______ _______ _______ _____ _____    ______ ____
ROOT
ATOM      1  C   UNL     1       1.400   2.407 -24.694  0.00  0.00    +0.203 A 
ATOM      2  C   UNL     1       2.083   1.937 -23.694  0.00  0.00    +0.163 A 
ATOM      3  C   UNL     1       1.508   1.752 -22.543  0.00  0.00    +0.064 A 
ATOM      4  C   UNL     1       0.249   2.039 -22.393  0.00  0.00    +0.072 A 
ATOM      5  C   UNL     1      -0.435   2.510 -23.393  0.00  0.00    +0.044 A 
ATOM      6  C   UNL     1      -1.694   2.796 -23.243  0.00  0.00    +0.196 C 
ATOM      7  O   UNL     1      -2.377   3.267 -24.243  0.00  0.00    -0.360 OA
ATOM      8  C   UNL     1      -3.637   3.554 -24.092  0.00  0.00    +0.175 C 
ATOM      9  C   UNL     1      -4.212   3.370 -22.942  0.00  0.00    +0.178 C 
ATOM     10  C   UNL     1      -3.529   2.899 -21.942  0.00  0.00    +0.189 C 
ATOM     11  C   UNL     1      -2.270   2.612 -22.092  0.00  0.00    +0.241 C 
ATOM     12  O   UNL     1      -1.586   2.141 -21.091  0.00  0.00    -0.452 OA
ATOM     13  C   UNL     1      -0.327   1.854 -21.241  0.00  0.00    +0.340 C 
ATOM     14  O   UNL     1       0.357   1.383 -20.241  0.00  0.00    -0.245 OA
ATOM     15  C   UNL     1       0.141   2.694 -24.544  0.00  0.00    +0.169 A 
ENDROOT
BRANCH   1  17
ATOM     16  C   UNL     1       2.053   1.613 -26.697  0.00  0.00    +0.277 C 
ATOM     17  O   UNL     1       1.975   2.592 -25.845  0.00  0.00    -0.489 OA
ENDBRANCH   1  17
BRANCH  10  18
ATOM     18  O   UNL     1      -4.104   2.714 -20.790  0.00  0.00    -0.385 OA
ATOM     19  H   UNL     1      -3.568   2.107 -20.255  0.00  0.00    +0.210 HD
ENDBRANCH  10  18
BRANCH   9  20
ATOM     20  O   UNL     1      -5.471   3.656 -22.792  0.00  0.00    -0.386 OA
ATOM     21  H   UNL     1      -5.609   4.063 -21.922  0.00  0.00    +0.210 HD
ENDBRANCH   9  20
BRANCH  15  22
ATOM     22  O   UNL     1      -0.543   3.165 -25.545  0.00  0.00    -0.503 OA
ATOM     23  H   UNL     1      -0.531   4.084 -25.729  0.00  0.00    +0.292 HD
ENDBRANCH  15  22
BRANCH   2  24
ATOM     24  O   UNL     1       3.342   1.650 -23.844  0.00  0.00    -0.503 OA
ATOM     25  H   UNL     1       3.988   2.325 -23.774  0.00  0.00    +0.292 HD
ENDBRANCH   2  24
BRANCH   8  26
ATOM     26  C   UNL     1      -4.320   4.025 -25.093  0.00  0.00    +0.190 C 
BRANCH  26  27
ATOM     27  O   UNL     1      -4.553   5.301 -25.177  0.00  0.00    -0.392 OA
ATOM     28  H   UNL     1      -3.908   5.784 -24.638  0.00  0.00    +0.210 HD
ENDBRANCH  26  27
ENDBRANCH   8  26
TORSDOF 7
ENDMDL
MODEL 7
REMARK VINA RESULT:    -7.779      2.909      6.484
REMARK INTER + INTRA:          -9.779
REMARK INTER:                  -9.840
REMARK INTRA:                   0.062
REMARK UNBOUND:                 0.046
REMARK  Name = ZINC000003871711
REMARK  8 active torsions:
REMARK  status: ('A' for Active; 'I' for Inactive)
REMARK    1  A    between atoms: C_1  and  O_2
REMARK    2  A    between atoms: O_2  and  C_3
REMARK    3  A    between atoms: C_4  and  O_5
REMARK    4  A    between atoms: C_9  and  O_10
REMARK    5  A    between atoms: C_13  and  C_14
REMARK    6  A    between atoms: C_14  and  O_15
REMARK    7  A    between atoms: C_16  and  O_17
REMARK    8  A    between atoms: C_18  and  O_19
REMARK                            x       y       z     vdW  Elec       q    Type
REMARK                         _______ _______ _______ _____ _____    ______ ____
ROOT
ATOM      1  C   UNL     1       5.244   3.868 -22.767  0.00  0.00    +0.203 A 
ATOM      2  C   UNL     1       5.869   2.892 -22.179  0.00  0.00    +0.163 A 
ATOM      3  C   UNL     1       5.199   1.888 -21.697  0.00  0.00    +0.064 A 
ATOM      4  C   UNL     1       3.904   1.860 -21.804  0.00  0.00    +0.072 A 
ATOM      5  C   UNL     1       3.278   2.835 -22.392  0.00  0.00    +0.044 A 
ATOM      6  C   UNL     1       1.983   2.807 -22.498  0.00  0.00    +0.196 C 
ATOM      7  O   UNL     1       1.358   3.783 -23.087  0.00  0.00    -0.360 OA
ATOM      8  C   UNL     1       0.062   3.755 -23.193  0.00  0.00    +0.175 C 
ATOM      9  C   UNL     1      -0.608   2.751 -22.712  0.00  0.00    +0.178 C 
ATOM     10  C   UNL     1       0.018   1.775 -22.123  0.00  0.00    +0.189 C 
ATOM     11  C   UNL     1       1.313   1.803 -22.017  0.00  0.00    +0.241 C 
ATOM     12  O   UNL     1       1.938   0.826 -21.428  0.00  0.00    -0.452 OA
ATOM     13  C   UNL     1       3.234   0.855 -21.321  0.00  0.00    +0.340 C 
ATOM     14  O   UNL     1       3.859  -0.121 -20.733  0.00  0.00    -0.245 OA
ATOM     15  C   UNL     1       3.948   3.839 -22.874  0.00  0.00    +0.169 A 
ENDROOT
BRANCH   1  17
ATOM     16  C   UNL     1       6.277   5.846 -22.468  0.00  0.00    +0.277 C 
ATOM     17  O   UNL     1       5.914   4.872 -23.249  0.00  0.00    -0.489 OA
ENDBRANCH   1  17
BRANCH  10  18
ATOM     18  O   UNL     1      -0.652   0.770 -21.641  0.00  0.00    -0.385 OA
ATOM     19  H   UNL     1      -0.373   0.605 -20.727  0.00  0.00    +0.210 HD
ENDBRANCH  10  18
BRANCH   9  20
ATOM     20  O   UNL     1      -1.903   2.723 -22.818  0.00  0.00    -0.386 OA
ATOM     21  H   UNL     1      -2.150   2.252 -23.629  0.00  0.00    +0.210 HD
ENDBRANCH   9  20
BRANCH  15  22
ATOM     22  O   UNL     1       3.323   4.816 -23.463  0.00  0.00    -0.503 OA
ATOM     23  H   UNL     1       2.650   4.632 -24.088  0.00  0.00    +0.292 HD
ENDBRANCH  15  22
BRANCH   2  24
ATOM     24  O   UNL     1       7.164   2.920 -22.072  0.00  0.00    -0.503 OA
ATOM     25  H   UNL     1       7.654   3.600 -22.491  0.00  0.00    +0.292 HD
ENDBRANCH   2  24
BRANCH   8  26
ATOM     26  C   UNL     1      -0.563   4.731 -23.782  0.00  0.00    +0.190 C 
BRANCH  26  27
ATOM     27  O   UNL     1      -0.336   5.960 -23.422  0.00  0.00    -0.392 OA
ATOM     28  H   UNL     1       0.011   5.972 -22.516  0.00  0.00    +0.210 HD
ENDBRANCH  26  27
ENDBRANCH   8  26
TORSDOF 7
ENDMDL
MODEL 8
REMARK VINA RESULT:    -7.581      3.718      5.540
REMARK INTER + INTRA:          -9.529
REMARK INTER:                  -9.439
REMARK INTRA:                  -0.091
REMARK UNBOUND:                 0.046
REMARK  Name = ZINC000003871711
REMARK  8 active torsions:
REMARK  status: ('A' for Active; 'I' for Inactive)
REMARK    1  A    between atoms: C_1  and  O_2
REMARK    2  A    between atoms: O_2  and  C_3
REMARK    3  A    between atoms: C_4  and  O_5
REMARK    4  A    between atoms: C_9  and  O_10
REMARK    5  A    between atoms: C_13  and  C_14
REMARK    6  A    between atoms: C_14  and  O_15
REMARK    7  A    between atoms: C_16  and  O_17
REMARK    8  A    between atoms: C_18  and  O_19
REMARK                            x       y       z     vdW  Elec       q    Type
REMARK                         _______ _______ _______ _____ _____    ______ ____
ROOT
ATOM      1  C   UNL     1       0.730   4.457 -23.904  0.00  0.00    +0.203 A 
ATOM      2  C   UNL     1       0.418   3.304 -24.416  0.00  0.00    +0.163 A 
ATOM      3  C   UNL     1       1.332   2.391 -24.565  0.00  0.00    +0.064 A 
ATOM      4  C   UNL     1       2.556   2.631 -24.201  0.00  0.00    +0.072 A 
ATOM      5  C   UNL     1       2.868   3.785 -23.689  0.00  0.00    +0.044 A 
ATOM      6  C   UNL     1       4.093   4.025 -23.326  0.00  0.00    +0.196 C 
ATOM      7  O   UNL     1       4.404   5.178 -22.813  0.00  0.00    -0.360 OA
ATOM      8  C   UNL     1       5.629   5.419 -22.450  0.00  0.00    +0.175 C 
ATOM      9  C   UNL     1       6.542   4.506 -22.599  0.00  0.00    +0.178 C 
ATOM     10  C   UNL     1       6.231   3.353 -23.111  0.00  0.00    +0.189 C 
ATOM     11  C   UNL     1       5.006   3.112 -23.474  0.00  0.00    +0.241 C 
ATOM     12  O   UNL     1       4.695   1.958 -23.987  0.00  0.00    -0.452 OA
ATOM     13  C   UNL     1       3.470   1.718 -24.351  0.00  0.00    +0.340 C 
ATOM     14  O   UNL     1       3.158   0.565 -24.863  0.00  0.00    -0.245 OA
ATOM     15  C   UNL     1       1.955   4.697 -23.540  0.00  0.00    +0.169 A 
ENDROOT
BRANCH   1  17
ATOM     16  C   UNL     1      -0.999   5.315 -22.743  0.00  0.00    +0.277 C 
ATOM     17  O   UNL     1      -0.184   5.370 -23.754  0.00  0.00    -0.489 OA
ENDBRANCH   1  17
BRANCH  10  18
ATOM     18  O   UNL     1       7.144   2.439 -23.260  0.00  0.00    -0.385 OA
ATOM     19  H   UNL     1       7.598   2.572 -24.108  0.00  0.00    +0.210 HD
ENDBRANCH  10  18
BRANCH   9  20
ATOM     20  O   UNL     1       7.767   4.747 -22.235  0.00  0.00    -0.386 OA
ATOM     21  H   UNL     1       7.768   5.381 -21.502  0.00  0.00    +0.210 HD
ENDBRANCH   9  20
BRANCH  15  22
ATOM     22  O   UNL     1       2.266   5.851 -23.027  0.00  0.00    -0.503 OA
ATOM     23  H   UNL     1       2.159   6.633 -23.533  0.00  0.00    +0.292 HD
ENDBRANCH  15  22
BRANCH   2  24
ATOM     24  O   UNL     1      -0.806   3.063 -24.779  0.00  0.00    -0.503 OA
ATOM     25  H   UNL     1      -1.482   3.685 -24.591  0.00  0.00    +0.292 HD
ENDBRANCH   2  24
BRANCH   8  26
ATOM     26  C   UNL     1       5.941   6.572 -21.937  0.00  0.00    +0.190 C 
BRANCH  26  27
ATOM     27  O   UNL     1       6.103   6.690 -20.652  0.00  0.00    -0.392 OA
ATOM     28  H   UNL     1       6.899   7.215 -20.474  0.00  0.00    +0.210 HD
ENDBRANCH  26  27
ENDBRANCH   8  26
TORSDOF 7
ENDMDL
MODEL 9
REMARK VINA RESULT:    -7.475      1.580      5.898
REMARK INTER + INTRA:          -9.395
REMARK INTER:                  -9.441
REMARK INTRA:                   0.046
REMARK UNBOUND:                 0.046
REMARK  Name = ZINC000003871711
REMARK  8 active torsions:
REMARK  status: ('A' for Active; 'I' for Inactive)
REMARK    1  A    between atoms: C_1  and  O_2
REMARK    2  A    between atoms: O_2  and  C_3
REMARK    3  A    between atoms: C_4  and  O_5
REMARK    4  A    between atoms: C_9  and  O_10
REMARK    5  A    between atoms: C_13  and  C_14
REMARK    6  A    between atoms: C_14  and  O_15
REMARK    7  A    between atoms: C_16  and  O_17
REMARK    8  A    between atoms: C_18  and  O_19
REMARK                            x       y       z     vdW  Elec       q    Type
REMARK                         _______ _______ _______ _____ _____    ______ ____
ROOT
ATOM      1  C   UNL     1       0.811   2.985 -23.847  0.00  0.00    +0.203 A 
ATOM      2  C   UNL     1       0.869   3.130 -25.138  0.00  0.00    +0.163 A 
ATOM      3  C   UNL     1      -0.220   3.318 -25.820  0.00  0.00    +0.064 A 
ATOM      4  C   UNL     1      -1.369   3.361 -25.213  0.00  0.00    +0.072 A 
ATOM      5  C   UNL     1      -1.427   3.216 -23.922  0.00  0.00    +0.044 A 
ATOM      6  C   UNL     1      -2.576   3.259 -23.314  0.00  0.00    +0.196 C 
ATOM      7  O   UNL     1      -2.634   3.115 -22.024  0.00  0.00    -0.360 OA
ATOM      8  C   UNL     1      -3.783   3.158 -21.416  0.00  0.00    +0.175 C 
ATOM      9  C   UNL     1      -4.873   3.345 -22.099  0.00  0.00    +0.178 C 
ATOM     10  C   UNL     1      -4.814   3.490 -23.389  0.00  0.00    +0.189 C 
ATOM     11  C   UNL     1      -3.666   3.447 -23.997  0.00  0.00    +0.241 C 
ATOM     12  O   UNL     1      -3.608   3.592 -25.288  0.00  0.00    -0.452 OA
ATOM     13  C   UNL     1      -2.459   3.549 -25.896  0.00  0.00    +0.340 C 
ATOM     14  O   UNL     1      -2.401   3.694 -27.186  0.00  0.00    -0.245 OA
ATOM     15  C   UNL     1      -0.338   3.028 -23.239  0.00  0.00    +0.169 A 
ENDROOT
BRANCH   1  17
ATOM     16  C   UNL     1       2.319   1.589 -22.926  0.00  0.00    +0.277 C 
ATOM     17  O   UNL     1       1.901   2.797 -23.164  0.00  0.00    -0.489 OA
ENDBRANCH   1  17
BRANCH  10  18
ATOM     18  O   UNL     1      -5.904   3.678 -24.073  0.00  0.00    -0.385 OA
ATOM     19  H   UNL     1      -5.679   4.020 -24.952  0.00  0.00    +0.210 HD
ENDBRANCH  10  18
BRANCH   9  20
ATOM     20  O   UNL     1      -6.021   3.389 -21.491  0.00  0.00    -0.386 OA
ATOM     21  H   UNL     1      -6.711   3.647 -22.122  0.00  0.00    +0.210 HD
ENDBRANCH   9  20
BRANCH  15  22
ATOM     22  O   UNL     1      -0.396   2.883 -21.948  0.00  0.00    -0.503 OA
ATOM     23  H   UNL     1      -0.714   2.083 -21.580  0.00  0.00    +0.292 HD
ENDBRANCH  15  22
BRANCH   2  24
ATOM     24  O   UNL     1       2.018   3.087 -25.745  0.00  0.00    -0.503 OA
ATOM     25  H   UNL     1       2.812   3.125 -25.249  0.00  0.00    +0.292 HD
ENDBRANCH   2  24
BRANCH   8  26
ATOM     26  C   UNL     1      -3.841   3.013 -20.126  0.00  0.00    +0.190 C 
BRANCH  26  27
ATOM     27  O   UNL     1      -3.139   3.787 -19.352  0.00  0.00    -0.392 OA
ATOM     28  H   UNL     1      -3.713   4.169 -18.670  0.00  0.00    +0.210 HD
ENDBRANCH  26  27
ENDBRANCH   8  26
TORSDOF 7
ENDMDL
