MODEL 1
REMARK VINA RESULT:   -11.316      0.000      0.000
REMARK INTER + INTRA:         -12.529
REMARK INTER:                 -12.536
REMARK INTRA:                   0.006
REMARK UNBOUND:                 0.110
REMARK  Name = C/C=C1\[C@@H]2CCN3CC[C@@]4(C(=C2C(=O)OC)Nc2ccccc24)[C@@H]13          ZINC000141196469
REMARK  4 active torsions:
REMARK  status: ('A' for Active; 'I' for Inactive)
REMARK    1  A    between atoms: C_1  and  C_2
REMARK    2  A    between atoms: C_12  and  C_13
REMARK    3  A    between atoms: C_13  and  O_15
REMARK    4  A    between atoms: O_15  and  C_16
REMARK                            x       y       z     vdW  Elec       q    Type
REMARK                         _______ _______ _______ _____ _____    ______ ____
ROOT
ATOM      1  C   UNL     1      -0.192   2.383 -23.008  0.00  0.00    +0.035 C 
ATOM      2  C   UNL     1      -0.619   2.579 -23.262  0.00  0.00    -0.025 C 
ATOM      3  C   UNL     1       0.013   2.620 -23.740  0.00  0.00    -0.017 C 
ATOM      4  C   UNL     1       0.882   2.380 -23.635  0.00  0.00    +0.064 C 
ATOM      5  C   UNL     1       1.571   2.678 -24.813  0.00  0.00    +0.064 C 
ATOM      6  C   UNL     1       0.673   3.273 -25.817  0.00  0.00    +0.133 C 
ATOM      7  N   UNL     1      -0.640   3.387 -25.334  0.00  0.00    +0.241 N 
ATOM      8  H   UNL     1      -0.567   3.740 -26.289  0.00  0.00    +0.204 HD
ATOM      9  C   UNL     1      -1.930   3.763 -25.543  0.00  0.00    +0.133 C 
ATOM     10  C   UNL     1      -2.591   3.450 -24.346  0.00  0.00    +0.074 C 
ATOM     11  C   UNL     1      -1.610   2.911 -23.533  0.00  0.00    +0.087 C 
ATOM     12  C   UNL     1      -1.055   2.271 -22.208  0.00  0.00    +0.035 C 
ATOM     13  N   UNL     1      -2.110   2.185 -21.364  0.00  0.00    -0.316 N 
ATOM     14  H   UNL     1      -2.086   1.825 -20.447  0.00  0.00    +0.152 HD
ATOM     15  C   UNL     1      -3.271   2.710 -22.033  0.00  0.00    +0.035 A 
ATOM     16  C   UNL     1      -4.559   2.838 -21.602  0.00  0.00    +0.023 A 
ATOM     17  C   UNL     1      -5.517   3.377 -22.427  0.00  0.00    +0.002 A 
ATOM     18  C   UNL     1      -5.180   3.791 -23.694  0.00  0.00    +0.000 A 
ATOM     19  C   UNL     1      -3.889   3.670 -24.145  0.00  0.00    +0.006 A 
ATOM     20  C   UNL     1      -2.930   3.136 -23.334  0.00  0.00    -0.009 A 
ATOM     21  C   UNL     1       0.623   1.959 -22.394  0.00  0.00    +0.062 C 
ATOM     22  C   UNL     1      -0.666   2.948 -24.186  0.00  0.00    +0.108 C 
ENDROOT
BRANCH  21  23
ATOM     23  C   UNL     1       1.321   1.392 -21.345  0.00  0.00    +0.337 C 
ATOM     24  O   UNL     1       0.690   1.399 -20.123  0.00  0.00    -0.245 OA
BRANCH  23  25
ATOM     25  O   UNL     1       2.520   0.855 -21.410  0.00  0.00    -0.465 OA
ATOM     26  C   UNL     1       3.592   1.716 -21.261  0.00  0.00    +0.280 C 
ENDBRANCH  23  25
ENDBRANCH  21  23
TORSDOF 2
ENDMDL
MODEL 2
REMARK VINA RESULT:   -10.787      2.627      5.701
REMARK INTER + INTRA:         -11.938
REMARK INTER:                 -11.595
REMARK INTRA:                  -0.343
REMARK UNBOUND:                 0.110
REMARK  Name = C/C=C1\[C@@H]2CCN3CC[C@@]4(C(=C2C(=O)OC)Nc2ccccc24)[C@@H]13          ZINC000141196469
REMARK  4 active torsions:
REMARK  status: ('A' for Active; 'I' for Inactive)
REMARK    1  A    between atoms: C_1  and  C_2
REMARK    2  A    between atoms: C_12  and  C_13
REMARK    3  A    between atoms: C_13  and  O_15
REMARK    4  A    between atoms: O_15  and  C_16
REMARK                            x       y       z     vdW  Elec       q    Type
REMARK                         _______ _______ _______ _____ _____    ______ ____
ROOT
ATOM      1  C   UNL     1      -2.258   3.055 -23.815  0.00  0.00    +0.035 C 
ATOM      2  C   UNL     1      -1.823   2.889 -23.553  0.00  0.00    -0.025 C 
ATOM      3  C   UNL     1      -2.445   2.880 -23.062  0.00  0.00    -0.017 C 
ATOM      4  C   UNL     1      -3.321   3.096 -23.170  0.00  0.00    +0.064 C 
ATOM      5  C   UNL     1      -3.984   2.889 -21.959  0.00  0.00    +0.064 C 
ATOM      6  C   UNL     1      -3.058   2.397 -20.924  0.00  0.00    +0.133 C 
ATOM      7  N   UNL     1      -1.752   2.263 -21.420  0.00  0.00    +0.241 N 
ATOM      8  H   UNL     1      -1.802   1.992 -20.437  0.00  0.00    +0.204 HD
ATOM      9  C   UNL     1      -0.452   1.926 -21.204  0.00  0.00    +0.133 C 
ATOM     10  C   UNL     1       0.183   2.145 -22.436  0.00  0.00    +0.074 C 
ATOM     11  C   UNL     1      -0.822   2.597 -23.273  0.00  0.00    +0.087 C 
ATOM     12  C   UNL     1      -1.411   3.112 -24.638  0.00  0.00    +0.035 C 
ATOM     13  N   UNL     1      -0.373   3.141 -25.506  0.00  0.00    -0.316 N 
ATOM     14  H   UNL     1      -0.419   3.420 -26.450  0.00  0.00    +0.152 HD
ATOM     15  C   UNL     1       0.809   2.694 -24.817  0.00  0.00    +0.035 A 
ATOM     16  C   UNL     1       2.091   2.549 -25.258  0.00  0.00    +0.023 A 
ATOM     17  C   UNL     1       3.073   2.098 -24.409  0.00  0.00    +0.002 A 
ATOM     18  C   UNL     1       2.765   1.790 -23.105  0.00  0.00    +0.000 A 
ATOM     19  C   UNL     1       1.480   1.929 -22.641  0.00  0.00    +0.006 A 
ATOM     20  C   UNL     1       0.498   2.376 -23.477  0.00  0.00    -0.009 A 
ATOM     21  C   UNL     1      -3.090   3.412 -24.447  0.00  0.00    +0.062 C 
ATOM     22  C   UNL     1      -1.754   2.602 -22.602  0.00  0.00    +0.108 C 
ENDROOT
BRANCH  21  23
ATOM     23  C   UNL     1      -3.816   3.875 -25.528  0.00  0.00    +0.337 C 
ATOM     24  O   UNL     1      -4.251   5.178 -25.453  0.00  0.00    -0.245 OA
BRANCH  23  25
ATOM     25  O   UNL     1      -4.124   3.189 -26.608  0.00  0.00    -0.465 OA
ATOM     26  C   UNL     1      -3.369   3.444 -27.737  0.00  0.00    +0.280 C 
ENDBRANCH  23  25
ENDBRANCH  21  23
TORSDOF 2
ENDMDL
MODEL 3
REMARK VINA RESULT:   -10.740      1.632      3.140
REMARK INTER + INTRA:         -11.887
REMARK INTER:                 -11.917
REMARK INTRA:                   0.030
REMARK UNBOUND:                 0.110
REMARK  Name = C/C=C1\[C@@H]2CCN3CC[C@@]4(C(=C2C(=O)OC)Nc2ccccc24)[C@@H]13          ZINC000141196469
REMARK  4 active torsions:
REMARK  status: ('A' for Active; 'I' for Inactive)
REMARK    1  A    between atoms: C_1  and  C_2
REMARK    2  A    between atoms: C_12  and  C_13
REMARK    3  A    between atoms: C_13  and  O_15
REMARK    4  A    between atoms: O_15  and  C_16
REMARK                            x       y       z     vdW  Elec       q    Type
REMARK                         _______ _______ _______ _____ _____    ______ ____
ROOT
ATOM      1  C   UNL     1       0.162   2.448 -23.553  0.00  0.00    +0.035 C 
ATOM      2  C   UNL     1      -0.342   2.517 -23.391  0.00  0.00    -0.025 C 
ATOM      3  C   UNL     1       0.088   2.221 -22.795  0.00  0.00    -0.017 C 
ATOM      4  C   UNL     1       0.962   1.987 -22.720  0.00  0.00    +0.064 C 
ATOM      5  C   UNL     1       1.189   1.514 -21.426  0.00  0.00    +0.064 C 
ATOM      6  C   UNL     1      -0.046   1.550 -20.624  0.00  0.00    +0.133 C 
ATOM      7  N   UNL     1      -1.129   2.050 -21.364  0.00  0.00    +0.241 N 
ATOM      8  H   UNL     1      -1.412   1.810 -20.413  0.00  0.00    +0.204 HD
ATOM      9  C   UNL     1      -2.446   2.384 -21.421  0.00  0.00    +0.133 C 
ATOM     10  C   UNL     1      -2.638   2.854 -22.729  0.00  0.00    +0.074 C 
ATOM     11  C   UNL     1      -1.395   2.749 -23.326  0.00  0.00    +0.087 C 
ATOM     12  C   UNL     1      -0.372   2.887 -24.513  0.00  0.00    +0.035 C 
ATOM     13  N   UNL     1      -1.073   3.392 -25.555  0.00  0.00    -0.316 N 
ATOM     14  H   UNL     1      -0.711   3.595 -26.448  0.00  0.00    +0.152 HD
ATOM     15  C   UNL     1      -2.436   3.584 -25.134  0.00  0.00    +0.035 A 
ATOM     16  C   UNL     1      -3.515   4.064 -25.818  0.00  0.00    +0.023 A 
ATOM     17  C   UNL     1      -4.741   4.159 -25.203  0.00  0.00    +0.002 A 
ATOM     18  C   UNL     1      -4.885   3.770 -23.893  0.00  0.00    +0.000 A 
ATOM     19  C   UNL     1      -3.811   3.284 -23.189  0.00  0.00    +0.006 A 
ATOM     20  C   UNL     1      -2.590   3.185 -23.789  0.00  0.00    -0.009 A 
ATOM     21  C   UNL     1       1.172   2.347 -23.990  0.00  0.00    +0.062 C 
ATOM     22  C   UNL     1      -0.729   2.320 -22.495  0.00  0.00    +0.108 C 
ENDROOT
BRANCH  21  23
ATOM     23  C   UNL     1       2.231   2.380 -24.877  0.00  0.00    +0.337 C 
ATOM     24  O   UNL     1       1.915   2.205 -26.204  0.00  0.00    -0.245 OA
BRANCH  23  25
ATOM     25  O   UNL     1       3.497   2.562 -24.568  0.00  0.00    -0.465 OA
ATOM     26  C   UNL     1       3.770   3.543 -23.634  0.00  0.00    +0.280 C 
ENDBRANCH  23  25
ENDBRANCH  21  23
TORSDOF 2
ENDMDL
MODEL 4
REMARK VINA RESULT:   -10.380      1.818      4.917
REMARK INTER + INTRA:         -11.484
REMARK INTER:                 -11.216
REMARK INTRA:                  -0.268
REMARK UNBOUND:                 0.110
REMARK  Name = C/C=C1\[C@@H]2CCN3CC[C@@]4(C(=C2C(=O)OC)Nc2ccccc24)[C@@H]13          ZINC000141196469
REMARK  4 active torsions:
REMARK  status: ('A' for Active; 'I' for Inactive)
REMARK    1  A    between atoms: C_1  and  C_2
REMARK    2  A    between atoms: C_12  and  C_13
REMARK    3  A    between atoms: C_13  and  O_15
REMARK    4  A    between atoms: O_15  and  C_16
REMARK                            x       y       z     vdW  Elec       q    Type
REMARK                         _______ _______ _______ _____ _____    ______ ____
ROOT
ATOM      1  C   UNL     1      -1.179   2.682 -22.683  0.00  0.00    +0.035 C 
ATOM      2  C   UNL     1      -0.707   2.602 -22.918  0.00  0.00    -0.025 C 
ATOM      3  C   UNL     1      -1.207   2.926 -23.440  0.00  0.00    -0.017 C 
ATOM      4  C   UNL     1      -2.074   3.189 -23.382  0.00  0.00    +0.064 C 
ATOM      5  C   UNL     1      -2.469   3.700 -24.620  0.00  0.00    +0.064 C 
ATOM      6  C   UNL     1      -1.364   3.644 -25.594  0.00  0.00    +0.133 C 
ATOM      7  N   UNL     1      -0.204   3.093 -25.028  0.00  0.00    +0.241 N 
ATOM      8  H   UNL     1      -0.053   3.346 -26.005  0.00  0.00    +0.204 HD
ATOM      9  C   UNL     1       1.094   2.715 -25.168  0.00  0.00    +0.133 C 
ATOM     10  C   UNL     1       1.457   2.208 -23.911  0.00  0.00    +0.074 C 
ATOM     11  C   UNL     1       0.318   2.338 -23.138  0.00  0.00    +0.087 C 
ATOM     12  C   UNL     1      -0.529   2.204 -21.819  0.00  0.00    +0.035 C 
ATOM     13  N   UNL     1       0.297   1.652 -20.900  0.00  0.00    -0.316 N 
ATOM     14  H   UNL     1       0.061   1.439 -19.967  0.00  0.00    +0.152 HD
ATOM     15  C   UNL     1       1.578   1.428 -21.516  0.00  0.00    +0.035 A 
ATOM     16  C   UNL     1       2.727   0.897 -21.006  0.00  0.00    +0.023 A 
ATOM     17  C   UNL     1       3.847   0.778 -21.793  0.00  0.00    +0.002 A 
ATOM     18  C   UNL     1       3.815   1.194 -23.103  0.00  0.00    +0.000 A 
ATOM     19  C   UNL     1       2.668   1.730 -23.634  0.00  0.00    +0.006 A 
ATOM     20  C   UNL     1       1.551   1.853 -22.862  0.00  0.00    -0.009 A 
ATOM     21  C   UNL     1      -2.112   2.805 -22.103  0.00  0.00    +0.062 C 
ATOM     22  C   UNL     1      -0.446   2.808 -23.856  0.00  0.00    +0.108 C 
ENDROOT
BRANCH  21  23
ATOM     23  C   UNL     1      -3.032   2.784 -21.073  0.00  0.00    +0.337 C 
ATOM     24  O   UNL     1      -2.774   3.620 -20.012  0.00  0.00    -0.245 OA
BRANCH  23  25
ATOM     25  O   UNL     1      -4.120   2.046 -21.018  0.00  0.00    -0.465 OA
ATOM     26  C   UNL     1      -5.286   2.629 -21.478  0.00  0.00    +0.280 C 
ENDBRANCH  23  25
ENDBRANCH  21  23
TORSDOF 2
ENDMDL
MODEL 5
REMARK VINA RESULT:    -9.464      2.848      4.602
REMARK INTER + INTRA:         -10.461
REMARK INTER:                 -10.261
REMARK INTRA:                  -0.200
REMARK UNBOUND:                 0.110
REMARK  Name = C/C=C1\[C@@H]2CCN3CC[C@@]4(C(=C2C(=O)OC)Nc2ccccc24)[C@@H]13          ZINC000141196469
REMARK  4 active torsions:
REMARK  status: ('A' for Active; 'I' for Inactive)
REMARK    1  A    between atoms: C_1  and  C_2
REMARK    2  A    between atoms: C_12  and  C_13
REMARK    3  A    between atoms: C_13  and  O_15
REMARK    4  A    between atoms: O_15  and  C_16
REMARK                            x       y       z     vdW  Elec       q    Type
REMARK                         _______ _______ _______ _____ _____    ______ ____
ROOT
ATOM      1  C   UNL     1       3.414   3.286 -22.659  0.00  0.00    +0.035 C 
ATOM      2  C   UNL     1       2.917   3.093 -22.628  0.00  0.00    -0.025 C 
ATOM      3  C   UNL     1       3.429   2.536 -22.394  0.00  0.00    -0.017 C 
ATOM      4  C   UNL     1       4.334   2.521 -22.321  0.00  0.00    +0.064 C 
ATOM      5  C   UNL     1       4.723   1.265 -21.850  0.00  0.00    +0.064 C 
ATOM      6  C   UNL     1       3.554   0.396 -21.630  0.00  0.00    +0.133 C 
ATOM      7  N   UNL     1       2.355   1.051 -21.949  0.00  0.00    +0.241 N 
ATOM      8  H   UNL     1       2.179   0.099 -21.627  0.00  0.00    +0.204 HD
ATOM      9  C   UNL     1       0.998   1.021 -22.039  0.00  0.00    +0.133 C 
ATOM     10  C   UNL     1       0.643   2.292 -22.514  0.00  0.00    +0.074 C 
ATOM     11  C   UNL     1       1.845   2.961 -22.660  0.00  0.00    +0.087 C 
ATOM     12  C   UNL     1       2.751   4.193 -23.028  0.00  0.00    +0.035 C 
ATOM     13  N   UNL     1       1.907   5.170 -23.435  0.00  0.00    -0.316 N 
ATOM     14  H   UNL     1       2.170   6.071 -23.733  0.00  0.00    +0.152 HD
ATOM     15  C   UNL     1       0.560   4.667 -23.357  0.00  0.00    +0.035 A 
ATOM     16  C   UNL     1      -0.628   5.267 -23.657  0.00  0.00    +0.023 A 
ATOM     17  C   UNL     1      -1.810   4.584 -23.503  0.00  0.00    +0.002 A 
ATOM     18  C   UNL     1      -1.801   3.288 -23.045  0.00  0.00    +0.000 A 
ATOM     19  C   UNL     1      -0.614   2.667 -22.739  0.00  0.00    +0.006 A 
ATOM     20  C   UNL     1       0.565   3.337 -22.888  0.00  0.00    -0.009 A 
ATOM     21  C   UNL     1       4.396   3.781 -22.761  0.00  0.00    +0.062 C 
ATOM     22  C   UNL     1       2.628   2.188 -22.330  0.00  0.00    +0.108 C 
ENDROOT
BRANCH  21  23
ATOM     23  C   UNL     1       5.375   4.721 -23.020  0.00  0.00    +0.337 C 
ATOM     24  O   UNL     1       5.294   5.893 -22.305  0.00  0.00    -0.245 OA
BRANCH  23  25
ATOM     25  O   UNL     1       6.363   4.597 -23.880  0.00  0.00    -0.465 OA
ATOM     26  C   UNL     1       7.474   3.898 -23.446  0.00  0.00    +0.280 C 
ENDBRANCH  23  25
ENDBRANCH  21  23
TORSDOF 2
ENDMDL
MODEL 6
REMARK VINA RESULT:    -9.135      1.475      3.552
REMARK INTER + INTRA:         -10.094
REMARK INTER:                 -10.135
REMARK INTRA:                   0.041
REMARK UNBOUND:                 0.110
REMARK  Name = C/C=C1\[C@@H]2CCN3CC[C@@]4(C(=C2C(=O)OC)Nc2ccccc24)[C@@H]13          ZINC000141196469
REMARK  4 active torsions:
REMARK  status: ('A' for Active; 'I' for Inactive)
REMARK    1  A    between atoms: C_1  and  C_2
REMARK    2  A    between atoms: C_12  and  C_13
REMARK    3  A    between atoms: C_13  and  O_15
REMARK    4  A    between atoms: O_15  and  C_16
REMARK                            x       y       z     vdW  Elec       q    Type
REMARK                         _______ _______ _______ _____ _____    ______ ____
ROOT
ATOM      1  C   UNL     1      -1.939   2.785 -22.274  0.00  0.00    +0.035 C 
ATOM      2  C   UNL     1      -2.358   2.929 -22.572  0.00  0.00    -0.025 C 
ATOM      3  C   UNL     1      -2.565   2.934 -21.807  0.00  0.00    -0.017 C 
ATOM      4  C   UNL     1      -2.111   2.746 -21.043  0.00  0.00    +0.064 C 
ATOM      5  C   UNL     1      -2.972   2.919 -19.958  0.00  0.00    +0.064 C 
ATOM      6  C   UNL     1      -4.311   3.343 -20.405  0.00  0.00    +0.133 C 
ATOM      7  N   UNL     1      -4.376   3.462 -21.802  0.00  0.00    +0.241 N 
ATOM      8  H   UNL     1      -5.271   3.693 -21.370  0.00  0.00    +0.204 HD
ATOM      9  C   UNL     1      -5.101   3.755 -22.914  0.00  0.00    +0.133 C 
ATOM     10  C   UNL     1      -4.209   3.572 -23.981  0.00  0.00    +0.074 C 
ATOM     11  C   UNL     1      -3.024   3.182 -23.385  0.00  0.00    +0.087 C 
ATOM     12  C   UNL     1      -1.514   2.741 -23.377  0.00  0.00    +0.035 C 
ATOM     13  N   UNL     1      -1.123   2.721 -24.673  0.00  0.00    -0.316 N 
ATOM     14  H   UNL     1      -0.226   2.482 -25.000  0.00  0.00    +0.152 HD
ATOM     15  C   UNL     1      -2.243   3.107 -25.490  0.00  0.00    +0.035 A 
ATOM     16  C   UNL     1      -2.349   3.236 -26.844  0.00  0.00    +0.023 A 
ATOM     17  C   UNL     1      -3.538   3.624 -27.415  0.00  0.00    +0.002 A 
ATOM     18  C   UNL     1      -4.629   3.885 -26.621  0.00  0.00    +0.000 A 
ATOM     19  C   UNL     1      -4.542   3.761 -25.256  0.00  0.00    +0.006 A 
ATOM     20  C   UNL     1      -3.367   3.376 -24.680  0.00  0.00    -0.009 A 
ATOM     21  C   UNL     1      -1.013   2.477 -21.756  0.00  0.00    +0.062 C 
ATOM     22  C   UNL     1      -3.273   3.174 -22.263  0.00  0.00    +0.108 C 
ENDROOT
BRANCH  21  23
ATOM     23  C   UNL     1       0.287   2.080 -21.511  0.00  0.00    +0.337 C 
ATOM     24  O   UNL     1       0.493   1.355 -20.360  0.00  0.00    -0.245 OA
BRANCH  23  25
ATOM     25  O   UNL     1       1.332   2.330 -22.271  0.00  0.00    -0.465 OA
ATOM     26  C   UNL     1       2.548   1.845 -21.828  0.00  0.00    +0.280 C 
ENDBRANCH  23  25
ENDBRANCH  21  23
TORSDOF 2
ENDMDL
MODEL 7
REMARK VINA RESULT:    -9.052      3.842      6.735
REMARK INTER + INTRA:         -10.001
REMARK INTER:                  -9.905
REMARK INTRA:                  -0.096
REMARK UNBOUND:                 0.110
REMARK  Name = C/C=C1\[C@@H]2CCN3CC[C@@]4(C(=C2C(=O)OC)Nc2ccccc24)[C@@H]13          ZINC000141196469
REMARK  4 active torsions:
REMARK  status: ('A' for Active; 'I' for Inactive)
REMARK    1  A    between atoms: C_1  and  C_2
REMARK    2  A    between atoms: C_12  and  C_13
REMARK    3  A    between atoms: C_13  and  O_15
REMARK    4  A    between atoms: O_15  and  C_16
REMARK                            x       y       z     vdW  Elec       q    Type
REMARK                         _______ _______ _______ _____ _____    ______ ____
ROOT
ATOM      1  C   UNL     1       2.363   3.995 -23.636  0.00  0.00    +0.035 C 
ATOM      2  C   UNL     1       2.885   4.046 -23.536  0.00  0.00    -0.025 C 
ATOM      3  C   UNL     1       2.744   3.327 -23.838  0.00  0.00    -0.017 C 
ATOM      4  C   UNL     1       1.986   2.911 -24.116  0.00  0.00    +0.064 C 
ATOM      5  C   UNL     1       2.318   1.631 -24.564  0.00  0.00    +0.064 C 
ATOM      6  C   UNL     1       3.765   1.383 -24.439  0.00  0.00    +0.133 C 
ATOM      7  N   UNL     1       4.435   2.494 -23.904  0.00  0.00    +0.241 N 
ATOM      8  H   UNL     1       5.084   1.732 -24.101  0.00  0.00    +0.204 HD
ATOM      9  C   UNL     1       5.600   3.069 -23.501  0.00  0.00    +0.133 C 
ATOM     10  C   UNL     1       5.232   4.349 -23.059  0.00  0.00    +0.074 C 
ATOM     11  C   UNL     1       3.862   4.405 -23.247  0.00  0.00    +0.087 C 
ATOM     12  C   UNL     1       2.447   5.090 -23.196  0.00  0.00    +0.035 C 
ATOM     13  N   UNL     1       2.648   6.326 -22.683  0.00  0.00    -0.316 N 
ATOM     14  H   UNL     1       1.951   7.005 -22.526  0.00  0.00    +0.152 HD
ATOM     15  C   UNL     1       4.052   6.481 -22.408  0.00  0.00    +0.035 A 
ATOM     16  C   UNL     1       4.743   7.538 -21.891  0.00  0.00    +0.023 A 
ATOM     17  C   UNL     1       6.103   7.459 -21.713  0.00  0.00    +0.002 A 
ATOM     18  C   UNL     1       6.777   6.312 -22.057  0.00  0.00    +0.000 A 
ATOM     19  C   UNL     1       6.099   5.237 -22.580  0.00  0.00    +0.006 A 
ATOM     20  C   UNL     1       4.749   5.305 -22.760  0.00  0.00    -0.009 A 
ATOM     21  C   UNL     1       1.271   3.996 -23.803  0.00  0.00    +0.062 C 
ATOM     22  C   UNL     1       3.605   3.375 -23.687  0.00  0.00    +0.108 C 
ENDROOT
BRANCH  21  23
ATOM     23  C   UNL     1      -0.052   4.391 -23.851  0.00  0.00    +0.337 C 
ATOM     24  O   UNL     1      -0.485   5.186 -22.816  0.00  0.00    -0.245 OA
BRANCH  23  25
ATOM     25  O   UNL     1      -0.922   4.078 -24.787  0.00  0.00    -0.465 OA
ATOM     26  C   UNL     1      -1.761   3.012 -24.519  0.00  0.00    +0.280 C 
ENDBRANCH  23  25
ENDBRANCH  21  23
TORSDOF 2
ENDMDL
MODEL 8
REMARK VINA RESULT:    -8.819      4.467      6.357
REMARK INTER + INTRA:          -9.740
REMARK INTER:                  -9.355
REMARK INTRA:                  -0.385
REMARK UNBOUND:                 0.110
REMARK  Name = C/C=C1\[C@@H]2CCN3CC[C@@]4(C(=C2C(=O)OC)Nc2ccccc24)[C@@H]13          ZINC000141196469
REMARK  4 active torsions:
REMARK  status: ('A' for Active; 'I' for Inactive)
REMARK    1  A    between atoms: C_1  and  C_2
REMARK    2  A    between atoms: C_12  and  C_13
REMARK    3  A    between atoms: C_13  and  O_15
REMARK    4  A    between atoms: O_15  and  C_16
REMARK                            x       y       z     vdW  Elec       q    Type
REMARK                         _______ _______ _______ _____ _____    ______ ____
ROOT
ATOM      1  C   UNL     1       4.981   5.180 -22.691  0.00  0.00    +0.035 C 
ATOM      2  C   UNL     1       4.682   4.795 -22.909  0.00  0.00    -0.025 C 
ATOM      3  C   UNL     1       5.433   4.548 -22.861  0.00  0.00    -0.017 C 
ATOM      4  C   UNL     1       6.192   4.937 -22.549  0.00  0.00    +0.064 C 
ATOM      5  C   UNL     1       7.251   4.039 -22.707  0.00  0.00    +0.064 C 
ATOM      6  C   UNL     1       6.792   2.780 -23.318  0.00  0.00    +0.133 C 
ATOM      7  N   UNL     1       5.414   2.806 -23.583  0.00  0.00    +0.241 N 
ATOM      8  H   UNL     1       5.826   1.917 -23.867  0.00  0.00    +0.204 HD
ATOM      9  C   UNL     1       4.307   2.178 -24.063  0.00  0.00    +0.133 C 
ATOM     10  C   UNL     1       3.267   3.103 -23.889  0.00  0.00    +0.074 C 
ATOM     11  C   UNL     1       3.871   4.206 -23.314  0.00  0.00    +0.087 C 
ATOM     12  C   UNL     1       3.900   5.658 -22.709  0.00  0.00    +0.035 C 
ATOM     13  N   UNL     1       2.627   6.115 -22.775  0.00  0.00    -0.316 N 
ATOM     14  H   UNL     1       2.316   7.000 -22.473  0.00  0.00    +0.152 HD
ATOM     15  C   UNL     1       1.806   5.090 -23.362  0.00  0.00    +0.035 A 
ATOM     16  C   UNL     1       0.469   5.073 -23.636  0.00  0.00    +0.023 A 
ATOM     17  C   UNL     1      -0.109   3.966 -24.208  0.00  0.00    +0.002 A 
ATOM     18  C   UNL     1       0.659   2.866 -24.508  0.00  0.00    +0.000 A 
ATOM     19  C   UNL     1       2.006   2.864 -24.240  0.00  0.00    +0.006 A 
ATOM     20  C   UNL     1       2.590   3.958 -23.672  0.00  0.00    -0.009 A 
ATOM     21  C   UNL     1       5.505   6.038 -22.232  0.00  0.00    +0.062 C 
ATOM     22  C   UNL     1       4.974   3.896 -23.221  0.00  0.00    +0.108 C 
ENDROOT
BRANCH  21  23
ATOM     23  C   UNL     1       5.764   7.273 -21.671  0.00  0.00    +0.337 C 
ATOM     24  O   UNL     1       5.717   7.337 -20.298  0.00  0.00    -0.245 OA
BRANCH  23  25
ATOM     25  O   UNL     1       6.047   8.379 -22.325  0.00  0.00    -0.465 OA
ATOM     26  C   UNL     1       5.088   9.375 -22.300  0.00  0.00    +0.280 C 
ENDBRANCH  23  25
ENDBRANCH  21  23
TORSDOF 2
ENDMDL
MODEL 9
REMARK VINA RESULT:    -8.714      2.559      6.286
REMARK INTER + INTRA:          -9.623
REMARK INTER:                  -9.733
REMARK INTRA:                   0.110
REMARK UNBOUND:                 0.110
REMARK  Name = C/C=C1\[C@@H]2CCN3CC[C@@]4(C(=C2C(=O)OC)Nc2ccccc24)[C@@H]13          ZINC000141196469
REMARK  4 active torsions:
REMARK  status: ('A' for Active; 'I' for Inactive)
REMARK    1  A    between atoms: C_1  and  C_2
REMARK    2  A    between atoms: C_12  and  C_13
REMARK    3  A    between atoms: C_13  and  O_15
REMARK    4  A    between atoms: O_15  and  C_16
REMARK                            x       y       z     vdW  Elec       q    Type
REMARK                         _______ _______ _______ _____ _____    ______ ____
ROOT
ATOM      1  C   UNL     1       0.801   2.678 -23.280  0.00  0.00    +0.035 C 
ATOM      2  C   UNL     1       1.184   2.537 -22.936  0.00  0.00    -0.025 C 
ATOM      3  C   UNL     1       0.481   2.300 -22.657  0.00  0.00    -0.017 C 
ATOM      4  C   UNL     1      -0.366   2.371 -22.976  0.00  0.00    +0.064 C 
ATOM      5  C   UNL     1      -1.237   1.769 -22.065  0.00  0.00    +0.064 C 
ATOM      6  C   UNL     1      -0.505   1.228 -20.908  0.00  0.00    +0.133 C 
ATOM      7  N   UNL     1       0.876   1.455 -21.017  0.00  0.00    +0.241 N 
ATOM      8  H   UNL     1       0.652   0.958 -20.155  0.00  0.00    +0.204 HD
ATOM      9  C   UNL     1       2.124   1.322 -20.494  0.00  0.00    +0.133 C 
ATOM     10  C   UNL     1       2.971   1.934 -21.430  0.00  0.00    +0.074 C 
ATOM     11  C   UNL     1       2.126   2.377 -22.432  0.00  0.00    +0.087 C 
ATOM     12  C   UNL     1       1.785   3.079 -23.797  0.00  0.00    +0.035 C 
ATOM     13  N   UNL     1       2.967   3.499 -24.307  0.00  0.00    -0.316 N 
ATOM     14  H   UNL     1       3.089   3.978 -25.159  0.00  0.00    +0.152 HD
ATOM     15  C   UNL     1       4.013   3.128 -23.392  0.00  0.00    +0.035 A 
ATOM     16  C   UNL     1       5.361   3.328 -23.459  0.00  0.00    +0.023 A 
ATOM     17  C   UNL     1       6.182   2.880 -22.452  0.00  0.00    +0.002 A 
ATOM     18  C   UNL     1       5.646   2.225 -21.368  0.00  0.00    +0.000 A 
ATOM     19  C   UNL     1       4.292   2.014 -21.283  0.00  0.00    +0.006 A 
ATOM     20  C   UNL     1       3.468   2.455 -22.277  0.00  0.00    -0.009 A 
ATOM     21  C   UNL     1       0.089   3.013 -24.055  0.00  0.00    +0.062 C 
ATOM     22  C   UNL     1       1.084   2.054 -22.071  0.00  0.00    +0.108 C 
ENDROOT
BRANCH  21  23
ATOM     23  C   UNL     1      -0.438   3.574 -25.203  0.00  0.00    +0.337 C 
ATOM     24  O   UNL     1       0.455   4.215 -26.030  0.00  0.00    -0.245 OA
BRANCH  23  25
ATOM     25  O   UNL     1      -1.701   3.550 -25.570  0.00  0.00    -0.465 OA
ATOM     26  C   UNL     1      -2.589   4.249 -24.774  0.00  0.00    +0.280 C 
ENDBRANCH  23  25
ENDBRANCH  21  23
TORSDOF 2
ENDMDL
