MODEL 1
REMARK VINA RESULT:    -7.949      0.000      0.000
REMARK INTER + INTRA:         -10.643
REMARK INTER:                  -9.717
REMARK INTRA:                  -0.926
REMARK UNBOUND:                -0.836
REMARK  Name = ZINC000000117559
REMARK  5 active torsions:
REMARK  status: ('A' for Active; 'I' for Inactive)
REMARK    1  A    between atoms: C_2  and  C_3
REMARK    2  A    between atoms: C_2  and  C_10
REMARK    3  A    between atoms: C_3  and  C_4
REMARK    4  A    between atoms: C_13  and  O_14
REMARK    5  A    between atoms: C_16  and  O_17
REMARK                            x       y       z     vdW  Elec       q    Type
REMARK                         _______ _______ _______ _____ _____    ______ ____
ROOT
ATOM      1  C   UNL     1       0.297   3.834 -23.818  0.00  0.00    +0.059 A 
ATOM      2  C   UNL     1       1.060   4.883 -23.727  0.00  0.00    +0.018 A 
ATOM      3  C   UNL     1       2.264   4.771 -23.251  0.00  0.00    +0.046 A 
ATOM      4  C   UNL     1       2.706   3.609 -22.866  0.00  0.00    +0.120 A 
ATOM      5  C   UNL     1       1.943   2.562 -22.957  0.00  0.00    +0.091 A 
ATOM      6  C   UNL     1       0.739   2.674 -23.434  0.00  0.00    +0.131 A 
ENDROOT
BRANCH   1   8
ATOM      7  O   UNL     1      -1.222   3.360 -25.412  0.00  0.00    -0.292 OA
ATOM      8  C   UNL     1      -0.908   3.946 -24.295  0.00  0.00    +0.171 C 
BRANCH   8   9
ATOM      9  C   UNL     1      -1.798   4.643 -23.653  0.00  0.00    +0.114 C 
BRANCH   9  10
ATOM     10  C   UNL     1      -2.558   4.070 -22.768  0.00  0.00    -0.040 A 
ATOM     11  C   UNL     1      -3.701   3.563 -23.124  0.00  0.00    +0.004 A 
ATOM     12  C   UNL     1      -4.462   2.990 -22.239  0.00  0.00    +0.000 A 
ATOM     13  C   UNL     1      -4.079   2.924 -20.998  0.00  0.00    +0.000 A 
ATOM     14  C   UNL     1      -2.935   3.431 -20.643  0.00  0.00    +0.000 A 
ATOM     15  C   UNL     1      -2.175   4.004 -21.528  0.00  0.00    +0.004 A 
ENDBRANCH   9  10
ENDBRANCH   8   9
ENDBRANCH   1   8
BRANCH   4  16
ATOM     16  O   UNL     1       3.911   3.498 -22.390  0.00  0.00    -0.507 OA
ATOM     17  H   UNL     1       4.596   4.047 -22.716  0.00  0.00    +0.292 HD
ENDBRANCH   4  16
BRANCH   6  18
ATOM     18  O   UNL     1      -0.025   1.625 -23.525  0.00  0.00    -0.506 OA
ATOM     19  H   UNL     1      -0.261   1.149 -22.754  0.00  0.00    +0.292 HD
ENDBRANCH   6  18
TORSDOF 5
ENDMDL
MODEL 2
REMARK VINA RESULT:    -7.790      1.166      2.022
REMARK INTER + INTRA:         -10.447
REMARK INTER:                  -9.576
REMARK INTRA:                  -0.870
REMARK UNBOUND:                -0.836
REMARK  Name = ZINC000000117559
REMARK  5 active torsions:
REMARK  status: ('A' for Active; 'I' for Inactive)
REMARK    1  A    between atoms: C_2  and  C_3
REMARK    2  A    between atoms: C_2  and  C_10
REMARK    3  A    between atoms: C_3  and  C_4
REMARK    4  A    between atoms: C_13  and  O_14
REMARK    5  A    between atoms: C_16  and  O_17
REMARK                            x       y       z     vdW  Elec       q    Type
REMARK                         _______ _______ _______ _____ _____    ______ ____
ROOT
ATOM      1  C   UNL     1       0.606   3.597 -23.848  0.00  0.00    +0.059 A 
ATOM      2  C   UNL     1       1.601   2.759 -23.843  0.00  0.00    +0.018 A 
ATOM      3  C   UNL     1       2.790   3.166 -23.513  0.00  0.00    +0.046 A 
ATOM      4  C   UNL     1       2.986   4.410 -23.188  0.00  0.00    +0.120 A 
ATOM      5  C   UNL     1       1.992   5.247 -23.194  0.00  0.00    +0.091 A 
ATOM      6  C   UNL     1       0.802   4.840 -23.524  0.00  0.00    +0.131 A 
ENDROOT
BRANCH   1   8
ATOM      7  O   UNL     1      -1.137   3.621 -25.274  0.00  0.00    -0.292 OA
ATOM      8  C   UNL     1      -0.584   3.191 -24.179  0.00  0.00    +0.171 C 
BRANCH   8   9
ATOM      9  C   UNL     1      -1.221   2.355 -23.413  0.00  0.00    +0.114 C 
BRANCH   9  10
ATOM     10  C   UNL     1      -2.163   2.782 -22.627  0.00  0.00    -0.040 A 
ATOM     11  C   UNL     1      -1.916   2.981 -21.366  0.00  0.00    +0.004 A 
ATOM     12  C   UNL     1      -2.859   3.409 -20.578  0.00  0.00    +0.000 A 
ATOM     13  C   UNL     1      -4.047   3.638 -21.052  0.00  0.00    +0.000 A 
ATOM     14  C   UNL     1      -4.294   3.439 -22.314  0.00  0.00    +0.000 A 
ATOM     15  C   UNL     1      -3.352   3.011 -23.100  0.00  0.00    +0.004 A 
ENDBRANCH   9  10
ENDBRANCH   8   9
ENDBRANCH   1   8
BRANCH   4  16
ATOM     16  O   UNL     1       4.176   4.815 -22.858  0.00  0.00    -0.507 OA
ATOM     17  H   UNL     1       4.844   4.891 -23.511  0.00  0.00    +0.292 HD
ENDBRANCH   4  16
BRANCH   6  18
ATOM     18  O   UNL     1      -0.193   5.678 -23.530  0.00  0.00    -0.506 OA
ATOM     19  H   UNL     1      -0.743   5.756 -22.777  0.00  0.00    +0.292 HD
ENDBRANCH   6  18
TORSDOF 5
ENDMDL
MODEL 3
REMARK VINA RESULT:    -7.702      1.894      5.603
REMARK INTER + INTRA:         -10.338
REMARK INTER:                  -9.666
REMARK INTRA:                  -0.672
REMARK UNBOUND:                -0.836
REMARK  Name = ZINC000000117559
REMARK  5 active torsions:
REMARK  status: ('A' for Active; 'I' for Inactive)
REMARK    1  A    between atoms: C_2  and  C_3
REMARK    2  A    between atoms: C_2  and  C_10
REMARK    3  A    between atoms: C_3  and  C_4
REMARK    4  A    between atoms: C_13  and  O_14
REMARK    5  A    between atoms: C_16  and  O_17
REMARK                            x       y       z     vdW  Elec       q    Type
REMARK                         _______ _______ _______ _____ _____    ______ ____
ROOT
ATOM      1  C   UNL     1      -2.936   3.886 -23.716  0.00  0.00    +0.059 A 
ATOM      2  C   UNL     1      -2.998   3.282 -22.567  0.00  0.00    +0.018 A 
ATOM      3  C   UNL     1      -4.153   3.037 -22.023  0.00  0.00    +0.046 A 
ATOM      4  C   UNL     1      -5.246   3.397 -22.628  0.00  0.00    +0.120 A 
ATOM      5  C   UNL     1      -5.184   4.001 -23.777  0.00  0.00    +0.091 A 
ATOM      6  C   UNL     1      -4.029   4.246 -24.321  0.00  0.00    +0.131 A 
ENDROOT
BRANCH   1   8
ATOM      7  O   UNL     1      -1.517   3.686 -25.453  0.00  0.00    -0.292 OA
ATOM      8  C   UNL     1      -1.781   4.131 -24.261  0.00  0.00    +0.171 C 
BRANCH   8   9
ATOM      9  C   UNL     1      -0.891   4.822 -23.613  0.00  0.00    +0.114 C 
BRANCH   9  10
ATOM     10  C   UNL     1       0.304   4.341 -23.437  0.00  0.00    -0.040 A 
ATOM     11  C   UNL     1       1.344   5.046 -23.768  0.00  0.00    +0.004 A 
ATOM     12  C   UNL     1       2.539   4.565 -23.593  0.00  0.00    +0.000 A 
ATOM     13  C   UNL     1       2.693   3.378 -23.085  0.00  0.00    +0.000 A 
ATOM     14  C   UNL     1       1.652   2.672 -22.754  0.00  0.00    +0.000 A 
ATOM     15  C   UNL     1       0.458   3.154 -22.930  0.00  0.00    +0.004 A 
ENDBRANCH   9  10
ENDBRANCH   8   9
ENDBRANCH   1   8
BRANCH   4  16
ATOM     16  O   UNL     1      -6.401   3.152 -22.083  0.00  0.00    -0.507 OA
ATOM     17  H   UNL     1      -7.188   3.441 -22.500  0.00  0.00    +0.292 HD
ENDBRANCH   4  16
BRANCH   6  18
ATOM     18  O   UNL     1      -3.967   4.850 -25.471  0.00  0.00    -0.506 OA
ATOM     19  H   UNL     1      -4.398   5.673 -25.591  0.00  0.00    +0.292 HD
ENDBRANCH   6  18
TORSDOF 5
ENDMDL
MODEL 4
REMARK VINA RESULT:    -7.687      1.734      2.404
REMARK INTER + INTRA:         -10.320
REMARK INTER:                  -9.651
REMARK INTRA:                  -0.669
REMARK UNBOUND:                -0.836
REMARK  Name = ZINC000000117559
REMARK  5 active torsions:
REMARK  status: ('A' for Active; 'I' for Inactive)
REMARK    1  A    between atoms: C_2  and  C_3
REMARK    2  A    between atoms: C_2  and  C_10
REMARK    3  A    between atoms: C_3  and  C_4
REMARK    4  A    between atoms: C_13  and  O_14
REMARK    5  A    between atoms: C_16  and  O_17
REMARK                            x       y       z     vdW  Elec       q    Type
REMARK                         _______ _______ _______ _____ _____    ______ ____
ROOT
ATOM      1  C   UNL     1       0.474   2.867 -23.417  0.00  0.00    +0.059 A 
ATOM      2  C   UNL     1       1.280   2.246 -22.608  0.00  0.00    +0.018 A 
ATOM      3  C   UNL     1       2.378   1.721 -23.062  0.00  0.00    +0.046 A 
ATOM      4  C   UNL     1       2.671   1.817 -24.326  0.00  0.00    +0.120 A 
ATOM      5  C   UNL     1       1.865   2.438 -25.134  0.00  0.00    +0.091 A 
ATOM      6  C   UNL     1       0.767   2.963 -24.680  0.00  0.00    +0.131 A 
ENDROOT
BRANCH   1   8
ATOM      7  O   UNL     1      -0.739   4.684 -22.871  0.00  0.00    -0.292 OA
ATOM      8  C   UNL     1      -0.626   3.393 -22.963  0.00  0.00    +0.171 C 
BRANCH   8   9
ATOM      9  C   UNL     1      -1.611   2.626 -22.602  0.00  0.00    +0.114 C 
BRANCH   9  10
ATOM     10  C   UNL     1      -2.838   3.000 -22.815  0.00  0.00    -0.040 A 
ATOM     11  C   UNL     1      -3.683   3.048 -21.828  0.00  0.00    +0.004 A 
ATOM     12  C   UNL     1      -4.910   3.422 -22.041  0.00  0.00    +0.000 A 
ATOM     13  C   UNL     1      -5.291   3.749 -23.240  0.00  0.00    +0.000 A 
ATOM     14  C   UNL     1      -4.445   3.701 -24.227  0.00  0.00    +0.000 A 
ATOM     15  C   UNL     1      -3.219   3.327 -24.014  0.00  0.00    +0.004 A 
ENDBRANCH   9  10
ENDBRANCH   8   9
ENDBRANCH   1   8
BRANCH   4  16
ATOM     16  O   UNL     1       3.771   1.291 -24.779  0.00  0.00    -0.507 OA
ATOM     17  H   UNL     1       4.466   1.075 -24.189  0.00  0.00    +0.292 HD
ENDBRANCH   4  16
BRANCH   6  18
ATOM     18  O   UNL     1      -0.040   3.584 -25.489  0.00  0.00    -0.506 OA
ATOM     19  H   UNL     1       0.303   4.049 -26.226  0.00  0.00    +0.292 HD
ENDBRANCH   6  18
TORSDOF 5
ENDMDL
MODEL 5
REMARK VINA RESULT:    -7.203      2.194      5.564
REMARK INTER + INTRA:          -9.723
REMARK INTER:                  -8.887
REMARK INTRA:                  -0.836
REMARK UNBOUND:                -0.836
REMARK  Name = ZINC000000117559
REMARK  5 active torsions:
REMARK  status: ('A' for Active; 'I' for Inactive)
REMARK    1  A    between atoms: C_2  and  C_3
REMARK    2  A    between atoms: C_2  and  C_10
REMARK    3  A    between atoms: C_3  and  C_4
REMARK    4  A    between atoms: C_13  and  O_14
REMARK    5  A    between atoms: C_16  and  O_17
REMARK                            x       y       z     vdW  Elec       q    Type
REMARK                         _______ _______ _______ _____ _____    ______ ____
ROOT
ATOM      1  C   UNL     1      -2.701   3.762 -22.745  0.00  0.00    +0.059 A 
ATOM      2  C   UNL     1      -3.549   3.879 -23.723  0.00  0.00    +0.018 A 
ATOM      3  C   UNL     1      -4.813   3.660 -23.516  0.00  0.00    +0.046 A 
ATOM      4  C   UNL     1      -5.230   3.324 -22.330  0.00  0.00    +0.120 A 
ATOM      5  C   UNL     1      -4.381   3.208 -21.353  0.00  0.00    +0.091 A 
ATOM      6  C   UNL     1      -3.117   3.426 -21.560  0.00  0.00    +0.131 A 
ENDROOT
BRANCH   1   8
ATOM      7  O   UNL     1      -0.885   5.075 -22.516  0.00  0.00    -0.292 OA
ATOM      8  C   UNL     1      -1.436   3.981 -22.952  0.00  0.00    +0.171 C 
BRANCH   8   9
ATOM      9  C   UNL     1      -0.722   3.105 -23.596  0.00  0.00    +0.114 C 
BRANCH   9  10
ATOM     10  C   UNL     1       0.411   2.702 -23.103  0.00  0.00    -0.040 A 
ATOM     11  C   UNL     1       0.426   1.828 -22.141  0.00  0.00    +0.004 A 
ATOM     12  C   UNL     1       1.559   1.423 -21.647  0.00  0.00    +0.000 A 
ATOM     13  C   UNL     1       2.677   1.894 -22.116  0.00  0.00    +0.000 A 
ATOM     14  C   UNL     1       2.661   2.769 -23.078  0.00  0.00    +0.000 A 
ATOM     15  C   UNL     1       1.529   3.172 -23.571  0.00  0.00    +0.004 A 
ENDBRANCH   9  10
ENDBRANCH   8   9
ENDBRANCH   1   8
BRANCH   4  16
ATOM     16  O   UNL     1      -6.494   3.106 -22.124  0.00  0.00    -0.507 OA
ATOM     17  H   UNL     1      -7.069   2.958 -22.849  0.00  0.00    +0.292 HD
ENDBRANCH   4  16
BRANCH   6  18
ATOM     18  O   UNL     1      -2.267   3.309 -20.582  0.00  0.00    -0.506 OA
ATOM     19  H   UNL     1      -1.915   2.469 -20.366  0.00  0.00    +0.292 HD
ENDBRANCH   6  18
TORSDOF 5
ENDMDL
MODEL 6
REMARK VINA RESULT:    -7.161      2.299      3.774
REMARK INTER + INTRA:          -9.671
REMARK INTER:                  -8.880
REMARK INTRA:                  -0.791
REMARK UNBOUND:                -0.836
REMARK  Name = ZINC000000117559
REMARK  5 active torsions:
REMARK  status: ('A' for Active; 'I' for Inactive)
REMARK    1  A    between atoms: C_2  and  C_3
REMARK    2  A    between atoms: C_2  and  C_10
REMARK    3  A    between atoms: C_3  and  C_4
REMARK    4  A    between atoms: C_13  and  O_14
REMARK    5  A    between atoms: C_16  and  O_17
REMARK                            x       y       z     vdW  Elec       q    Type
REMARK                         _______ _______ _______ _____ _____    ______ ____
ROOT
ATOM      1  C   UNL     1       2.962   1.643 -22.592  0.00  0.00    +0.059 A 
ATOM      2  C   UNL     1       2.601   1.138 -21.450  0.00  0.00    +0.018 A 
ATOM      3  C   UNL     1       3.481   0.554 -20.692  0.00  0.00    +0.046 A 
ATOM      4  C   UNL     1       4.721   0.476 -21.076  0.00  0.00    +0.120 A 
ATOM      5  C   UNL     1       5.081   0.981 -22.217  0.00  0.00    +0.091 A 
ATOM      6  C   UNL     1       4.201   1.565 -22.976  0.00  0.00    +0.131 A 
ENDROOT
BRANCH   1   8
ATOM      7  O   UNL     1       1.709   1.667 -24.463  0.00  0.00    -0.292 OA
ATOM      8  C   UNL     1       2.082   2.227 -23.351  0.00  0.00    +0.171 C 
BRANCH   8   9
ATOM      9  C   UNL     1       1.577   3.372 -22.998  0.00  0.00    +0.114 C 
BRANCH   9  10
ATOM     10  C   UNL     1       0.288   3.543 -23.006  0.00  0.00    -0.040 A 
ATOM     11  C   UNL     1      -0.474   2.777 -22.284  0.00  0.00    +0.004 A 
ATOM     12  C   UNL     1      -1.763   2.948 -22.291  0.00  0.00    +0.000 A 
ATOM     13  C   UNL     1      -2.289   3.886 -23.022  0.00  0.00    +0.000 A 
ATOM     14  C   UNL     1      -1.526   4.652 -23.745  0.00  0.00    +0.000 A 
ATOM     15  C   UNL     1      -0.238   4.481 -23.737  0.00  0.00    +0.004 A 
ENDBRANCH   9  10
ENDBRANCH   8   9
ENDBRANCH   1   8
BRANCH   4  16
ATOM     16  O   UNL     1       5.600  -0.109 -20.316  0.00  0.00    -0.507 OA
ATOM     17  H   UNL     1       5.653  -1.044 -20.293  0.00  0.00    +0.292 HD
ENDBRANCH   4  16
BRANCH   6  18
ATOM     18  O   UNL     1       4.562   2.071 -24.118  0.00  0.00    -0.506 OA
ATOM     19  H   UNL     1       4.619   3.000 -24.222  0.00  0.00    +0.292 HD
ENDBRANCH   6  18
TORSDOF 5
ENDMDL
MODEL 7
REMARK VINA RESULT:    -7.047      1.579      2.249
REMARK INTER + INTRA:          -9.530
REMARK INTER:                  -8.727
REMARK INTRA:                  -0.803
REMARK UNBOUND:                -0.836
REMARK  Name = ZINC000000117559
REMARK  5 active torsions:
REMARK  status: ('A' for Active; 'I' for Inactive)
REMARK    1  A    between atoms: C_2  and  C_3
REMARK    2  A    between atoms: C_2  and  C_10
REMARK    3  A    between atoms: C_3  and  C_4
REMARK    4  A    between atoms: C_13  and  O_14
REMARK    5  A    between atoms: C_16  and  O_17
REMARK                            x       y       z     vdW  Elec       q    Type
REMARK                         _______ _______ _______ _____ _____    ______ ____
ROOT
ATOM      1  C   UNL     1       0.518   2.596 -23.162  0.00  0.00    +0.059 A 
ATOM      2  C   UNL     1       0.910   3.248 -24.216  0.00  0.00    +0.018 A 
ATOM      3  C   UNL     1       2.177   3.326 -24.497  0.00  0.00    +0.046 A 
ATOM      4  C   UNL     1       3.051   2.752 -23.724  0.00  0.00    +0.120 A 
ATOM      5  C   UNL     1       2.659   2.100 -22.671  0.00  0.00    +0.091 A 
ATOM      6  C   UNL     1       1.392   2.022 -22.390  0.00  0.00    +0.131 A 
ENDROOT
BRANCH   1   8
ATOM      7  O   UNL     1      -1.323   1.354 -22.786  0.00  0.00    -0.292 OA
ATOM      8  C   UNL     1      -0.749   2.517 -22.880  0.00  0.00    +0.171 C 
BRANCH   8   9
ATOM      9  C   UNL     1      -1.442   3.601 -22.694  0.00  0.00    +0.114 C 
BRANCH   9  10
ATOM     10  C   UNL     1      -2.591   3.748 -23.283  0.00  0.00    -0.040 A 
ATOM     11  C   UNL     1      -3.691   3.535 -22.624  0.00  0.00    +0.004 A 
ATOM     12  C   UNL     1      -4.841   3.682 -23.213  0.00  0.00    +0.000 A 
ATOM     13  C   UNL     1      -4.890   4.042 -24.461  0.00  0.00    +0.000 A 
ATOM     14  C   UNL     1      -3.789   4.254 -25.120  0.00  0.00    +0.000 A 
ATOM     15  C   UNL     1      -2.640   4.108 -24.531  0.00  0.00    +0.004 A 
ENDBRANCH   9  10
ENDBRANCH   8   9
ENDBRANCH   1   8
BRANCH   4  16
ATOM     16  O   UNL     1       4.318   2.831 -24.007  0.00  0.00    -0.507 OA
ATOM     17  H   UNL     1       4.671   3.623 -24.360  0.00  0.00    +0.292 HD
ENDBRANCH   4  16
BRANCH   6  18
ATOM     18  O   UNL     1       0.999   1.369 -21.336  0.00  0.00    -0.506 OA
ATOM     19  H   UNL     1       0.087   1.314 -21.133  0.00  0.00    +0.292 HD
ENDBRANCH   6  18
TORSDOF 5
ENDMDL
MODEL 8
REMARK VINA RESULT:    -6.848      2.298      5.599
REMARK INTER + INTRA:          -9.285
REMARK INTER:                  -8.380
REMARK INTRA:                  -0.906
REMARK UNBOUND:                -0.836
REMARK  Name = ZINC000000117559
REMARK  5 active torsions:
REMARK  status: ('A' for Active; 'I' for Inactive)
REMARK    1  A    between atoms: C_2  and  C_3
REMARK    2  A    between atoms: C_2  and  C_10
REMARK    3  A    between atoms: C_3  and  C_4
REMARK    4  A    between atoms: C_13  and  O_14
REMARK    5  A    between atoms: C_16  and  O_17
REMARK                            x       y       z     vdW  Elec       q    Type
REMARK                         _______ _______ _______ _____ _____    ______ ____
ROOT
ATOM      1  C   UNL     1       0.136   2.925 -22.879  0.00  0.00    +0.059 A 
ATOM      2  C   UNL     1      -0.267   4.161 -22.898  0.00  0.00    +0.018 A 
ATOM      3  C   UNL     1      -1.444   4.467 -22.441  0.00  0.00    +0.046 A 
ATOM      4  C   UNL     1      -2.219   3.537 -21.964  0.00  0.00    +0.120 A 
ATOM      5  C   UNL     1      -1.816   2.302 -21.945  0.00  0.00    +0.091 A 
ATOM      6  C   UNL     1      -0.638   1.996 -22.403  0.00  0.00    +0.131 A 
ENDROOT
BRANCH   1   8
ATOM      7  O   UNL     1       1.425   1.879 -24.401  0.00  0.00    -0.292 OA
ATOM      8  C   UNL     1       1.314   2.618 -23.337  0.00  0.00    +0.171 C 
BRANCH   8   9
ATOM      9  C   UNL     1       2.379   3.050 -22.731  0.00  0.00    +0.114 C 
BRANCH   9  10
ATOM     10  C   UNL     1       3.228   2.205 -22.226  0.00  0.00    -0.040 A 
ATOM     11  C   UNL     1       4.433   2.129 -22.708  0.00  0.00    +0.004 A 
ATOM     12  C   UNL     1       5.282   1.283 -22.203  0.00  0.00    +0.000 A 
ATOM     13  C   UNL     1       4.926   0.514 -21.217  0.00  0.00    +0.000 A 
ATOM     14  C   UNL     1       3.720   0.590 -20.736  0.00  0.00    +0.000 A 
ATOM     15  C   UNL     1       2.871   1.436 -21.241  0.00  0.00    +0.004 A 
ENDBRANCH   9  10
ENDBRANCH   8   9
ENDBRANCH   1   8
BRANCH   4  16
ATOM     16  O   UNL     1      -3.396   3.845 -21.506  0.00  0.00    -0.507 OA
ATOM     17  H   UNL     1      -3.722   3.430 -20.732  0.00  0.00    +0.292 HD
ENDBRANCH   4  16
BRANCH   6  18
ATOM     18  O   UNL     1      -0.235   0.760 -22.384  0.00  0.00    -0.506 OA
ATOM     19  H   UNL     1      -0.160   0.279 -23.184  0.00  0.00    +0.292 HD
ENDBRANCH   6  18
TORSDOF 5
ENDMDL
MODEL 9
REMARK VINA RESULT:    -6.658      2.102      5.703
REMARK INTER + INTRA:          -9.050
REMARK INTER:                  -8.214
REMARK INTRA:                  -0.836
REMARK UNBOUND:                -0.836
REMARK  Name = ZINC000000117559
REMARK  5 active torsions:
REMARK  status: ('A' for Active; 'I' for Inactive)
REMARK    1  A    between atoms: C_2  and  C_3
REMARK    2  A    between atoms: C_2  and  C_10
REMARK    3  A    between atoms: C_3  and  C_4
REMARK    4  A    between atoms: C_13  and  O_14
REMARK    5  A    between atoms: C_16  and  O_17
REMARK                            x       y       z     vdW  Elec       q    Type
REMARK                         _______ _______ _______ _____ _____    ______ ____
ROOT
ATOM      1  C   UNL     1       0.178   2.715 -23.852  0.00  0.00    +0.059 A 
ATOM      2  C   UNL     1      -0.570   2.357 -22.852  0.00  0.00    +0.018 A 
ATOM      3  C   UNL     1      -1.837   2.648 -22.851  0.00  0.00    +0.046 A 
ATOM      4  C   UNL     1      -2.356   3.298 -23.851  0.00  0.00    +0.120 A 
ATOM      5  C   UNL     1      -1.607   3.656 -24.851  0.00  0.00    +0.091 A 
ATOM      6  C   UNL     1      -0.341   3.365 -24.852  0.00  0.00    +0.131 A 
ENDROOT
BRANCH   1   8
ATOM      7  O   UNL     1       1.931   1.641 -24.770  0.00  0.00    -0.292 OA
ATOM      8  C   UNL     1       1.445   2.424 -23.854  0.00  0.00    +0.171 C 
BRANCH   8   9
ATOM      9  C   UNL     1       2.226   2.916 -22.939  0.00  0.00    +0.114 C 
BRANCH   9  10
ATOM     10  C   UNL     1       3.106   2.156 -22.357  0.00  0.00    -0.040 A 
ATOM     11  C   UNL     1       2.720   1.229 -21.533  0.00  0.00    +0.004 A 
ATOM     12  C   UNL     1       3.600   0.468 -20.951  0.00  0.00    +0.000 A 
ATOM     13  C   UNL     1       4.866   0.636 -21.194  0.00  0.00    +0.000 A 
ATOM     14  C   UNL     1       5.252   1.564 -22.020  0.00  0.00    +0.000 A 
ATOM     15  C   UNL     1       4.372   2.324 -22.601  0.00  0.00    +0.004 A 
ENDBRANCH   9  10
ENDBRANCH   8   9
ENDBRANCH   1   8
BRANCH   4  16
ATOM     16  O   UNL     1      -3.623   3.589 -23.849  0.00  0.00    -0.507 OA
ATOM     17  H   UNL     1      -4.153   3.372 -23.107  0.00  0.00    +0.292 HD
ENDBRANCH   4  16
BRANCH   6  18
ATOM     18  O   UNL     1       0.408   3.723 -25.853  0.00  0.00    -0.506 OA
ATOM     19  H   UNL     1       0.871   3.076 -26.347  0.00  0.00    +0.292 HD
ENDBRANCH   6  18
TORSDOF 5
ENDMDL
