MODEL 1
REMARK VINA RESULT:    -6.736      0.000      0.000
REMARK INTER + INTRA:          -8.135
REMARK INTER:                  -7.911
REMARK INTRA:                  -0.224
REMARK UNBOUND:                -0.217
REMARK  Name = ZINC000000058172
REMARK  4 active torsions:
REMARK  status: ('A' for Active; 'I' for Inactive)
REMARK    1  A    between atoms: C_2  and  C_4
REMARK    2  A    between atoms: C_5  and  C_6
REMARK    3  A    between atoms: C_9  and  O_10
REMARK    4  A    between atoms: C_11  and  O_12
REMARK                            x       y       z     vdW  Elec       q    Type
REMARK                         _______ _______ _______ _____ _____    ______ ____
ROOT
ATOM      1  C   UNL     1      -2.469   2.609 -21.776  0.00  0.00    -0.021 A 
ATOM      2  C   UNL     1      -3.520   2.595 -21.010  0.00  0.00    +0.012 A 
ATOM      3  C   UNL     1      -4.665   3.005 -21.471  0.00  0.00    +0.050 A 
ATOM      4  C   UNL     1      -4.759   3.429 -22.696  0.00  0.00    +0.158 A 
ATOM      5  C   UNL     1      -3.708   3.442 -23.461  0.00  0.00    +0.159 A 
ATOM      6  C   UNL     1      -2.563   3.032 -23.002  0.00  0.00    +0.057 A 
ENDROOT
BRANCH   1   8
ATOM      7  C   UNL     1      -0.449   1.677 -22.122  0.00  0.00    +0.025 C 
ATOM      8  C   UNL     1      -1.325   2.199 -21.316  0.00  0.00    +0.010 C 
BRANCH   7  10
ATOM      9  O   UNL     1       0.946   1.336 -20.388  0.00  0.00    -0.545 OA
ATOM     10  C   UNL     1       0.695   1.267 -21.662  0.00  0.00    +0.065 C 
ATOM     11  O   UNL     1       1.590   0.789 -22.475  0.00  0.00    -0.545 OA
ENDBRANCH   7  10
ENDBRANCH   1   8
BRANCH   5  12
ATOM     12  O   UNL     1      -3.802   3.865 -24.687  0.00  0.00    -0.503 OA
ATOM     13  H   UNL     1      -4.337   4.608 -24.886  0.00  0.00    +0.292 HD
ENDBRANCH   5  12
BRANCH   4  14
ATOM     14  O   UNL     1      -5.903   3.839 -23.156  0.00  0.00    -0.503 OA
ATOM     15  H   UNL     1      -6.373   4.514 -22.708  0.00  0.00    +0.292 HD
ENDBRANCH   4  14
TORSDOF 4
ENDMDL
MODEL 2
REMARK VINA RESULT:    -6.484      1.032      2.216
REMARK INTER + INTRA:          -7.838
REMARK INTER:                  -7.608
REMARK INTRA:                  -0.230
REMARK UNBOUND:                -0.217
REMARK  Name = ZINC000000058172
REMARK  4 active torsions:
REMARK  status: ('A' for Active; 'I' for Inactive)
REMARK    1  A    between atoms: C_2  and  C_4
REMARK    2  A    between atoms: C_5  and  C_6
REMARK    3  A    between atoms: C_9  and  O_10
REMARK    4  A    between atoms: C_11  and  O_12
REMARK                            x       y       z     vdW  Elec       q    Type
REMARK                         _______ _______ _______ _____ _____    ______ ____
ROOT
ATOM      1  C   UNL     1      -2.323   3.099 -23.038  0.00  0.00    -0.021 A 
ATOM      2  C   UNL     1      -1.937   3.568 -24.187  0.00  0.00    +0.012 A 
ATOM      3  C   UNL     1      -2.803   4.108 -24.993  0.00  0.00    +0.050 A 
ATOM      4  C   UNL     1      -4.054   4.178 -24.650  0.00  0.00    +0.158 A 
ATOM      5  C   UNL     1      -4.440   3.709 -23.500  0.00  0.00    +0.159 A 
ATOM      6  C   UNL     1      -3.575   3.169 -22.695  0.00  0.00    +0.057 A 
ENDROOT
BRANCH   1   8
ATOM      7  C   UNL     1      -0.413   1.951 -22.712  0.00  0.00    +0.025 C 
ATOM      8  C   UNL     1      -1.457   2.559 -22.232  0.00  0.00    +0.010 C 
BRANCH   7  10
ATOM      9  O   UNL     1       1.509   0.825 -22.384  0.00  0.00    -0.545 OA
ATOM     10  C   UNL     1       0.452   1.412 -21.906  0.00  0.00    +0.065 C 
ATOM     11  O   UNL     1       0.261   1.459 -20.621  0.00  0.00    -0.545 OA
ENDBRANCH   7  10
ENDBRANCH   1   8
BRANCH   5  12
ATOM     12  O   UNL     1      -5.693   3.780 -23.157  0.00  0.00    -0.503 OA
ATOM     13  H   UNL     1      -6.090   4.613 -23.004  0.00  0.00    +0.292 HD
ENDBRANCH   5  12
BRANCH   4  14
ATOM     14  O   UNL     1      -4.920   4.718 -25.455  0.00  0.00    -0.503 OA
ATOM     15  H   UNL     1      -5.663   5.171 -25.110  0.00  0.00    +0.292 HD
ENDBRANCH   4  14
TORSDOF 4
ENDMDL
MODEL 3
REMARK VINA RESULT:    -6.332      1.265      5.230
REMARK INTER + INTRA:          -7.660
REMARK INTER:                  -7.443
REMARK INTRA:                  -0.217
REMARK UNBOUND:                -0.217
REMARK  Name = ZINC000000058172
REMARK  4 active torsions:
REMARK  status: ('A' for Active; 'I' for Inactive)
REMARK    1  A    between atoms: C_2  and  C_4
REMARK    2  A    between atoms: C_5  and  C_6
REMARK    3  A    between atoms: C_9  and  O_10
REMARK    4  A    between atoms: C_11  and  O_12
REMARK                            x       y       z     vdW  Elec       q    Type
REMARK                         _______ _______ _______ _____ _____    ______ ____
ROOT
ATOM      1  C   UNL     1      -1.938   2.790 -22.684  0.00  0.00    -0.021 A 
ATOM      2  C   UNL     1      -1.638   2.220 -21.555  0.00  0.00    +0.012 A 
ATOM      3  C   UNL     1      -0.495   1.616 -21.416  0.00  0.00    +0.050 A 
ATOM      4  C   UNL     1       0.347   1.582 -22.406  0.00  0.00    +0.158 A 
ATOM      5  C   UNL     1       0.046   2.152 -23.535  0.00  0.00    +0.159 A 
ATOM      6  C   UNL     1      -1.097   2.756 -23.674  0.00  0.00    +0.057 A 
ENDROOT
BRANCH   1   8
ATOM      7  C   UNL     1      -3.635   3.476 -23.996  0.00  0.00    +0.025 C 
ATOM      8  C   UNL     1      -3.081   3.394 -22.823  0.00  0.00    +0.010 C 
BRANCH   7  10
ATOM      9  O   UNL     1      -5.784   3.750 -23.380  0.00  0.00    -0.545 OA
ATOM     10  C   UNL     1      -4.778   4.080 -24.135  0.00  0.00    +0.065 C 
ATOM     11  O   UNL     1      -4.915   5.014 -25.029  0.00  0.00    -0.545 OA
ENDBRANCH   7  10
ENDBRANCH   1   8
BRANCH   5  12
ATOM     12  O   UNL     1       0.888   2.117 -24.525  0.00  0.00    -0.503 OA
ATOM     13  H   UNL     1       1.157   2.913 -24.939  0.00  0.00    +0.292 HD
ENDBRANCH   5  12
BRANCH   4  14
ATOM     14  O   UNL     1       1.489   0.978 -22.266  0.00  0.00    -0.503 OA
ATOM     15  H   UNL     1       1.519   0.045 -22.180  0.00  0.00    +0.292 HD
ENDBRANCH   4  14
TORSDOF 4
ENDMDL
MODEL 4
REMARK VINA RESULT:    -6.314      2.570      2.840
REMARK INTER + INTRA:          -7.639
REMARK INTER:                  -7.414
REMARK INTRA:                  -0.224
REMARK UNBOUND:                -0.217
REMARK  Name = ZINC000000058172
REMARK  4 active torsions:
REMARK  status: ('A' for Active; 'I' for Inactive)
REMARK    1  A    between atoms: C_2  and  C_4
REMARK    2  A    between atoms: C_5  and  C_6
REMARK    3  A    between atoms: C_9  and  O_10
REMARK    4  A    between atoms: C_11  and  O_12
REMARK                            x       y       z     vdW  Elec       q    Type
REMARK                         _______ _______ _______ _____ _____    ______ ____
ROOT
ATOM      1  C   UNL     1      -2.122   4.145 -23.060  0.00  0.00    -0.021 A 
ATOM      2  C   UNL     1      -2.320   3.802 -21.822  0.00  0.00    +0.012 A 
ATOM      3  C   UNL     1      -3.500   3.415 -21.436  0.00  0.00    +0.050 A 
ATOM      4  C   UNL     1      -4.481   3.372 -22.287  0.00  0.00    +0.158 A 
ATOM      5  C   UNL     1      -4.282   3.716 -23.525  0.00  0.00    +0.159 A 
ATOM      6  C   UNL     1      -3.103   4.102 -23.912  0.00  0.00    +0.057 A 
ENDROOT
BRANCH   1   8
ATOM      7  C   UNL     1      -0.323   3.887 -24.391  0.00  0.00    +0.025 C 
ATOM      8  C   UNL     1      -0.942   4.532 -23.447  0.00  0.00    +0.010 C 
BRANCH   7  10
ATOM      9  O   UNL     1       1.450   5.256 -24.167  0.00  0.00    -0.545 OA
ATOM     10  C   UNL     1       0.856   4.273 -24.777  0.00  0.00    +0.065 C 
ATOM     11  O   UNL     1       1.442   3.677 -25.773  0.00  0.00    -0.545 OA
ENDBRANCH   7  10
ENDBRANCH   1   8
BRANCH   5  12
ATOM     12  O   UNL     1      -5.265   3.673 -24.377  0.00  0.00    -0.503 OA
ATOM     13  H   UNL     1      -5.131   3.305 -25.227  0.00  0.00    +0.292 HD
ENDBRANCH   5  12
BRANCH   4  14
ATOM     14  O   UNL     1      -5.660   2.986 -21.900  0.00  0.00    -0.503 OA
ATOM     15  H   UNL     1      -5.778   2.128 -21.542  0.00  0.00    +0.292 HD
ENDBRANCH   4  14
TORSDOF 4
ENDMDL
MODEL 5
REMARK VINA RESULT:    -6.215      1.111      1.912
REMARK INTER + INTRA:          -7.522
REMARK INTER:                  -7.300
REMARK INTRA:                  -0.222
REMARK UNBOUND:                -0.217
REMARK  Name = ZINC000000058172
REMARK  4 active torsions:
REMARK  status: ('A' for Active; 'I' for Inactive)
REMARK    1  A    between atoms: C_2  and  C_4
REMARK    2  A    between atoms: C_5  and  C_6
REMARK    3  A    between atoms: C_9  and  O_10
REMARK    4  A    between atoms: C_11  and  O_12
REMARK                            x       y       z     vdW  Elec       q    Type
REMARK                         _______ _______ _______ _____ _____    ______ ____
ROOT
ATOM      1  C   UNL     1      -1.890   2.636 -22.746  0.00  0.00    -0.021 A 
ATOM      2  C   UNL     1      -2.412   3.344 -23.704  0.00  0.00    +0.012 A 
ATOM      3  C   UNL     1      -3.652   3.727 -23.627  0.00  0.00    +0.050 A 
ATOM      4  C   UNL     1      -4.370   3.403 -22.593  0.00  0.00    +0.158 A 
ATOM      5  C   UNL     1      -3.847   2.696 -21.635  0.00  0.00    +0.159 A 
ATOM      6  C   UNL     1      -2.608   2.313 -21.712  0.00  0.00    +0.057 A 
ENDROOT
BRANCH   1   8
ATOM      7  C   UNL     1      -0.062   1.742 -21.783  0.00  0.00    +0.025 C 
ATOM      8  C   UNL     1      -0.650   2.253 -22.823  0.00  0.00    +0.010 C 
BRANCH   7  10
ATOM      9  O   UNL     1       1.880   1.206 -20.778  0.00  0.00    -0.545 OA
ATOM     10  C   UNL     1       1.178   1.359 -21.860  0.00  0.00    +0.065 C 
ATOM     11  O   UNL     1       1.716   1.128 -23.022  0.00  0.00    -0.545 OA
ENDBRANCH   7  10
ENDBRANCH   1   8
BRANCH   5  12
ATOM     12  O   UNL     1      -4.565   2.372 -20.600  0.00  0.00    -0.503 OA
ATOM     13  H   UNL     1      -5.495   2.296 -20.681  0.00  0.00    +0.292 HD
ENDBRANCH   5  12
BRANCH   4  14
ATOM     14  O   UNL     1      -5.609   3.787 -22.516  0.00  0.00    -0.503 OA
ATOM     15  H   UNL     1      -6.094   3.651 -21.726  0.00  0.00    +0.292 HD
ENDBRANCH   4  14
TORSDOF 4
ENDMDL
MODEL 6
REMARK VINA RESULT:    -6.161      2.639      3.336
REMARK INTER + INTRA:          -7.459
REMARK INTER:                  -7.231
REMARK INTRA:                  -0.228
REMARK UNBOUND:                -0.217
REMARK  Name = ZINC000000058172
REMARK  4 active torsions:
REMARK  status: ('A' for Active; 'I' for Inactive)
REMARK    1  A    between atoms: C_2  and  C_4
REMARK    2  A    between atoms: C_5  and  C_6
REMARK    3  A    between atoms: C_9  and  O_10
REMARK    4  A    between atoms: C_11  and  O_12
REMARK                            x       y       z     vdW  Elec       q    Type
REMARK                         _______ _______ _______ _____ _____    ______ ____
ROOT
ATOM      1  C   UNL     1      -2.068   4.003 -23.021  0.00  0.00    -0.021 A 
ATOM      2  C   UNL     1      -3.024   3.997 -23.902  0.00  0.00    +0.012 A 
ATOM      3  C   UNL     1      -4.234   3.678 -23.547  0.00  0.00    +0.050 A 
ATOM      4  C   UNL     1      -4.487   3.367 -22.311  0.00  0.00    +0.158 A 
ATOM      5  C   UNL     1      -3.532   3.374 -21.430  0.00  0.00    +0.159 A 
ATOM      6  C   UNL     1      -2.322   3.692 -21.784  0.00  0.00    +0.057 A 
ENDROOT
BRANCH   1   8
ATOM      7  C   UNL     1      -0.385   3.908 -24.514  0.00  0.00    +0.025 C 
ATOM      8  C   UNL     1      -0.859   4.321 -23.376  0.00  0.00    +0.010 C 
BRANCH   7  10
ATOM      9  O   UNL     1       1.419   3.566 -25.817  0.00  0.00    -0.545 OA
ATOM     10  C   UNL     1       0.824   4.226 -24.869  0.00  0.00    +0.065 C 
ATOM     11  O   UNL     1       1.439   5.207 -24.275  0.00  0.00    -0.545 OA
ENDBRANCH   7  10
ENDBRANCH   1   8
BRANCH   5  12
ATOM     12  O   UNL     1      -3.786   3.063 -20.193  0.00  0.00    -0.503 OA
ATOM     13  H   UNL     1      -3.306   2.376 -19.775  0.00  0.00    +0.292 HD
ENDBRANCH   5  12
BRANCH   4  14
ATOM     14  O   UNL     1      -5.697   3.049 -21.956  0.00  0.00    -0.503 OA
ATOM     15  H   UNL     1      -5.985   3.209 -21.079  0.00  0.00    +0.292 HD
ENDBRANCH   4  14
TORSDOF 4
ENDMDL
MODEL 7
REMARK VINA RESULT:    -6.033      2.439      5.154
REMARK INTER + INTRA:          -7.309
REMARK INTER:                  -7.084
REMARK INTRA:                  -0.225
REMARK UNBOUND:                -0.217
REMARK  Name = ZINC000000058172
REMARK  4 active torsions:
REMARK  status: ('A' for Active; 'I' for Inactive)
REMARK    1  A    between atoms: C_2  and  C_4
REMARK    2  A    between atoms: C_5  and  C_6
REMARK    3  A    between atoms: C_9  and  O_10
REMARK    4  A    between atoms: C_11  and  O_12
REMARK                            x       y       z     vdW  Elec       q    Type
REMARK                         _______ _______ _______ _____ _____    ______ ____
ROOT
ATOM      1  C   UNL     1      -1.304   3.827 -23.148  0.00  0.00    -0.021 A 
ATOM      2  C   UNL     1      -0.665   4.949 -22.995  0.00  0.00    +0.012 A 
ATOM      3  C   UNL     1       0.591   5.032 -23.320  0.00  0.00    +0.050 A 
ATOM      4  C   UNL     1       1.208   3.993 -23.799  0.00  0.00    +0.158 A 
ATOM      5  C   UNL     1       0.569   2.871 -23.953  0.00  0.00    +0.159 A 
ATOM      6  C   UNL     1      -0.687   2.788 -23.627  0.00  0.00    +0.057 A 
ENDROOT
BRANCH   1   8
ATOM      7  C   UNL     1      -2.933   2.946 -21.867  0.00  0.00    +0.025 C 
ATOM      8  C   UNL     1      -2.560   3.745 -22.823  0.00  0.00    +0.010 C 
BRANCH   7  10
ATOM      9  O   UNL     1      -5.065   3.618 -22.136  0.00  0.00    -0.545 OA
ATOM     10  C   UNL     1      -4.188   2.864 -21.542  0.00  0.00    +0.065 C 
ATOM     11  O   UNL     1      -4.568   2.027 -20.621  0.00  0.00    -0.545 OA
ENDBRANCH   7  10
ENDBRANCH   1   8
BRANCH   5  12
ATOM     12  O   UNL     1       1.186   1.832 -24.432  0.00  0.00    -0.503 OA
ATOM     13  H   UNL     1       0.897   1.444 -25.233  0.00  0.00    +0.292 HD
ENDBRANCH   5  12
BRANCH   4  14
ATOM     14  O   UNL     1       2.463   4.076 -24.125  0.00  0.00    -0.503 OA
ATOM     15  H   UNL     1       3.116   3.677 -23.583  0.00  0.00    +0.292 HD
ENDBRANCH   4  14
TORSDOF 4
ENDMDL
MODEL 8
REMARK VINA RESULT:    -6.026      2.742      5.809
REMARK INTER + INTRA:          -7.301
REMARK INTER:                  -7.081
REMARK INTRA:                  -0.220
REMARK UNBOUND:                -0.217
REMARK  Name = ZINC000000058172
REMARK  4 active torsions:
REMARK  status: ('A' for Active; 'I' for Inactive)
REMARK    1  A    between atoms: C_2  and  C_4
REMARK    2  A    between atoms: C_5  and  C_6
REMARK    3  A    between atoms: C_9  and  O_10
REMARK    4  A    between atoms: C_11  and  O_12
REMARK                            x       y       z     vdW  Elec       q    Type
REMARK                         _______ _______ _______ _____ _____    ______ ____
ROOT
ATOM      1  C   UNL     1      -0.483   3.562 -23.482  0.00  0.00    -0.021 A 
ATOM      2  C   UNL     1       0.219   2.537 -23.100  0.00  0.00    +0.012 A 
ATOM      3  C   UNL     1       1.487   2.675 -22.849  0.00  0.00    +0.050 A 
ATOM      4  C   UNL     1       2.053   3.838 -22.981  0.00  0.00    +0.158 A 
ATOM      5  C   UNL     1       1.350   4.863 -23.363  0.00  0.00    +0.159 A 
ATOM      6  C   UNL     1       0.082   4.725 -23.614  0.00  0.00    +0.057 A 
ENDROOT
BRANCH   1   8
ATOM      7  C   UNL     1      -2.432   4.421 -24.215  0.00  0.00    +0.025 C 
ATOM      8  C   UNL     1      -1.752   3.423 -23.733  0.00  0.00    +0.010 C 
BRANCH   7  10
ATOM      9  O   UNL     1      -4.438   3.542 -23.693  0.00  0.00    -0.545 OA
ATOM     10  C   UNL     1      -3.699   4.282 -24.466  0.00  0.00    +0.065 C 
ATOM     11  O   UNL     1      -4.230   4.883 -25.490  0.00  0.00    -0.545 OA
ENDBRANCH   7  10
ENDBRANCH   1   8
BRANCH   5  12
ATOM     12  O   UNL     1       1.916   6.027 -23.494  0.00  0.00    -0.503 OA
ATOM     13  H   UNL     1       2.845   6.108 -23.410  0.00  0.00    +0.292 HD
ENDBRANCH   5  12
BRANCH   4  14
ATOM     14  O   UNL     1       3.321   3.976 -22.730  0.00  0.00    -0.503 OA
ATOM     15  H   UNL     1       3.843   3.225 -22.529  0.00  0.00    +0.292 HD
ENDBRANCH   4  14
TORSDOF 4
ENDMDL
MODEL 9
REMARK VINA RESULT:    -5.966      2.402      5.058
REMARK INTER + INTRA:          -7.230
REMARK INTER:                  -7.012
REMARK INTRA:                  -0.217
REMARK UNBOUND:                -0.217
REMARK  Name = ZINC000000058172
REMARK  4 active torsions:
REMARK  status: ('A' for Active; 'I' for Inactive)
REMARK    1  A    between atoms: C_2  and  C_4
REMARK    2  A    between atoms: C_5  and  C_6
REMARK    3  A    between atoms: C_9  and  O_10
REMARK    4  A    between atoms: C_11  and  O_12
REMARK                            x       y       z     vdW  Elec       q    Type
REMARK                         _______ _______ _______ _____ _____    ______ ____
ROOT
ATOM      1  C   UNL     1      -0.494   2.280 -22.426  0.00  0.00    -0.021 A 
ATOM      2  C   UNL     1       0.644   1.891 -21.932  0.00  0.00    +0.012 A 
ATOM      3  C   UNL     1       1.712   1.901 -22.675  0.00  0.00    +0.050 A 
ATOM      4  C   UNL     1       1.641   2.299 -23.910  0.00  0.00    +0.158 A 
ATOM      5  C   UNL     1       0.502   2.687 -24.403  0.00  0.00    +0.159 A 
ATOM      6  C   UNL     1      -0.565   2.678 -23.662  0.00  0.00    +0.057 A 
ENDROOT
BRANCH   1   8
ATOM      7  C   UNL     1      -2.209   3.375 -21.462  0.00  0.00    +0.025 C 
ATOM      8  C   UNL     1      -1.561   2.270 -21.684  0.00  0.00    +0.010 C 
BRANCH   7  10
ATOM      9  O   UNL     1      -4.410   2.967 -21.216  0.00  0.00    -0.545 OA
ATOM     10  C   UNL     1      -3.276   3.364 -20.720  0.00  0.00    +0.065 C 
ATOM     11  O   UNL     1      -3.210   3.752 -19.480  0.00  0.00    -0.545 OA
ENDBRANCH   7  10
ENDBRANCH   1   8
BRANCH   5  12
ATOM     12  O   UNL     1       0.432   3.085 -25.640  0.00  0.00    -0.503 OA
ATOM     13  H   UNL     1      -0.333   3.531 -25.945  0.00  0.00    +0.292 HD
ENDBRANCH   5  12
BRANCH   4  14
ATOM     14  O   UNL     1       2.708   2.309 -24.652  0.00  0.00    -0.503 OA
ATOM     15  H   UNL     1       3.232   1.536 -24.730  0.00  0.00    +0.292 HD
ENDBRANCH   4  14
TORSDOF 4
ENDMDL
