MODEL 1
REMARK VINA RESULT:    -9.761      0.000      0.000
REMARK INTER + INTRA:         -13.912
REMARK INTER:                 -13.212
REMARK INTRA:                  -0.700
REMARK UNBOUND:                -1.297
REMARK  Name = ZINC000005808605
REMARK  8 active torsions:
REMARK  status: ('A' for Active; 'I' for Inactive)
REMARK    1  A    between atoms: C_1  and  O_2
REMARK    2  A    between atoms: O_2  and  C_3
REMARK    3  A    between atoms: C_5  and  C_6
REMARK    4  A    between atoms: C_15  and  C_16
REMARK    5  A    between atoms: C_19  and  O_20
REMARK    6  A    between atoms: C_21  and  O_22
REMARK    7  A    between atoms: O_22  and  C_23
REMARK    8  A    between atoms: C_27  and  O_28
REMARK                            x       y       z     vdW  Elec       q    Type
REMARK                         _______ _______ _______ _____ _____    ______ ____
ROOT
ATOM      1  C   UNL     1       1.905   3.378 -22.816  0.00  0.00    +0.221 C 
ATOM      2  O   UNL     1       1.420   4.563 -23.036  0.00  0.00    -0.455 OA
ATOM      3  C   UNL     1       0.124   4.484 -22.981  0.00  0.00    +0.316 C 
ATOM      4  C   UNL     1      -0.193   3.249 -22.727  0.00  0.00    +0.160 C 
ATOM      5  C   UNL     1      -1.190   2.437 -22.536  0.00  0.00    +0.221 C 
ATOM      6  O   UNL     1      -0.705   1.251 -22.316  0.00  0.00    -0.455 OA
ATOM      7  C   UNL     1       0.591   1.330 -22.371  0.00  0.00    +0.316 C 
ATOM      8  O   UNL     1       1.425   0.347 -22.201  0.00  0.00    -0.250 OA
ATOM      9  O   UNL     1      -0.710   5.467 -23.151  0.00  0.00    -0.250 OA
ATOM     10  C   UNL     1       0.908   2.565 -22.625  0.00  0.00    +0.160 C 
ENDROOT
BRANCH   5  11
ATOM     11  C   UNL     1      -2.450   2.755 -22.561  0.00  0.00    -0.003 A 
ATOM     12  C   UNL     1      -3.142   2.755 -21.460  0.00  0.00    +0.011 A 
ATOM     13  C   UNL     1      -4.402   3.073 -21.485  0.00  0.00    +0.049 A 
ATOM     14  C   UNL     1      -4.970   3.391 -22.611  0.00  0.00    +0.158 A 
ATOM     15  C   UNL     1      -4.278   3.391 -23.712  0.00  0.00    +0.162 A 
ATOM     16  C   UNL     1      -3.018   3.073 -23.686  0.00  0.00    +0.056 A 
BRANCH  15  17
ATOM     17  O   UNL     1      -4.846   3.709 -24.837  0.00  0.00    -0.491 OA
ATOM     18  C   UNL     1      -4.344   3.285 -25.960  0.00  0.00    +0.277 C 
ENDBRANCH  15  17
BRANCH  14  19
ATOM     19  O   UNL     1      -6.231   3.710 -22.636  0.00  0.00    -0.503 OA
ATOM     20  H   UNL     1      -6.488   4.609 -22.582  0.00  0.00    +0.292 HD
ENDBRANCH  14  19
ENDBRANCH   5  11
BRANCH   1  23
ATOM     21  C   UNL     1       4.904   2.059 -21.768  0.00  0.00    +0.162 A 
ATOM     22  C   UNL     1       3.644   2.378 -21.793  0.00  0.00    +0.056 A 
ATOM     23  C   UNL     1       3.165   3.059 -22.791  0.00  0.00    -0.003 A 
ATOM     24  C   UNL     1       3.946   3.423 -23.765  0.00  0.00    +0.011 A 
ATOM     25  C   UNL     1       5.207   3.105 -23.740  0.00  0.00    +0.049 A 
ATOM     26  C   UNL     1       5.685   2.423 -22.741  0.00  0.00    +0.158 A 
BRANCH  21  28
ATOM     27  C   UNL     1       4.982   0.157 -20.566  0.00  0.00    +0.277 C 
ATOM     28  O   UNL     1       5.382   1.377 -20.770  0.00  0.00    -0.491 OA
ENDBRANCH  21  28
BRANCH  26  29
ATOM     29  O   UNL     1       6.946   2.104 -22.716  0.00  0.00    -0.503 OA
ATOM     30  H   UNL     1       7.254   1.369 -23.209  0.00  0.00    +0.292 HD
ENDBRANCH  26  29
ENDBRANCH   1  23
TORSDOF 6
ENDMDL
MODEL 2
REMARK VINA RESULT:    -9.752      0.113      8.177
REMARK INTER + INTRA:         -13.899
REMARK INTER:                 -13.268
REMARK INTRA:                  -0.631
REMARK UNBOUND:                -1.297
REMARK  Name = ZINC000005808605
REMARK  8 active torsions:
REMARK  status: ('A' for Active; 'I' for Inactive)
REMARK    1  A    between atoms: C_1  and  O_2
REMARK    2  A    between atoms: O_2  and  C_3
REMARK    3  A    between atoms: C_5  and  C_6
REMARK    4  A    between atoms: C_15  and  C_16
REMARK    5  A    between atoms: C_19  and  O_20
REMARK    6  A    between atoms: C_21  and  O_22
REMARK    7  A    between atoms: O_22  and  C_23
REMARK    8  A    between atoms: C_27  and  O_28
REMARK                            x       y       z     vdW  Elec       q    Type
REMARK                         _______ _______ _______ _____ _____    ______ ____
ROOT
ATOM      1  C   UNL     1      -1.246   2.441 -22.455  0.00  0.00    +0.221 C 
ATOM      2  O   UNL     1      -0.745   1.261 -22.239  0.00  0.00    -0.455 OA
ATOM      3  C   UNL     1       0.549   1.354 -22.313  0.00  0.00    +0.316 C 
ATOM      4  C   UNL     1       0.850   2.591 -22.575  0.00  0.00    +0.160 C 
ATOM      5  C   UNL     1       1.835   3.413 -22.782  0.00  0.00    +0.221 C 
ATOM      6  O   UNL     1       1.334   4.593 -22.999  0.00  0.00    -0.455 OA
ATOM      7  C   UNL     1       0.040   4.500 -22.925  0.00  0.00    +0.316 C 
ATOM      8  O   UNL     1      -0.806   5.474 -23.085  0.00  0.00    -0.250 OA
ATOM      9  O   UNL     1       1.395   0.380 -22.153  0.00  0.00    -0.250 OA
ATOM     10  C   UNL     1      -0.261   3.263 -22.663  0.00  0.00    +0.160 C 
ENDROOT
BRANCH   5  11
ATOM     11  C   UNL     1       3.098   3.108 -22.775  0.00  0.00    -0.003 A 
ATOM     12  C   UNL     1       3.870   3.512 -23.740  0.00  0.00    +0.011 A 
ATOM     13  C   UNL     1       5.134   3.206 -23.732  0.00  0.00    +0.049 A 
ATOM     14  C   UNL     1       5.625   2.498 -22.759  0.00  0.00    +0.158 A 
ATOM     15  C   UNL     1       4.854   2.094 -21.794  0.00  0.00    +0.162 A 
ATOM     16  C   UNL     1       3.590   2.400 -21.802  0.00  0.00    +0.056 A 
BRANCH  15  17
ATOM     17  O   UNL     1       5.345   1.386 -20.821  0.00  0.00    -0.491 OA
ATOM     18  C   UNL     1       4.923   0.172 -20.625  0.00  0.00    +0.277 C 
ENDBRANCH  15  17
BRANCH  14  19
ATOM     19  O   UNL     1       6.890   2.192 -22.751  0.00  0.00    -0.503 OA
ATOM     20  H   UNL     1       7.190   1.428 -23.202  0.00  0.00    +0.292 HD
ENDBRANCH  14  19
ENDBRANCH   5  11
BRANCH   1  23
ATOM     21  C   UNL     1      -4.353   3.390 -23.584  0.00  0.00    +0.162 A 
ATOM     22  C   UNL     1      -3.090   3.085 -23.576  0.00  0.00    +0.056 A 
ATOM     23  C   UNL     1      -2.509   2.746 -22.463  0.00  0.00    -0.003 A 
ATOM     24  C   UNL     1      -3.192   2.712 -21.358  0.00  0.00    +0.011 A 
ATOM     25  C   UNL     1      -4.457   3.017 -21.366  0.00  0.00    +0.049 A 
ATOM     26  C   UNL     1      -5.036   3.356 -22.479  0.00  0.00    +0.158 A 
BRANCH  21  28
ATOM     27  C   UNL     1      -4.416   3.367 -25.835  0.00  0.00    +0.277 C 
ATOM     28  O   UNL     1      -4.933   3.729 -24.698  0.00  0.00    -0.491 OA
ENDBRANCH  21  28
BRANCH  26  29
ATOM     29  O   UNL     1      -6.301   3.661 -22.487  0.00  0.00    -0.503 OA
ATOM     30  H   UNL     1      -6.574   4.520 -22.744  0.00  0.00    +0.292 HD
ENDBRANCH  26  29
ENDBRANCH   1  23
TORSDOF 6
ENDMDL
MODEL 3
REMARK VINA RESULT:    -9.228      0.990      8.047
REMARK INTER + INTRA:         -13.222
REMARK INTER:                 -12.506
REMARK INTRA:                  -0.717
REMARK UNBOUND:                -1.297
REMARK  Name = ZINC000005808605
REMARK  8 active torsions:
REMARK  status: ('A' for Active; 'I' for Inactive)
REMARK    1  A    between atoms: C_1  and  O_2
REMARK    2  A    between atoms: O_2  and  C_3
REMARK    3  A    between atoms: C_5  and  C_6
REMARK    4  A    between atoms: C_15  and  C_16
REMARK    5  A    between atoms: C_19  and  O_20
REMARK    6  A    between atoms: C_21  and  O_22
REMARK    7  A    between atoms: O_22  and  C_23
REMARK    8  A    between atoms: C_27  and  O_28
REMARK                            x       y       z     vdW  Elec       q    Type
REMARK                         _______ _______ _______ _____ _____    ______ ____
ROOT
ATOM      1  C   UNL     1      -0.927   3.868 -22.802  0.00  0.00    +0.221 C 
ATOM      2  O   UNL     1      -0.275   4.902 -23.244  0.00  0.00    -0.455 OA
ATOM      3  C   UNL     1       0.991   4.606 -23.250  0.00  0.00    +0.316 C 
ATOM      4  C   UNL     1       1.122   3.389 -22.812  0.00  0.00    +0.160 C 
ATOM      5  C   UNL     1       1.985   2.454 -22.546  0.00  0.00    +0.221 C 
ATOM      6  O   UNL     1       1.332   1.420 -22.105  0.00  0.00    -0.455 OA
ATOM      7  C   UNL     1       0.067   1.716 -22.098  0.00  0.00    +0.316 C 
ATOM      8  O   UNL     1      -0.899   0.932 -21.720  0.00  0.00    -0.250 OA
ATOM      9  O   UNL     1       1.957   5.390 -23.628  0.00  0.00    -0.250 OA
ATOM     10  C   UNL     1      -0.064   2.933 -22.536  0.00  0.00    +0.160 C 
ENDROOT
BRANCH   5  11
ATOM     11  C   UNL     1       3.273   2.539 -22.695  0.00  0.00    -0.003 A 
ATOM     12  C   UNL     1       3.799   2.422 -23.878  0.00  0.00    +0.011 A 
ATOM     13  C   UNL     1       5.089   2.507 -24.026  0.00  0.00    +0.049 A 
ATOM     14  C   UNL     1       5.850   2.709 -22.992  0.00  0.00    +0.158 A 
ATOM     15  C   UNL     1       5.324   2.825 -21.809  0.00  0.00    +0.162 A 
ATOM     16  C   UNL     1       4.035   2.740 -21.661  0.00  0.00    +0.056 A 
BRANCH  15  17
ATOM     17  O   UNL     1       6.085   3.027 -20.775  0.00  0.00    -0.491 OA
ATOM     18  C   UNL     1       6.710   4.159 -20.640  0.00  0.00    +0.277 C 
ENDBRANCH  15  17
BRANCH  14  19
ATOM     19  O   UNL     1       7.139   2.794 -23.141  0.00  0.00    -0.503 OA
ATOM     20  H   UNL     1       7.659   3.223 -22.490  0.00  0.00    +0.292 HD
ENDBRANCH  14  19
ENDBRANCH   5  11
BRANCH   1  23
ATOM     21  C   UNL     1      -4.280   3.688 -23.548  0.00  0.00    +0.162 A 
ATOM     22  C   UNL     1      -2.991   3.772 -23.696  0.00  0.00    +0.056 A 
ATOM     23  C   UNL     1      -2.215   3.783 -22.653  0.00  0.00    -0.003 A 
ATOM     24  C   UNL     1      -2.728   3.709 -21.461  0.00  0.00    +0.011 A 
ATOM     25  C   UNL     1      -4.017   3.624 -21.312  0.00  0.00    +0.049 A 
ATOM     26  C   UNL     1      -4.792   3.614 -22.356  0.00  0.00    +0.158 A 
BRANCH  21  28
ATOM     27  C   UNL     1      -4.588   3.295 -25.744  0.00  0.00    +0.277 C 
ATOM     28  O   UNL     1      -5.055   3.677 -24.592  0.00  0.00    -0.491 OA
ENDBRANCH  21  28
BRANCH  26  29
ATOM     29  O   UNL     1      -6.082   3.529 -22.207  0.00  0.00    -0.503 OA
ATOM     30  H   UNL     1      -6.440   3.102 -21.454  0.00  0.00    +0.292 HD
ENDBRANCH  26  29
ENDBRANCH   1  23
TORSDOF 6
ENDMDL
MODEL 4
REMARK VINA RESULT:    -9.190      0.978      2.148
REMARK INTER + INTRA:         -13.173
REMARK INTER:                 -12.392
REMARK INTRA:                  -0.782
REMARK UNBOUND:                -1.297
REMARK  Name = ZINC000005808605
REMARK  8 active torsions:
REMARK  status: ('A' for Active; 'I' for Inactive)
REMARK    1  A    between atoms: C_1  and  O_2
REMARK    2  A    between atoms: O_2  and  C_3
REMARK    3  A    between atoms: C_5  and  C_6
REMARK    4  A    between atoms: C_15  and  C_16
REMARK    5  A    between atoms: C_19  and  O_20
REMARK    6  A    between atoms: C_21  and  O_22
REMARK    7  A    between atoms: O_22  and  C_23
REMARK    8  A    between atoms: C_27  and  O_28
REMARK                            x       y       z     vdW  Elec       q    Type
REMARK                         _______ _______ _______ _____ _____    ______ ____
ROOT
ATOM      1  C   UNL     1       2.004   2.414 -22.573  0.00  0.00    +0.221 C 
ATOM      2  O   UNL     1       1.348   1.369 -22.165  0.00  0.00    -0.455 OA
ATOM      3  C   UNL     1       0.083   1.666 -22.156  0.00  0.00    +0.316 C 
ATOM      4  C   UNL     1      -0.044   2.896 -22.558  0.00  0.00    +0.160 C 
ATOM      5  C   UNL     1      -0.904   3.841 -22.801  0.00  0.00    +0.221 C 
ATOM      6  O   UNL     1      -0.247   4.885 -23.209  0.00  0.00    -0.455 OA
ATOM      7  C   UNL     1       1.017   4.588 -23.218  0.00  0.00    +0.316 C 
ATOM      8  O   UNL     1       1.987   5.381 -23.568  0.00  0.00    -0.250 OA
ATOM      9  O   UNL     1      -0.886   0.874 -21.806  0.00  0.00    -0.250 OA
ATOM     10  C   UNL     1       1.144   3.358 -22.816  0.00  0.00    +0.160 C 
ENDROOT
BRANCH   5  11
ATOM     11  C   UNL     1      -2.193   3.754 -22.661  0.00  0.00    -0.003 A 
ATOM     12  C   UNL     1      -2.714   3.688 -21.471  0.00  0.00    +0.011 A 
ATOM     13  C   UNL     1      -4.004   3.601 -21.331  0.00  0.00    +0.049 A 
ATOM     14  C   UNL     1      -4.772   3.581 -22.380  0.00  0.00    +0.158 A 
ATOM     15  C   UNL     1      -4.251   3.647 -23.570  0.00  0.00    +0.162 A 
ATOM     16  C   UNL     1      -2.961   3.734 -23.709  0.00  0.00    +0.056 A 
BRANCH  15  17
ATOM     17  O   UNL     1      -5.018   3.627 -24.619  0.00  0.00    -0.491 OA
ATOM     18  C   UNL     1      -4.519   3.334 -25.783  0.00  0.00    +0.277 C 
ENDBRANCH  15  17
BRANCH  14  19
ATOM     19  O   UNL     1      -6.062   3.494 -22.240  0.00  0.00    -0.503 OA
ATOM     20  H   UNL     1      -6.589   4.269 -22.262  0.00  0.00    +0.292 HD
ENDBRANCH  14  19
ENDBRANCH   5  11
BRANCH   1  23
ATOM     21  C   UNL     1       5.337   2.796 -21.815  0.00  0.00    +0.162 A 
ATOM     22  C   UNL     1       4.048   2.709 -21.675  0.00  0.00    +0.056 A 
ATOM     23  C   UNL     1       3.293   2.500 -22.713  0.00  0.00    -0.003 A 
ATOM     24  C   UNL     1       3.828   2.378 -23.892  0.00  0.00    +0.011 A 
ATOM     25  C   UNL     1       5.118   2.465 -24.032  0.00  0.00    +0.049 A 
ATOM     26  C   UNL     1       5.872   2.674 -22.993  0.00  0.00    +0.158 A 
BRANCH  21  28
ATOM     27  C   UNL     1       6.693   4.148 -20.631  0.00  0.00    +0.277 C 
ATOM     28  O   UNL     1       6.091   3.005 -20.776  0.00  0.00    -0.491 OA
ENDBRANCH  21  28
BRANCH  26  29
ATOM     29  O   UNL     1       7.162   2.761 -23.133  0.00  0.00    -0.503 OA
ATOM     30  H   UNL     1       7.666   3.271 -22.530  0.00  0.00    +0.292 HD
ENDBRANCH  26  29
ENDBRANCH   1  23
TORSDOF 6
ENDMDL
MODEL 5
REMARK VINA RESULT:    -8.941      1.892      3.371
REMARK INTER + INTRA:         -12.852
REMARK INTER:                 -11.621
REMARK INTRA:                  -1.231
REMARK UNBOUND:                -1.297
REMARK  Name = ZINC000005808605
REMARK  8 active torsions:
REMARK  status: ('A' for Active; 'I' for Inactive)
REMARK    1  A    between atoms: C_1  and  O_2
REMARK    2  A    between atoms: O_2  and  C_3
REMARK    3  A    between atoms: C_5  and  C_6
REMARK    4  A    between atoms: C_15  and  C_16
REMARK    5  A    between atoms: C_19  and  O_20
REMARK    6  A    between atoms: C_21  and  O_22
REMARK    7  A    between atoms: O_22  and  C_23
REMARK    8  A    between atoms: C_27  and  O_28
REMARK                            x       y       z     vdW  Elec       q    Type
REMARK                         _______ _______ _______ _____ _____    ______ ____
ROOT
ATOM      1  C   UNL     1       3.606   3.172 -22.939  0.00  0.00    +0.221 C 
ATOM      2  O   UNL     1       3.035   2.005 -22.947  0.00  0.00    -0.455 OA
ATOM      3  C   UNL     1       1.754   2.183 -23.074  0.00  0.00    +0.316 C 
ATOM      4  C   UNL     1       1.531   3.462 -23.145  0.00  0.00    +0.160 C 
ATOM      5  C   UNL     1       0.602   4.363 -23.266  0.00  0.00    +0.221 C 
ATOM      6  O   UNL     1       1.173   5.531 -23.258  0.00  0.00    -0.455 OA
ATOM      7  C   UNL     1       2.454   5.352 -23.130  0.00  0.00    +0.316 C 
ATOM      8  O   UNL     1       3.355   6.288 -23.082  0.00  0.00    -0.250 OA
ATOM      9  O   UNL     1       0.853   1.247 -23.123  0.00  0.00    -0.250 OA
ATOM     10  C   UNL     1       2.677   4.073 -23.060  0.00  0.00    +0.160 C 
ENDROOT
BRANCH   5  11
ATOM     11  C   UNL     1      -0.672   4.136 -23.378  0.00  0.00    -0.003 A 
ATOM     12  C   UNL     1      -1.194   3.920 -24.549  0.00  0.00    +0.011 A 
ATOM     13  C   UNL     1      -2.470   3.692 -24.659  0.00  0.00    +0.049 A 
ATOM     14  C   UNL     1      -3.222   3.680 -23.599  0.00  0.00    +0.158 A 
ATOM     15  C   UNL     1      -2.700   3.895 -22.428  0.00  0.00    +0.162 A 
ATOM     16  C   UNL     1      -1.425   4.123 -22.318  0.00  0.00    +0.056 A 
BRANCH  15  17
ATOM     17  O   UNL     1      -3.452   3.882 -21.368  0.00  0.00    -0.491 OA
ATOM     18  C   UNL     1      -2.935   3.604 -20.208  0.00  0.00    +0.277 C 
ENDBRANCH  15  17
BRANCH  14  19
ATOM     19  O   UNL     1      -4.498   3.452 -23.710  0.00  0.00    -0.503 OA
ATOM     20  H   UNL     1      -4.864   3.233 -24.545  0.00  0.00    +0.292 HD
ENDBRANCH  14  19
ENDBRANCH   5  11
BRANCH   1  23
ATOM     21  C   UNL     1       6.667   3.908 -21.554  0.00  0.00    +0.162 A 
ATOM     22  C   UNL     1       5.392   3.680 -21.666  0.00  0.00    +0.056 A 
ATOM     23  C   UNL     1       4.880   3.400 -22.827  0.00  0.00    -0.003 A 
ATOM     24  C   UNL     1       5.643   3.349 -23.879  0.00  0.00    +0.011 A 
ATOM     25  C   UNL     1       6.919   3.577 -23.767  0.00  0.00    +0.049 A 
ATOM     26  C   UNL     1       7.430   3.856 -22.605  0.00  0.00    +0.158 A 
BRANCH  21  28
ATOM     27  C   UNL     1       7.217   5.419 -19.979  0.00  0.00    +0.277 C 
ATOM     28  O   UNL     1       7.178   4.187 -20.392  0.00  0.00    -0.491 OA
ENDBRANCH  21  28
BRANCH  26  29
ATOM     29  O   UNL     1       8.706   4.084 -22.494  0.00  0.00    -0.503 OA
ATOM     30  H   UNL     1       9.270   3.965 -23.232  0.00  0.00    +0.292 HD
ENDBRANCH  26  29
ENDBRANCH   1  23
TORSDOF 6
ENDMDL
MODEL 6
REMARK VINA RESULT:    -8.804      2.095      8.206
REMARK INTER + INTRA:         -12.675
REMARK INTER:                 -11.569
REMARK INTRA:                  -1.106
REMARK UNBOUND:                -1.297
REMARK  Name = ZINC000005808605
REMARK  8 active torsions:
REMARK  status: ('A' for Active; 'I' for Inactive)
REMARK    1  A    between atoms: C_1  and  O_2
REMARK    2  A    between atoms: O_2  and  C_3
REMARK    3  A    between atoms: C_5  and  C_6
REMARK    4  A    between atoms: C_15  and  C_16
REMARK    5  A    between atoms: C_19  and  O_20
REMARK    6  A    between atoms: C_21  and  O_22
REMARK    7  A    between atoms: O_22  and  C_23
REMARK    8  A    between atoms: C_27  and  O_28
REMARK                            x       y       z     vdW  Elec       q    Type
REMARK                         _______ _______ _______ _____ _____    ______ ____
ROOT
ATOM      1  C   UNL     1       0.985   4.439 -23.358  0.00  0.00    +0.221 C 
ATOM      2  O   UNL     1       1.487   5.616 -23.134  0.00  0.00    -0.455 OA
ATOM      3  C   UNL     1       2.769   5.483 -22.968  0.00  0.00    +0.316 C 
ATOM      4  C   UNL     1       3.061   4.222 -23.091  0.00  0.00    +0.160 C 
ATOM      5  C   UNL     1       4.034   3.359 -23.064  0.00  0.00    +0.221 C 
ATOM      6  O   UNL     1       3.532   2.182 -23.288  0.00  0.00    -0.455 OA
ATOM      7  C   UNL     1       2.250   2.316 -23.454  0.00  0.00    +0.316 C 
ATOM      8  O   UNL     1       1.406   1.357 -23.698  0.00  0.00    -0.250 OA
ATOM      9  O   UNL     1       3.613   6.441 -22.724  0.00  0.00    -0.250 OA
ATOM     10  C   UNL     1       1.958   3.577 -23.332  0.00  0.00    +0.160 C 
ENDROOT
BRANCH   5  11
ATOM     11  C   UNL     1       5.287   3.628 -22.851  0.00  0.00    -0.003 A 
ATOM     12  C   UNL     1       6.127   3.642 -23.843  0.00  0.00    +0.011 A 
ATOM     13  C   UNL     1       7.381   3.911 -23.629  0.00  0.00    +0.049 A 
ATOM     14  C   UNL     1       7.794   4.166 -22.423  0.00  0.00    +0.158 A 
ATOM     15  C   UNL     1       6.954   4.153 -21.431  0.00  0.00    +0.162 A 
ATOM     16  C   UNL     1       5.701   3.883 -21.645  0.00  0.00    +0.056 A 
BRANCH  15  17
ATOM     17  O   UNL     1       7.368   4.408 -20.225  0.00  0.00    -0.491 OA
ATOM     18  C   UNL     1       7.302   5.619 -19.759  0.00  0.00    +0.277 C 
ENDBRANCH  15  17
BRANCH  14  19
ATOM     19  O   UNL     1       9.049   4.436 -22.209  0.00  0.00    -0.503 OA
ATOM     20  H   UNL     1       9.500   5.041 -22.765  0.00  0.00    +0.292 HD
ENDBRANCH  14  19
ENDBRANCH   5  11
BRANCH   1  23
ATOM     21  C   UNL     1      -2.354   3.847 -22.787  0.00  0.00    +0.162 A 
ATOM     22  C   UNL     1      -1.100   4.116 -22.575  0.00  0.00    +0.056 A 
ATOM     23  C   UNL     1      -0.268   4.170 -23.572  0.00  0.00    -0.003 A 
ATOM     24  C   UNL     1      -0.689   3.955 -24.783  0.00  0.00    +0.011 A 
ATOM     25  C   UNL     1      -1.944   3.685 -24.996  0.00  0.00    +0.049 A 
ATOM     26  C   UNL     1      -2.775   3.632 -23.999  0.00  0.00    +0.158 A 
BRANCH  21  28
ATOM     27  C   UNL     1      -3.189   2.759 -21.002  0.00  0.00    +0.277 C 
ATOM     28  O   UNL     1      -3.186   3.794 -21.790  0.00  0.00    -0.491 OA
ENDBRANCH  21  28
BRANCH  26  29
ATOM     29  O   UNL     1      -4.030   3.363 -24.212  0.00  0.00    -0.503 OA
ATOM     30  H   UNL     1      -4.481   2.758 -23.656  0.00  0.00    +0.292 HD
ENDBRANCH  26  29
ENDBRANCH   1  23
TORSDOF 6
ENDMDL
MODEL 7
REMARK VINA RESULT:    -8.652      1.360      2.453
REMARK INTER + INTRA:         -12.478
REMARK INTER:                 -12.536
REMARK INTRA:                   0.058
REMARK UNBOUND:                -1.297
REMARK  Name = ZINC000005808605
REMARK  8 active torsions:
REMARK  status: ('A' for Active; 'I' for Inactive)
REMARK    1  A    between atoms: C_1  and  O_2
REMARK    2  A    between atoms: O_2  and  C_3
REMARK    3  A    between atoms: C_5  and  C_6
REMARK    4  A    between atoms: C_15  and  C_16
REMARK    5  A    between atoms: C_19  and  O_20
REMARK    6  A    between atoms: C_21  and  O_22
REMARK    7  A    between atoms: O_22  and  C_23
REMARK    8  A    between atoms: C_27  and  O_28
REMARK                            x       y       z     vdW  Elec       q    Type
REMARK                         _______ _______ _______ _____ _____    ______ ____
ROOT
ATOM      1  C   UNL     1       2.502   3.878 -23.088  0.00  0.00    +0.221 C 
ATOM      2  O   UNL     1       1.996   5.074 -23.156  0.00  0.00    -0.455 OA
ATOM      3  C   UNL     1       0.707   4.960 -23.272  0.00  0.00    +0.316 C 
ATOM      4  C   UNL     1       0.414   3.693 -23.275  0.00  0.00    +0.160 C 
ATOM      5  C   UNL     1      -0.564   2.840 -23.349  0.00  0.00    +0.221 C 
ATOM      6  O   UNL     1      -0.059   1.644 -23.281  0.00  0.00    -0.455 OA
ATOM      7  C   UNL     1       1.230   1.758 -23.166  0.00  0.00    +0.316 C 
ATOM      8  O   UNL     1       2.079   0.778 -23.070  0.00  0.00    -0.250 OA
ATOM      9  O   UNL     1      -0.141   5.940 -23.367  0.00  0.00    -0.250 OA
ATOM     10  C   UNL     1       1.524   3.025 -23.162  0.00  0.00    +0.160 C 
ENDROOT
BRANCH   5  11
ATOM     11  C   UNL     1      -1.824   3.132 -23.470  0.00  0.00    -0.003 A 
ATOM     12  C   UNL     1      -2.291   3.537 -24.614  0.00  0.00    +0.011 A 
ATOM     13  C   UNL     1      -3.553   3.829 -24.734  0.00  0.00    +0.049 A 
ATOM     14  C   UNL     1      -4.346   3.716 -23.711  0.00  0.00    +0.158 A 
ATOM     15  C   UNL     1      -3.880   3.310 -22.567  0.00  0.00    +0.162 A 
ATOM     16  C   UNL     1      -2.619   3.019 -22.447  0.00  0.00    +0.056 A 
BRANCH  15  17
ATOM     17  O   UNL     1      -4.674   3.197 -21.544  0.00  0.00    -0.491 OA
ATOM     18  C   UNL     1      -4.482   2.248 -20.676  0.00  0.00    +0.277 C 
ENDBRANCH  15  17
BRANCH  14  19
ATOM     19  O   UNL     1      -5.608   4.008 -23.831  0.00  0.00    -0.503 OA
ATOM     20  H   UNL     1      -6.255   3.334 -23.751  0.00  0.00    +0.292 HD
ENDBRANCH  14  19
ENDBRANCH   5  11
BRANCH   1  23
ATOM     21  C   UNL     1       5.926   4.199 -23.086  0.00  0.00    +0.162 A 
ATOM     22  C   UNL     1       4.665   4.491 -23.206  0.00  0.00    +0.056 A 
ATOM     23  C   UNL     1       3.762   3.586 -22.967  0.00  0.00    -0.003 A 
ATOM     24  C   UNL     1       4.120   2.389 -22.607  0.00  0.00    +0.011 A 
ATOM     25  C   UNL     1       5.382   2.098 -22.487  0.00  0.00    +0.049 A 
ATOM     26  C   UNL     1       6.284   3.003 -22.726  0.00  0.00    +0.158 A 
BRANCH  21  28
ATOM     27  C   UNL     1       6.991   6.093 -22.497  0.00  0.00    +0.277 C 
ATOM     28  O   UNL     1       6.828   5.105 -23.325  0.00  0.00    -0.491 OA
ENDBRANCH  21  28
BRANCH  26  29
ATOM     29  O   UNL     1       7.546   2.711 -22.605  0.00  0.00    -0.503 OA
ATOM     30  H   UNL     1       7.846   1.843 -22.791  0.00  0.00    +0.292 HD
ENDBRANCH  26  29
ENDBRANCH   1  23
TORSDOF 6
ENDMDL
MODEL 8
REMARK VINA RESULT:    -7.913      2.149      3.200
REMARK INTER + INTRA:         -11.524
REMARK INTER:                 -10.292
REMARK INTRA:                  -1.232
REMARK UNBOUND:                -1.297
REMARK  Name = ZINC000005808605
REMARK  8 active torsions:
REMARK  status: ('A' for Active; 'I' for Inactive)
REMARK    1  A    between atoms: C_1  and  O_2
REMARK    2  A    between atoms: O_2  and  C_3
REMARK    3  A    between atoms: C_5  and  C_6
REMARK    4  A    between atoms: C_15  and  C_16
REMARK    5  A    between atoms: C_19  and  O_20
REMARK    6  A    between atoms: C_21  and  O_22
REMARK    7  A    between atoms: O_22  and  C_23
REMARK    8  A    between atoms: C_27  and  O_28
REMARK                            x       y       z     vdW  Elec       q    Type
REMARK                         _______ _______ _______ _____ _____    ______ ____
ROOT
ATOM      1  C   UNL     1       3.930   4.512 -23.005  0.00  0.00    +0.221 C 
ATOM      2  O   UNL     1       3.203   5.589 -22.997  0.00  0.00    -0.455 OA
ATOM      3  C   UNL     1       1.973   5.247 -23.240  0.00  0.00    +0.316 C 
ATOM      4  C   UNL     1       1.938   3.957 -23.398  0.00  0.00    +0.160 C 
ATOM      5  C   UNL     1       1.156   2.948 -23.646  0.00  0.00    +0.221 C 
ATOM      6  O   UNL     1       1.883   1.871 -23.654  0.00  0.00    -0.455 OA
ATOM      7  C   UNL     1       3.113   2.213 -23.411  0.00  0.00    +0.316 C 
ATOM      8  O   UNL     1       4.130   1.407 -23.339  0.00  0.00    -0.250 OA
ATOM      9  O   UNL     1       0.956   6.053 -23.312  0.00  0.00    -0.250 OA
ATOM     10  C   UNL     1       3.148   3.503 -23.253  0.00  0.00    +0.160 C 
ENDROOT
BRANCH   5  11
ATOM     11  C   UNL     1      -0.126   3.008 -23.849  0.00  0.00    -0.003 A 
ATOM     12  C   UNL     1      -0.583   3.339 -25.020  0.00  0.00    +0.011 A 
ATOM     13  C   UNL     1      -1.866   3.398 -25.224  0.00  0.00    +0.049 A 
ATOM     14  C   UNL     1      -2.691   3.127 -24.256  0.00  0.00    +0.158 A 
ATOM     15  C   UNL     1      -2.233   2.796 -23.085  0.00  0.00    +0.162 A 
ATOM     16  C   UNL     1      -0.951   2.736 -22.882  0.00  0.00    +0.056 A 
BRANCH  15  17
ATOM     17  O   UNL     1      -3.058   2.524 -22.117  0.00  0.00    -0.491 OA
ATOM     18  C   UNL     1      -2.863   3.032 -20.936  0.00  0.00    +0.277 C 
ENDBRANCH  15  17
BRANCH  14  19
ATOM     19  O   UNL     1      -3.974   3.186 -24.460  0.00  0.00    -0.503 OA
ATOM     20  H   UNL     1      -4.357   3.965 -24.814  0.00  0.00    +0.292 HD
ENDBRANCH  14  19
ENDBRANCH   5  11
BRANCH   1  23
ATOM     21  C   UNL     1       6.972   4.582 -21.403  0.00  0.00    +0.162 A 
ATOM     22  C   UNL     1       5.690   4.641 -21.608  0.00  0.00    +0.056 A 
ATOM     23  C   UNL     1       5.211   4.452 -22.802  0.00  0.00    -0.003 A 
ATOM     24  C   UNL     1       6.016   4.204 -23.793  0.00  0.00    +0.011 A 
ATOM     25  C   UNL     1       7.299   4.145 -23.589  0.00  0.00    +0.049 A 
ATOM     26  C   UNL     1       7.776   4.334 -22.394  0.00  0.00    +0.158 A 
BRANCH  21  28
ATOM     27  C   UNL     1       7.452   5.963 -19.692  0.00  0.00    +0.277 C 
ATOM     28  O   UNL     1       7.449   4.770 -20.209  0.00  0.00    -0.491 OA
ENDBRANCH  21  28
BRANCH  26  29
ATOM     29  O   UNL     1       9.060   4.274 -22.190  0.00  0.00    -0.503 OA
ATOM     30  H   UNL     1       9.486   4.941 -21.689  0.00  0.00    +0.292 HD
ENDBRANCH  26  29
ENDBRANCH   1  23
TORSDOF 6
ENDMDL
