MODEL 1
REMARK VINA RESULT:   -10.085      0.000      0.000
REMARK INTER + INTRA:         -10.208
REMARK INTER:                 -11.154
REMARK INTRA:                   0.947
REMARK UNBOUND:                 1.057
REMARK  Name = ZINC000096316353
REMARK  4 active torsions:
REMARK  status: ('A' for Active; 'I' for Inactive)
REMARK    1  A    between atoms: C_1  and  O_2
REMARK    2  A    between atoms: O_2  and  C_3
REMARK    3  A    between atoms: C_7  and  O_8
REMARK    4  A    between atoms: O_8  and  C_9
REMARK                            x       y       z     vdW  Elec       q    Type
REMARK                         _______ _______ _______ _____ _____    ______ ____
ROOT
ATOM      1  C   UNL     1      -2.772   3.712 -25.319  0.00  0.00    +0.159 C 
ATOM      2  C   UNL     1      -1.634   3.359 -24.929  0.00  0.00    +0.158 C 
ATOM      3  O   UNL     1      -0.170   3.204 -25.277  0.00  0.00    -0.452 OA
ATOM      4  C   UNL     1       0.657   2.651 -24.150  0.00  0.00    +0.174 A 
ATOM      5  C   UNL     1       1.809   2.295 -23.759  0.00  0.00    +0.162 A 
ATOM      6  C   UNL     1       1.961   1.853 -22.582  0.00  0.00    +0.050 A 
ATOM      7  C   UNL     1       0.983   1.767 -21.807  0.00  0.00    +0.008 A 
ATOM      8  C   UNL     1      -0.155   2.119 -22.197  0.00  0.00    -0.038 A 
ATOM      9  C   UNL     1      -1.158   2.033 -21.409  0.00  0.00    +0.058 C 
ATOM     10  C   UNL     1      -2.294   2.385 -21.798  0.00  0.00    +0.088 C 
ATOM     11  C   UNL     1      -2.448   2.828 -22.974  0.00  0.00    +0.051 C 
ATOM     12  C   UNL     1      -3.600   3.183 -23.365  0.00  0.00    -0.017 C 
ATOM     13  N   UNL     1      -3.628   2.759 -22.141  0.00  0.00    -0.300 N 
ATOM     14  C   UNL     1      -4.586   2.653 -21.322  0.00  0.00    +0.328 C 
ATOM     15  O   UNL     1      -4.391   2.210 -20.164  0.00  0.00    -0.279 OA
ATOM     16  C   UNL     1      -3.835   3.257 -23.447  0.00  0.00    +0.109 C 
ATOM     17  C   UNL     1      -2.713   3.343 -24.299  0.00  0.00    +0.039 C 
ATOM     18  C   UNL     1      -0.330   2.562 -23.364  0.00  0.00    +0.016 A 
ATOM     19  C   UNL     1      -1.467   2.913 -23.748  0.00  0.00    +0.070 C 
ATOM     20  C   UNL     1      -3.756   3.621 -24.528  0.00  0.00    +0.045 C 
ENDROOT
BRANCH   1  22
ATOM     21  C   UNL     1      -3.337   3.387 -27.387  0.00  0.00    +0.277 C 
ATOM     22  O   UNL     1      -2.933   4.151 -26.480  0.00  0.00    -0.492 OA
ENDBRANCH   1  22
BRANCH   5  23
ATOM     23  O   UNL     1       2.791   2.380 -24.533  0.00  0.00    -0.491 OA
ATOM     24  C   UNL     1       3.956   2.306 -24.079  0.00  0.00    +0.277 C 
ENDBRANCH   5  23
TORSDOF 2
ENDMDL
MODEL 2
REMARK VINA RESULT:    -9.690      1.513      3.568
REMARK INTER + INTRA:          -9.765
REMARK INTER:                 -10.682
REMARK INTRA:                   0.917
REMARK UNBOUND:                 1.057
REMARK  Name = ZINC000096316353
REMARK  4 active torsions:
REMARK  status: ('A' for Active; 'I' for Inactive)
REMARK    1  A    between atoms: C_1  and  O_2
REMARK    2  A    between atoms: O_2  and  C_3
REMARK    3  A    between atoms: C_7  and  O_8
REMARK    4  A    between atoms: O_8  and  C_9
REMARK                            x       y       z     vdW  Elec       q    Type
REMARK                         _______ _______ _______ _____ _____    ______ ____
ROOT
ATOM      1  C   UNL     1      -2.924   2.913 -21.848  0.00  0.00    +0.159 C 
ATOM      2  C   UNL     1      -1.694   2.818 -22.072  0.00  0.00    +0.158 C 
ATOM      3  O   UNL     1      -0.320   2.552 -21.495  0.00  0.00    -0.452 OA
ATOM      4  C   UNL     1       0.780   2.627 -22.516  0.00  0.00    +0.174 A 
ATOM      5  C   UNL     1       2.025   2.530 -22.739  0.00  0.00    +0.162 A 
ATOM      6  C   UNL     1       2.465   2.709 -23.913  0.00  0.00    +0.050 A 
ATOM      7  C   UNL     1       1.681   2.978 -24.850  0.00  0.00    +0.008 A 
ATOM      8  C   UNL     1       0.451   3.073 -24.626  0.00  0.00    -0.038 A 
ATOM      9  C   UNL     1      -0.354   3.348 -25.579  0.00  0.00    +0.058 C 
ATOM     10  C   UNL     1      -1.582   3.443 -25.355  0.00  0.00    +0.088 C 
ATOM     11  C   UNL     1      -2.025   3.265 -24.182  0.00  0.00    +0.051 C 
ATOM     12  C   UNL     1      -3.268   3.361 -23.960  0.00  0.00    -0.017 C 
ATOM     13  N   UNL     1      -2.996   3.573 -25.208  0.00  0.00    -0.300 N 
ATOM     14  C   UNL     1      -3.749   3.847 -26.187  0.00  0.00    +0.328 C 
ATOM     15  O   UNL     1      -3.271   4.016 -27.335  0.00  0.00    -0.279 OA
ATOM     16  C   UNL     1      -3.523   3.381 -23.913  0.00  0.00    +0.109 C 
ATOM     17  C   UNL     1      -2.614   3.078 -22.876  0.00  0.00    +0.039 C 
ATOM     18  C   UNL     1      -0.010   2.900 -23.465  0.00  0.00    +0.016 A 
ATOM     19  C   UNL     1      -1.237   2.995 -23.247  0.00  0.00    +0.070 C 
ATOM     20  C   UNL     1      -3.709   3.186 -22.801  0.00  0.00    +0.045 C 
ENDROOT
BRANCH   1  22
ATOM     21  C   UNL     1      -3.275   3.652 -19.839  0.00  0.00    +0.277 C 
ATOM     22  O   UNL     1      -3.370   2.739 -20.691  0.00  0.00    -0.492 OA
ENDBRANCH   1  22
BRANCH   5  23
ATOM     23  O   UNL     1       2.813   2.260 -21.803  0.00  0.00    -0.491 OA
ATOM     24  C   UNL     1       2.943   1.078 -21.413  0.00  0.00    +0.277 C 
ENDBRANCH   5  23
TORSDOF 2
ENDMDL
MODEL 3
REMARK VINA RESULT:    -9.168      1.555      4.773
REMARK INTER + INTRA:          -9.183
REMARK INTER:                 -10.367
REMARK INTRA:                   1.184
REMARK UNBOUND:                 1.057
REMARK  Name = ZINC000096316353
REMARK  4 active torsions:
REMARK  status: ('A' for Active; 'I' for Inactive)
REMARK    1  A    between atoms: C_1  and  O_2
REMARK    2  A    between atoms: O_2  and  C_3
REMARK    3  A    between atoms: C_7  and  O_8
REMARK    4  A    between atoms: O_8  and  C_9
REMARK                            x       y       z     vdW  Elec       q    Type
REMARK                         _______ _______ _______ _____ _____    ______ ____
ROOT
ATOM      1  C   UNL     1      -1.901   3.635 -25.719  0.00  0.00    +0.159 C 
ATOM      2  C   UNL     1      -2.658   3.514 -24.727  0.00  0.00    +0.158 C 
ATOM      3  O   UNL     1      -4.074   3.593 -24.200  0.00  0.00    -0.452 OA
ATOM      4  C   UNL     1      -4.184   3.273 -22.735  0.00  0.00    +0.174 A 
ATOM      5  C   UNL     1      -4.952   3.152 -21.734  0.00  0.00    +0.162 A 
ATOM      6  C   UNL     1      -4.467   2.827 -20.610  0.00  0.00    +0.050 A 
ATOM      7  C   UNL     1      -3.239   2.625 -20.484  0.00  0.00    +0.008 A 
ATOM      8  C   UNL     1      -2.482   2.746 -21.476  0.00  0.00    -0.038 A 
ATOM      9  C   UNL     1      -1.227   2.541 -21.353  0.00  0.00    +0.058 C 
ATOM     10  C   UNL     1      -0.471   2.662 -22.344  0.00  0.00    +0.088 C 
ATOM     11  C   UNL     1      -0.954   2.987 -23.468  0.00  0.00    +0.051 C 
ATOM     12  C   UNL     1      -0.186   3.108 -24.469  0.00  0.00    -0.017 C 
ATOM     13  N   UNL     1       0.475   2.772 -23.407  0.00  0.00    -0.300 N 
ATOM     14  C   UNL     1       1.709   2.559 -23.231  0.00  0.00    +0.328 C 
ATOM     15  O   UNL     1       2.148   2.238 -22.099  0.00  0.00    -0.279 OA
ATOM     16  C   UNL     1      -0.030   3.133 -24.675  0.00  0.00    +0.109 C 
ATOM     17  C   UNL     1      -1.420   3.354 -24.786  0.00  0.00    +0.039 C 
ATOM     18  C   UNL     1      -2.942   3.069 -22.605  0.00  0.00    +0.016 A 
ATOM     19  C   UNL     1      -2.183   3.188 -23.591  0.00  0.00    +0.070 C 
ATOM     20  C   UNL     1      -0.660   3.429 -25.583  0.00  0.00    +0.045 C 
ENDROOT
BRANCH   1  22
ATOM     21  C   UNL     1      -3.318   3.303 -27.326  0.00  0.00    +0.277 C 
ATOM     22  O   UNL     1      -2.370   3.956 -26.835  0.00  0.00    -0.492 OA
ENDBRANCH   1  22
BRANCH   5  23
ATOM     23  O   UNL     1      -6.183   3.353 -21.856  0.00  0.00    -0.491 OA
ATOM     24  C   UNL     1      -6.991   2.408 -21.703  0.00  0.00    +0.277 C 
ENDBRANCH   5  23
TORSDOF 2
ENDMDL
MODEL 4
REMARK VINA RESULT:    -8.797      1.911      4.750
REMARK INTER + INTRA:          -8.769
REMARK INTER:                  -9.806
REMARK INTRA:                   1.037
REMARK UNBOUND:                 1.057
REMARK  Name = ZINC000096316353
REMARK  4 active torsions:
REMARK  status: ('A' for Active; 'I' for Inactive)
REMARK    1  A    between atoms: C_1  and  O_2
REMARK    2  A    between atoms: O_2  and  C_3
REMARK    3  A    between atoms: C_7  and  O_8
REMARK    4  A    between atoms: O_8  and  C_9
REMARK                            x       y       z     vdW  Elec       q    Type
REMARK                         _______ _______ _______ _____ _____    ______ ____
ROOT
ATOM      1  C   UNL     1       0.761   2.935 -24.740  0.00  0.00    +0.159 C 
ATOM      2  C   UNL     1      -0.436   3.011 -24.374  0.00  0.00    +0.158 C 
ATOM      3  O   UNL     1      -1.857   3.355 -24.762  0.00  0.00    -0.452 OA
ATOM      4  C   UNL     1      -2.843   3.168 -23.643  0.00  0.00    +0.174 A 
ATOM      5  C   UNL     1      -4.054   3.247 -23.275  0.00  0.00    +0.162 A 
ATOM      6  C   UNL     1      -4.369   2.934 -22.089  0.00  0.00    +0.050 A 
ATOM      7  C   UNL     1      -3.495   2.548 -21.282  0.00  0.00    +0.008 A 
ATOM      8  C   UNL     1      -2.298   2.472 -21.648  0.00  0.00    -0.038 A 
ATOM      9  C   UNL     1      -1.400   2.079 -20.828  0.00  0.00    +0.058 C 
ATOM     10  C   UNL     1      -0.206   2.002 -21.193  0.00  0.00    +0.088 C 
ATOM     11  C   UNL     1       0.112   2.315 -22.379  0.00  0.00    +0.051 C 
ATOM     12  C   UNL     1       1.321   2.236 -22.745  0.00  0.00    -0.017 C 
ATOM     13  N   UNL     1       1.181   1.879 -21.508  0.00  0.00    -0.300 N 
ATOM     14  C   UNL     1       2.029   1.485 -20.657  0.00  0.00    +0.328 C 
ATOM     15  O   UNL     1       1.673   1.184 -19.492  0.00  0.00    -0.279 OA
ATOM     16  C   UNL     1       1.569   2.220 -22.822  0.00  0.00    +0.109 C 
ATOM     17  C   UNL     1       0.560   2.651 -23.711  0.00  0.00    +0.039 C 
ATOM     18  C   UNL     1      -1.961   2.778 -22.824  0.00  0.00    +0.016 A 
ATOM     19  C   UNL     1      -0.766   2.700 -23.184  0.00  0.00    +0.070 C 
ATOM     20  C   UNL     1       1.639   2.544 -23.917  0.00  0.00    +0.045 C 
ENDROOT
BRANCH   1  22
ATOM     21  C   UNL     1       1.195   4.446 -26.233  0.00  0.00    +0.277 C 
ATOM     22  O   UNL     1       1.084   3.242 -25.911  0.00  0.00    -0.492 OA
ENDBRANCH   1  22
BRANCH   5  23
ATOM     23  O   UNL     1      -4.933   3.632 -24.081  0.00  0.00    -0.491 OA
ATOM     24  C   UNL     1      -4.801   4.725 -24.678  0.00  0.00    +0.277 C 
ENDBRANCH   5  23
TORSDOF 2
ENDMDL
MODEL 5
REMARK VINA RESULT:    -8.396      2.582      5.655
REMARK INTER + INTRA:          -8.321
REMARK INTER:                  -9.353
REMARK INTRA:                   1.032
REMARK UNBOUND:                 1.057
REMARK  Name = ZINC000096316353
REMARK  4 active torsions:
REMARK  status: ('A' for Active; 'I' for Inactive)
REMARK    1  A    between atoms: C_1  and  O_2
REMARK    2  A    between atoms: O_2  and  C_3
REMARK    3  A    between atoms: C_7  and  O_8
REMARK    4  A    between atoms: O_8  and  C_9
REMARK                            x       y       z     vdW  Elec       q    Type
REMARK                         _______ _______ _______ _____ _____    ______ ____
ROOT
ATOM      1  C   UNL     1       2.689   5.197 -23.153  0.00  0.00    +0.159 C 
ATOM      2  C   UNL     1       1.484   4.924 -23.366  0.00  0.00    +0.158 C 
ATOM      3  O   UNL     1       0.130   5.437 -23.802  0.00  0.00    -0.452 OA
ATOM      4  C   UNL     1      -0.939   4.381 -23.796  0.00  0.00    +0.174 A 
ATOM      5  C   UNL     1      -2.158   4.108 -24.013  0.00  0.00    +0.162 A 
ATOM      6  C   UNL     1      -2.578   2.927 -23.827  0.00  0.00    +0.050 A 
ATOM      7  C   UNL     1      -1.797   2.032 -23.433  0.00  0.00    +0.008 A 
ATOM      8  C   UNL     1      -0.592   2.305 -23.219  0.00  0.00    -0.038 A 
ATOM      9  C   UNL     1       0.209   1.395 -22.816  0.00  0.00    +0.058 C 
ATOM     10  C   UNL     1       1.412   1.668 -22.603  0.00  0.00    +0.088 C 
ATOM     11  C   UNL     1       1.833   2.848 -22.788  0.00  0.00    +0.051 C 
ATOM     12  C   UNL     1       3.051   3.120 -22.572  0.00  0.00    -0.017 C 
ATOM     13  N   UNL     1       2.798   1.872 -22.332  0.00  0.00    -0.300 N 
ATOM     14  C   UNL     1       3.549   0.936 -21.934  0.00  0.00    +0.328 C 
ATOM     15  O   UNL     1       3.092  -0.221 -21.763  0.00  0.00    -0.279 OA
ATOM     16  C   UNL     1       3.301   3.177 -22.528  0.00  0.00    +0.109 C 
ATOM     17  C   UNL     1       2.396   4.166 -22.974  0.00  0.00    +0.039 C 
ATOM     18  C   UNL     1      -0.153   3.474 -23.397  0.00  0.00    +0.016 A 
ATOM     19  C   UNL     1       1.050   3.741 -23.183  0.00  0.00    +0.070 C 
ATOM     20  C   UNL     1       3.471   4.286 -22.754  0.00  0.00    +0.045 C 
ENDROOT
BRANCH   1  22
ATOM     21  C   UNL     1       3.615   6.998 -22.379  0.00  0.00    +0.277 C 
ATOM     22  O   UNL     1       3.114   6.361 -23.333  0.00  0.00    -0.492 OA
ENDBRANCH   1  22
BRANCH   5  23
ATOM     23  O   UNL     1      -2.943   5.001 -24.408  0.00  0.00    -0.491 OA
ATOM     24  C   UNL     1      -3.901   4.707 -25.160  0.00  0.00    +0.277 C 
ENDBRANCH   5  23
TORSDOF 2
ENDMDL
MODEL 6
REMARK VINA RESULT:    -7.702      3.095      6.764
REMARK INTER + INTRA:          -7.545
REMARK INTER:                  -8.568
REMARK INTRA:                   1.023
REMARK UNBOUND:                 1.057
REMARK  Name = ZINC000096316353
REMARK  4 active torsions:
REMARK  status: ('A' for Active; 'I' for Inactive)
REMARK    1  A    between atoms: C_1  and  O_2
REMARK    2  A    between atoms: O_2  and  C_3
REMARK    3  A    between atoms: C_7  and  O_8
REMARK    4  A    between atoms: O_8  and  C_9
REMARK                            x       y       z     vdW  Elec       q    Type
REMARK                         _______ _______ _______ _____ _____    ______ ____
ROOT
ATOM      1  C   UNL     1       5.031   4.327 -22.870  0.00  0.00    +0.159 C 
ATOM      2  C   UNL     1       3.794   4.175 -23.008  0.00  0.00    +0.158 C 
ATOM      3  O   UNL     1       2.502   4.749 -23.547  0.00  0.00    -0.452 OA
ATOM      4  C   UNL     1       1.307   3.875 -23.288  0.00  0.00    +0.174 A 
ATOM      5  C   UNL     1       0.056   3.725 -23.429  0.00  0.00    +0.162 A 
ATOM      6  C   UNL     1      -0.504   2.687 -22.968  0.00  0.00    +0.050 A 
ATOM      7  C   UNL     1       0.168   1.812 -22.377  0.00  0.00    +0.008 A 
ATOM      8  C   UNL     1       1.405   1.964 -22.240  0.00  0.00    -0.038 A 
ATOM      9  C   UNL     1       2.096   1.075 -21.637  0.00  0.00    +0.058 C 
ATOM     10  C   UNL     1       3.331   1.226 -21.499  0.00  0.00    +0.088 C 
ATOM     11  C   UNL     1       3.894   2.264 -21.959  0.00  0.00    +0.051 C 
ATOM     12  C   UNL     1       5.144   2.414 -21.818  0.00  0.00    -0.017 C 
ATOM     13  N   UNL     1       4.741   1.302 -21.290  0.00  0.00    -0.300 N 
ATOM     14  C   UNL     1       5.378   0.392 -20.686  0.00  0.00    +0.328 C 
ATOM     15  O   UNL     1       4.783  -0.622 -20.245  0.00  0.00    -0.279 OA
ATOM     16  C   UNL     1       5.400   2.446 -21.790  0.00  0.00    +0.109 C 
ATOM     17  C   UNL     1       4.615   3.415 -22.452  0.00  0.00    +0.039 C 
ATOM     18  C   UNL     1       1.984   2.990 -22.690  0.00  0.00    +0.016 A 
ATOM     19  C   UNL     1       3.218   3.136 -22.550  0.00  0.00    +0.070 C 
ATOM     20  C   UNL     1       5.703   3.439 -22.271  0.00  0.00    +0.045 C 
ENDROOT
BRANCH   1  22
ATOM     21  C   UNL     1       6.165   6.146 -22.541  0.00  0.00    +0.277 C 
ATOM     22  O   UNL     1       5.595   5.350 -23.321  0.00  0.00    -0.492 OA
ENDBRANCH   1  22
BRANCH   5  23
ATOM     23  O   UNL     1      -0.621   4.598 -24.020  0.00  0.00    -0.491 OA
ATOM     24  C   UNL     1      -1.865   4.478 -24.102  0.00  0.00    +0.277 C 
ENDBRANCH   5  23
TORSDOF 2
ENDMDL
MODEL 7
REMARK VINA RESULT:    -7.480      1.607      5.376
REMARK INTER + INTRA:          -7.297
REMARK INTER:                  -8.355
REMARK INTRA:                   1.058
REMARK UNBOUND:                 1.057
REMARK  Name = ZINC000096316353
REMARK  4 active torsions:
REMARK  status: ('A' for Active; 'I' for Inactive)
REMARK    1  A    between atoms: C_1  and  O_2
REMARK    2  A    between atoms: O_2  and  C_3
REMARK    3  A    between atoms: C_7  and  O_8
REMARK    4  A    between atoms: O_8  and  C_9
REMARK                            x       y       z     vdW  Elec       q    Type
REMARK                         _______ _______ _______ _____ _____    ______ ____
ROOT
ATOM      1  C   UNL     1      -2.124   2.620 -21.168  0.00  0.00    +0.159 C 
ATOM      2  C   UNL     1      -2.540   2.942 -22.306  0.00  0.00    +0.158 C 
ATOM      3  O   UNL     1      -3.720   3.386 -23.141  0.00  0.00    -0.452 OA
ATOM      4  C   UNL     1      -3.382   3.590 -24.591  0.00  0.00    +0.174 A 
ATOM      5  C   UNL     1      -3.807   3.916 -25.741  0.00  0.00    +0.162 A 
ATOM      6  C   UNL     1      -3.008   3.919 -26.724  0.00  0.00    +0.050 A 
ATOM      7  C   UNL     1      -1.808   3.603 -26.567  0.00  0.00    +0.008 A 
ATOM      8  C   UNL     1      -1.392   3.281 -25.429  0.00  0.00    -0.038 A 
ATOM      9  C   UNL     1      -0.167   2.957 -25.263  0.00  0.00    +0.058 C 
ATOM     10  C   UNL     1       0.249   2.635 -24.127  0.00  0.00    +0.088 C 
ATOM     11  C   UNL     1      -0.548   2.632 -23.142  0.00  0.00    +0.051 C 
ATOM     12  C   UNL     1      -0.123   2.306 -21.994  0.00  0.00    -0.017 C 
ATOM     13  N   UNL     1       0.823   2.254 -22.877  0.00  0.00    -0.300 N 
ATOM     14  C   UNL     1       2.043   1.942 -22.767  0.00  0.00    +0.328 C 
ATOM     15  O   UNL     1       2.800   1.959 -23.768  0.00  0.00    -0.279 OA
ATOM     16  C   UNL     1      -0.038   2.239 -21.758  0.00  0.00    +0.109 C 
ATOM     17  C   UNL     1      -1.387   2.601 -21.966  0.00  0.00    +0.039 C 
ATOM     18  C   UNL     1      -2.168   3.271 -24.436  0.00  0.00    +0.016 A 
ATOM     19  C   UNL     1      -1.748   2.949 -23.303  0.00  0.00    +0.070 C 
ATOM     20  C   UNL     1      -0.908   2.301 -21.018  0.00  0.00    +0.045 C 
ENDROOT
BRANCH   1  22
ATOM     21  C   UNL     1      -3.285   3.695 -19.685  0.00  0.00    +0.277 C 
ATOM     22  O   UNL     1      -2.904   2.614 -20.189  0.00  0.00    -0.492 OA
ENDBRANCH   1  22
BRANCH   5  23
ATOM     23  O   UNL     1      -5.008   4.233 -25.902  0.00  0.00    -0.491 OA
ATOM     24  C   UNL     1      -5.918   3.455 -25.536  0.00  0.00    +0.277 C 
ENDBRANCH   5  23
TORSDOF 2
ENDMDL
MODEL 8
REMARK VINA RESULT:    -7.421      3.913      7.479
REMARK INTER + INTRA:          -7.232
REMARK INTER:                  -8.289
REMARK INTRA:                   1.057
REMARK UNBOUND:                 1.057
REMARK  Name = ZINC000096316353
REMARK  4 active torsions:
REMARK  status: ('A' for Active; 'I' for Inactive)
REMARK    1  A    between atoms: C_1  and  O_2
REMARK    2  A    between atoms: O_2  and  C_3
REMARK    3  A    between atoms: C_7  and  O_8
REMARK    4  A    between atoms: O_8  and  C_9
REMARK                            x       y       z     vdW  Elec       q    Type
REMARK                         _______ _______ _______ _____ _____    ______ ____
ROOT
ATOM      1  C   UNL     1       4.286   6.715 -22.361  0.00  0.00    +0.159 C 
ATOM      2  C   UNL     1       3.372   5.999 -22.835  0.00  0.00    +0.158 C 
ATOM      3  O   UNL     1       1.909   5.899 -23.209  0.00  0.00    -0.452 OA
ATOM      4  C   UNL     1       1.531   4.564 -23.786  0.00  0.00    +0.174 A 
ATOM      5  C   UNL     1       0.605   3.842 -24.265  0.00  0.00    +0.162 A 
ATOM      6  C   UNL     1       0.863   2.660 -24.639  0.00  0.00    +0.050 A 
ATOM      7  C   UNL     1       2.023   2.202 -24.538  0.00  0.00    +0.008 A 
ATOM      8  C   UNL     1       2.937   2.918 -24.064  0.00  0.00    -0.038 A 
ATOM      9  C   UNL     1       4.124   2.456 -23.959  0.00  0.00    +0.058 C 
ATOM     10  C   UNL     1       5.036   3.171 -23.486  0.00  0.00    +0.088 C 
ATOM     11  C   UNL     1       4.780   4.354 -23.112  0.00  0.00    +0.051 C 
ATOM     12  C   UNL     1       5.706   5.074 -22.634  0.00  0.00    -0.017 C 
ATOM     13  N   UNL     1       6.145   3.901 -22.963  0.00  0.00    -0.300 N 
ATOM     14  C   UNL     1       7.301   3.395 -22.880  0.00  0.00    +0.328 C 
ATOM     15  O   UNL     1       7.514   2.219 -23.263  0.00  0.00    -0.279 OA
ATOM     16  C   UNL     1       5.894   5.223 -22.536  0.00  0.00    +0.109 C 
ATOM     17  C   UNL     1       4.575   5.712 -22.662  0.00  0.00    +0.039 C 
ATOM     18  C   UNL     1       2.703   4.098 -23.686  0.00  0.00    +0.016 A 
ATOM     19  C   UNL     1       3.618   4.808 -23.214  0.00  0.00    +0.070 C 
ATOM     20  C   UNL     1       5.456   6.244 -22.263  0.00  0.00    +0.045 C 
ENDROOT
BRANCH   1  22
ATOM     21  C   UNL     1       4.395   8.266 -20.850  0.00  0.00    +0.277 C 
ATOM     22  O   UNL     1       4.041   7.885 -21.989  0.00  0.00    -0.492 OA
ENDBRANCH   1  22
BRANCH   5  23
ATOM     23  O   UNL     1      -0.559   4.296 -24.368  0.00  0.00    -0.491 OA
ATOM     24  C   UNL     1      -1.272   4.430 -23.347  0.00  0.00    +0.277 C 
ENDBRANCH   5  23
TORSDOF 2
ENDMDL
MODEL 9
REMARK VINA RESULT:    -7.331      3.556      6.024
REMARK INTER + INTRA:          -7.131
REMARK INTER:                  -8.249
REMARK INTRA:                   1.118
REMARK UNBOUND:                 1.057
REMARK  Name = ZINC000096316353
REMARK  4 active torsions:
REMARK  status: ('A' for Active; 'I' for Inactive)
REMARK    1  A    between atoms: C_1  and  O_2
REMARK    2  A    between atoms: O_2  and  C_3
REMARK    3  A    between atoms: C_7  and  O_8
REMARK    4  A    between atoms: O_8  and  C_9
REMARK                            x       y       z     vdW  Elec       q    Type
REMARK                         _______ _______ _______ _____ _____    ______ ____
ROOT
ATOM      1  C   UNL     1       1.064   4.895 -23.458  0.00  0.00    +0.159 C 
ATOM      2  C   UNL     1       2.218   5.259 -23.129  0.00  0.00    +0.158 C 
ATOM      3  O   UNL     1       3.078   6.356 -22.540  0.00  0.00    -0.452 OA
ATOM      4  C   UNL     1       4.535   5.996 -22.464  0.00  0.00    +0.174 A 
ATOM      5  C   UNL     1       5.700   6.367 -22.130  0.00  0.00    +0.162 A 
ATOM      6  C   UNL     1       6.680   5.583 -22.304  0.00  0.00    +0.050 A 
ATOM      7  C   UNL     1       6.504   4.450 -22.803  0.00  0.00    +0.008 A 
ATOM      8  C   UNL     1       5.350   4.086 -23.133  0.00  0.00    -0.038 A 
ATOM      9  C   UNL     1       5.164   2.929 -23.643  0.00  0.00    +0.058 C 
ATOM     10  C   UNL     1       4.013   2.566 -23.972  0.00  0.00    +0.088 C 
ATOM     11  C   UNL     1       3.032   3.347 -23.798  0.00  0.00    +0.051 C 
ATOM     12  C   UNL     1       1.868   2.976 -24.132  0.00  0.00    -0.017 C 
ATOM     13  N   UNL     1       2.744   2.055 -24.380  0.00  0.00    -0.300 N 
ATOM     14  C   UNL     1       2.615   0.901 -24.880  0.00  0.00    +0.328 C 
ATOM     15  O   UNL     1       3.613   0.156 -25.036  0.00  0.00    -0.279 OA
ATOM     16  C   UNL     1       1.628   2.902 -24.200  0.00  0.00    +0.109 C 
ATOM     17  C   UNL     1       1.858   4.175 -23.635  0.00  0.00    +0.039 C 
ATOM     18  C   UNL     1       4.360   4.849 -22.968  0.00  0.00    +0.016 A 
ATOM     19  C   UNL     1       3.212   4.481 -23.299  0.00  0.00    +0.070 C 
ATOM     20  C   UNL     1       0.895   3.747 -23.962  0.00  0.00    +0.045 C 
ENDROOT
BRANCH   1  22
ATOM     21  C   UNL     1      -0.964   5.230 -22.769  0.00  0.00    +0.277 C 
ATOM     22  O   UNL     1       0.089   5.662 -23.290  0.00  0.00    -0.492 OA
ENDBRANCH   1  22
BRANCH   5  23
ATOM     23  O   UNL     1       5.881   7.501 -21.630  0.00  0.00    -0.491 OA
ATOM     24  C   UNL     1       6.979   7.785 -21.099  0.00  0.00    +0.277 C 
ENDBRANCH   5  23
TORSDOF 2
ENDMDL
