MODEL 1
REMARK VINA RESULT:    -8.563      0.000      0.000
REMARK INTER + INTRA:         -10.287
REMARK INTER:                 -12.193
REMARK INTRA:                   1.906
REMARK UNBOUND:                 0.528
REMARK  Name = ZINC000004098020
REMARK  11 active torsions:
REMARK  status: ('A' for Active; 'I' for Inactive)
REMARK    1  A    between atoms: C_1  and  O_2
REMARK    2  A    between atoms: O_2  and  C_3
REMARK    3  A    between atoms: C_5  and  O_6
REMARK    4  A    between atoms: C_7  and  C_8
REMARK    5  A    between atoms: C_9  and  C_10
REMARK    6  A    between atoms: C_12  and  O_13
REMARK    7  A    between atoms: O_13  and  C_14
REMARK    8  A    between atoms: C_16  and  O_17
REMARK    9  A    between atoms: O_17  and  C_18
REMARK   10  A    between atoms: C_25  and  C_26
REMARK   11  A    between atoms: C_28  and  C_29
REMARK                            x       y       z     vdW  Elec       q    Type
REMARK                         _______ _______ _______ _____ _____    ______ ____
ROOT
ATOM      1  C   UNL     1      -3.383   3.393 -24.677  0.00  0.00    +0.132 A 
ATOM      2  C   UNL     1      -2.343   3.139 -25.416  0.00  0.00    +0.092 A 
ATOM      3  C   UNL     1      -1.187   2.929 -24.860  0.00  0.00    +0.128 A 
ATOM      4  C   UNL     1      -1.071   2.972 -23.566  0.00  0.00    +0.028 A 
ATOM      5  C   UNL     1      -2.111   3.226 -22.827  0.00  0.00    -0.019 A 
ATOM      6  C   UNL     1      -1.994   3.269 -21.533  0.00  0.00    +0.090 C 
ATOM      7  C   UNL     1      -3.034   3.523 -20.796  0.00  0.00    +0.064 C 
ATOM      8  C   UNL     1      -2.918   3.566 -19.501  0.00  0.00    +0.064 C 
ATOM      9  N   UNL     1      -4.190   3.733 -21.352  0.00  0.00    +0.235 N 
ATOM     10  H   UNL     1      -4.382   4.711 -21.131  0.00  0.00    +0.202 HD
ATOM     11  H   UNL     1      -4.830   3.033 -20.975  0.00  0.00    +0.202 HD
ATOM     12  C   UNL     1      -4.306   3.690 -22.646  0.00  0.00    +0.095 C 
ATOM     13  C   UNL     1      -5.462   3.900 -23.202  0.00  0.00    +0.069 C 
ATOM     14  C   UNL     1      -3.267   3.436 -23.383  0.00  0.00    +0.045 A 
ENDROOT
BRANCH   4  15
ATOM     15  C   UNL     1       0.085   2.762 -23.009  0.00  0.00    -0.003 A 
ATOM     16  C   UNL     1       0.292   1.671 -22.332  0.00  0.00    -0.039 A 
ATOM     17  C   UNL     1       1.448   1.461 -21.776  0.00  0.00    +0.050 A 
ATOM     18  C   UNL     1       2.397   2.341 -21.897  0.00  0.00    +0.132 A 
ATOM     19  C   UNL     1       2.190   3.431 -22.574  0.00  0.00    +0.066 A 
ATOM     20  C   UNL     1       3.139   4.311 -22.695  0.00  0.00    +0.131 A 
ATOM     21  C   UNL     1       2.934   5.401 -23.372  0.00  0.00    +0.046 A 
ATOM     22  C   UNL     1       1.778   5.612 -23.928  0.00  0.00    +0.004 A 
ATOM     23  C   UNL     1       0.827   4.731 -23.808  0.00  0.00    +0.009 A 
ATOM     24  C   UNL     1      -0.657   0.791 -22.211  0.00  0.00    +0.044 C 
ATOM     25  C   UNL     1       1.034   3.641 -23.130  0.00  0.00    -0.003 A 
BRANCH  20  26
ATOM     26  O   UNL     1       4.295   4.100 -22.139  0.00  0.00    -0.494 OA
ATOM     27  C   UNL     1       5.381   4.530 -22.712  0.00  0.00    +0.277 C 
ENDBRANCH  20  26
BRANCH  18  28
ATOM     28  O   UNL     1       3.553   2.131 -21.341  0.00  0.00    -0.494 OA
ATOM     29  C   UNL     1       3.919   0.920 -21.041  0.00  0.00    +0.277 C 
ENDBRANCH  18  28
ENDBRANCH   4  15
BRANCH   1  31
ATOM     30  C   UNL     1      -4.827   3.038 -26.368  0.00  0.00    +0.277 C 
ATOM     31  O   UNL     1      -4.539   3.603 -25.234  0.00  0.00    -0.495 OA
ENDBRANCH   1  31
BRANCH   3  32
ATOM     32  O   UNL     1      -0.148   2.675 -25.597  0.00  0.00    -0.506 OA
ATOM     33  H   UNL     1      -0.108   2.995 -26.477  0.00  0.00    +0.292 HD
ENDBRANCH   3  32
TORSDOF 5
ENDMDL
MODEL 2
REMARK VINA RESULT:    -7.742      2.161      6.864
REMARK INTER + INTRA:          -9.251
REMARK INTER:                 -10.591
REMARK INTRA:                   1.341
REMARK UNBOUND:                 0.528
REMARK  Name = ZINC000004098020
REMARK  11 active torsions:
REMARK  status: ('A' for Active; 'I' for Inactive)
REMARK    1  A    between atoms: C_1  and  O_2
REMARK    2  A    between atoms: O_2  and  C_3
REMARK    3  A    between atoms: C_5  and  O_6
REMARK    4  A    between atoms: C_7  and  C_8
REMARK    5  A    between atoms: C_9  and  C_10
REMARK    6  A    between atoms: C_12  and  O_13
REMARK    7  A    between atoms: O_13  and  C_14
REMARK    8  A    between atoms: C_16  and  O_17
REMARK    9  A    between atoms: O_17  and  C_18
REMARK   10  A    between atoms: C_25  and  C_26
REMARK   11  A    between atoms: C_28  and  C_29
REMARK                            x       y       z     vdW  Elec       q    Type
REMARK                         _______ _______ _______ _____ _____    ______ ____
ROOT
ATOM      1  C   UNL     1       3.800   1.414 -22.057  0.00  0.00    +0.132 A 
ATOM      2  C   UNL     1       2.832   0.575 -22.282  0.00  0.00    +0.092 A 
ATOM      3  C   UNL     1       1.704   0.999 -22.767  0.00  0.00    +0.128 A 
ATOM      4  C   UNL     1       1.543   2.263 -23.028  0.00  0.00    +0.028 A 
ATOM      5  C   UNL     1       2.511   3.102 -22.804  0.00  0.00    -0.019 A 
ATOM      6  C   UNL     1       2.350   4.365 -23.065  0.00  0.00    +0.090 C 
ATOM      7  C   UNL     1       3.317   5.203 -22.841  0.00  0.00    +0.064 C 
ATOM      8  C   UNL     1       3.157   6.467 -23.102  0.00  0.00    +0.064 C 
ATOM      9  N   UNL     1       4.446   4.778 -22.355  0.00  0.00    +0.235 N 
ATOM     10  H   UNL     1       4.484   5.215 -21.434  0.00  0.00    +0.202 HD
ATOM     11  H   UNL     1       5.171   5.035 -23.026  0.00  0.00    +0.202 HD
ATOM     12  C   UNL     1       4.607   3.515 -22.094  0.00  0.00    +0.095 C 
ATOM     13  C   UNL     1       5.736   3.090 -21.609  0.00  0.00    +0.069 C 
ATOM     14  C   UNL     1       3.639   2.677 -22.319  0.00  0.00    +0.045 A 
ENDROOT
BRANCH   4  15
ATOM     15  C   UNL     1       0.414   2.687 -23.514  0.00  0.00    -0.003 A 
ATOM     16  C   UNL     1       0.325   2.999 -24.774  0.00  0.00    -0.039 A 
ATOM     17  C   UNL     1      -0.804   3.424 -25.259  0.00  0.00    +0.050 A 
ATOM     18  C   UNL     1      -1.843   3.537 -24.485  0.00  0.00    +0.132 A 
ATOM     19  C   UNL     1      -1.753   3.225 -23.227  0.00  0.00    +0.066 A 
ATOM     20  C   UNL     1      -2.791   3.339 -22.453  0.00  0.00    +0.131 A 
ATOM     21  C   UNL     1      -2.703   3.027 -21.194  0.00  0.00    +0.046 A 
ATOM     22  C   UNL     1      -1.574   2.602 -20.709  0.00  0.00    +0.004 A 
ATOM     23  C   UNL     1      -0.534   2.489 -21.482  0.00  0.00    +0.009 A 
ATOM     24  C   UNL     1       1.363   2.886 -25.547  0.00  0.00    +0.044 C 
ATOM     25  C   UNL     1      -0.624   2.801 -22.741  0.00  0.00    -0.003 A 
BRANCH  20  26
ATOM     26  O   UNL     1      -3.920   3.763 -22.939  0.00  0.00    -0.494 OA
ATOM     27  C   UNL     1      -5.043   3.392 -22.397  0.00  0.00    +0.277 C 
ENDBRANCH  20  26
BRANCH  18  28
ATOM     28  O   UNL     1      -2.971   3.962 -24.971  0.00  0.00    -0.494 OA
ATOM     29  C   UNL     1      -3.301   3.675 -26.195  0.00  0.00    +0.277 C 
ENDBRANCH  18  28
ENDBRANCH   4  15
BRANCH   1  31
ATOM     30  C   UNL     1       4.940   0.021 -20.704  0.00  0.00    +0.277 C 
ATOM     31  O   UNL     1       4.929   0.989 -21.572  0.00  0.00    -0.495 OA
ENDBRANCH   1  31
BRANCH   3  32
ATOM     32  O   UNL     1       0.736   0.161 -22.992  0.00  0.00    -0.506 OA
ATOM     33  H   UNL     1       0.420   0.033 -23.864  0.00  0.00    +0.292 HD
ENDBRANCH   3  32
TORSDOF 5
ENDMDL
MODEL 3
REMARK VINA RESULT:    -7.629      2.115      6.790
REMARK INTER + INTRA:          -9.108
REMARK INTER:                  -9.785
REMARK INTRA:                   0.677
REMARK UNBOUND:                 0.528
REMARK  Name = ZINC000004098020
REMARK  11 active torsions:
REMARK  status: ('A' for Active; 'I' for Inactive)
REMARK    1  A    between atoms: C_1  and  O_2
REMARK    2  A    between atoms: O_2  and  C_3
REMARK    3  A    between atoms: C_5  and  O_6
REMARK    4  A    between atoms: C_7  and  C_8
REMARK    5  A    between atoms: C_9  and  C_10
REMARK    6  A    between atoms: C_12  and  O_13
REMARK    7  A    between atoms: O_13  and  C_14
REMARK    8  A    between atoms: C_16  and  O_17
REMARK    9  A    between atoms: O_17  and  C_18
REMARK   10  A    between atoms: C_25  and  C_26
REMARK   11  A    between atoms: C_28  and  C_29
REMARK                            x       y       z     vdW  Elec       q    Type
REMARK                         _______ _______ _______ _____ _____    ______ ____
ROOT
ATOM      1  C   UNL     1       3.744   4.377 -22.608  0.00  0.00    +0.132 A 
ATOM      2  C   UNL     1       2.985   5.377 -22.944  0.00  0.00    +0.092 A 
ATOM      3  C   UNL     1       1.776   5.160 -23.372  0.00  0.00    +0.128 A 
ATOM      4  C   UNL     1       1.328   3.944 -23.463  0.00  0.00    +0.028 A 
ATOM      5  C   UNL     1       2.087   2.943 -23.127  0.00  0.00    -0.019 A 
ATOM      6  C   UNL     1       1.639   1.727 -23.219  0.00  0.00    +0.090 C 
ATOM      7  C   UNL     1       2.398   0.727 -22.883  0.00  0.00    +0.064 C 
ATOM      8  C   UNL     1       1.950  -0.490 -22.975  0.00  0.00    +0.064 C 
ATOM      9  N   UNL     1       3.607   0.944 -22.456  0.00  0.00    +0.235 N 
ATOM     10  H   UNL     1       4.191   0.532 -23.184  0.00  0.00    +0.202 HD
ATOM     11  H   UNL     1       3.666   0.537 -21.522  0.00  0.00    +0.202 HD
ATOM     12  C   UNL     1       4.055   2.161 -22.364  0.00  0.00    +0.095 C 
ATOM     13  C   UNL     1       5.264   2.377 -21.936  0.00  0.00    +0.069 C 
ATOM     14  C   UNL     1       3.296   3.160 -22.700  0.00  0.00    +0.045 A 
ENDROOT
BRANCH   4  15
ATOM     15  C   UNL     1       0.119   3.727 -23.891  0.00  0.00    -0.003 A 
ATOM     16  C   UNL     1      -0.122   3.693 -25.169  0.00  0.00    -0.039 A 
ATOM     17  C   UNL     1      -1.331   3.476 -25.596  0.00  0.00    +0.050 A 
ATOM     18  C   UNL     1      -2.298   3.293 -24.746  0.00  0.00    +0.132 A 
ATOM     19  C   UNL     1      -2.056   3.327 -23.470  0.00  0.00    +0.066 A 
ATOM     20  C   UNL     1      -3.023   3.144 -22.620  0.00  0.00    +0.131 A 
ATOM     21  C   UNL     1      -2.782   3.177 -21.343  0.00  0.00    +0.046 A 
ATOM     22  C   UNL     1      -1.574   3.394 -20.916  0.00  0.00    +0.004 A 
ATOM     23  C   UNL     1      -0.606   3.577 -21.765  0.00  0.00    +0.009 A 
ATOM     24  C   UNL     1       0.845   3.876 -26.018  0.00  0.00    +0.044 C 
ATOM     25  C   UNL     1      -0.848   3.544 -23.042  0.00  0.00    -0.003 A 
BRANCH  20  26
ATOM     26  O   UNL     1      -4.231   2.927 -23.048  0.00  0.00    -0.494 OA
ATOM     27  C   UNL     1      -5.251   3.354 -22.362  0.00  0.00    +0.277 C 
ENDBRANCH  20  26
BRANCH  18  28
ATOM     28  O   UNL     1      -3.506   3.076 -25.174  0.00  0.00    -0.494 OA
ATOM     29  C   UNL     1      -3.779   3.197 -26.439  0.00  0.00    +0.277 C 
ENDBRANCH  18  28
ENDBRANCH   4  15
BRANCH   1  31
ATOM     30  C   UNL     1       5.593   5.661 -22.555  0.00  0.00    +0.277 C 
ATOM     31  O   UNL     1       4.953   4.593 -22.181  0.00  0.00    -0.495 OA
ENDBRANCH   1  31
BRANCH   3  32
ATOM     32  O   UNL     1       1.017   6.160 -23.708  0.00  0.00    -0.506 OA
ATOM     33  H   UNL     1       0.364   6.472 -23.113  0.00  0.00    +0.292 HD
ENDBRANCH   3  32
TORSDOF 5
ENDMDL
MODEL 4
REMARK VINA RESULT:    -7.251      1.194      2.757
REMARK INTER + INTRA:          -8.630
REMARK INTER:                  -9.320
REMARK INTRA:                   0.689
REMARK UNBOUND:                 0.528
REMARK  Name = ZINC000004098020
REMARK  11 active torsions:
REMARK  status: ('A' for Active; 'I' for Inactive)
REMARK    1  A    between atoms: C_1  and  O_2
REMARK    2  A    between atoms: O_2  and  C_3
REMARK    3  A    between atoms: C_5  and  O_6
REMARK    4  A    between atoms: C_7  and  C_8
REMARK    5  A    between atoms: C_9  and  C_10
REMARK    6  A    between atoms: C_12  and  O_13
REMARK    7  A    between atoms: O_13  and  C_14
REMARK    8  A    between atoms: C_16  and  O_17
REMARK    9  A    between atoms: O_17  and  C_18
REMARK   10  A    between atoms: C_25  and  C_26
REMARK   11  A    between atoms: C_28  and  C_29
REMARK                            x       y       z     vdW  Elec       q    Type
REMARK                         _______ _______ _______ _____ _____    ______ ____
ROOT
ATOM      1  C   UNL     1      -2.164   3.404 -25.412  0.00  0.00    +0.132 A 
ATOM      2  C   UNL     1      -1.071   3.416 -26.117  0.00  0.00    +0.092 A 
ATOM      3  C   UNL     1       0.084   3.463 -25.523  0.00  0.00    +0.128 A 
ATOM      4  C   UNL     1       0.148   3.498 -24.226  0.00  0.00    +0.028 A 
ATOM      5  C   UNL     1      -0.945   3.486 -23.520  0.00  0.00    -0.019 A 
ATOM      6  C   UNL     1      -0.881   3.521 -22.223  0.00  0.00    +0.090 C 
ATOM      7  C   UNL     1      -1.973   3.509 -21.518  0.00  0.00    +0.064 C 
ATOM      8  C   UNL     1      -1.910   3.544 -20.220  0.00  0.00    +0.064 C 
ATOM      9  N   UNL     1      -3.129   3.462 -22.112  0.00  0.00    +0.235 N 
ATOM     10  H   UNL     1      -3.548   4.363 -21.880  0.00  0.00    +0.202 HD
ATOM     11  H   UNL     1      -3.601   2.624 -21.771  0.00  0.00    +0.202 HD
ATOM     12  C   UNL     1      -3.193   3.427 -23.409  0.00  0.00    +0.095 C 
ATOM     13  C   UNL     1      -4.348   3.380 -24.003  0.00  0.00    +0.069 C 
ATOM     14  C   UNL     1      -2.100   3.439 -24.114  0.00  0.00    +0.045 A 
ENDROOT
BRANCH   4  15
ATOM     15  C   UNL     1       1.304   3.545 -23.632  0.00  0.00    -0.003 A 
ATOM     16  C   UNL     1       1.910   4.685 -23.478  0.00  0.00    -0.039 A 
ATOM     17  C   UNL     1       3.065   4.732 -22.885  0.00  0.00    +0.050 A 
ATOM     18  C   UNL     1       3.615   3.638 -22.445  0.00  0.00    +0.132 A 
ATOM     19  C   UNL     1       3.009   2.499 -22.600  0.00  0.00    +0.066 A 
ATOM     20  C   UNL     1       3.559   1.406 -22.160  0.00  0.00    +0.131 A 
ATOM     21  C   UNL     1       2.954   0.266 -22.314  0.00  0.00    +0.046 A 
ATOM     22  C   UNL     1       1.798   0.219 -22.908  0.00  0.00    +0.004 A 
ATOM     23  C   UNL     1       1.247   1.313 -23.347  0.00  0.00    +0.009 A 
ATOM     24  C   UNL     1       1.360   5.778 -23.917  0.00  0.00    +0.044 C 
ATOM     25  C   UNL     1       1.853   2.452 -23.193  0.00  0.00    -0.003 A 
BRANCH  20  26
ATOM     26  O   UNL     1       4.714   1.453 -21.567  0.00  0.00    -0.494 OA
ATOM     27  C   UNL     1       5.044   0.531 -20.710  0.00  0.00    +0.277 C 
ENDBRANCH  20  26
BRANCH  18  28
ATOM     28  O   UNL     1       4.771   3.685 -21.852  0.00  0.00    -0.494 OA
ATOM     29  C   UNL     1       5.726   4.416 -22.345  0.00  0.00    +0.277 C 
ENDBRANCH  18  28
ENDBRANCH   4  15
BRANCH   1  31
ATOM     30  C   UNL     1      -3.402   3.571 -27.284  0.00  0.00    +0.277 C 
ATOM     31  O   UNL     1      -3.320   3.358 -26.005  0.00  0.00    -0.495 OA
ENDBRANCH   1  31
BRANCH   3  32
ATOM     32  O   UNL     1       1.176   3.475 -26.228  0.00  0.00    -0.506 OA
ATOM     33  H   UNL     1       1.286   4.106 -26.911  0.00  0.00    +0.292 HD
ENDBRANCH   3  32
TORSDOF 5
ENDMDL
MODEL 5
REMARK VINA RESULT:    -7.208      1.829      3.796
REMARK INTER + INTRA:          -8.576
REMARK INTER:                  -9.799
REMARK INTRA:                   1.223
REMARK UNBOUND:                 0.528
REMARK  Name = ZINC000004098020
REMARK  11 active torsions:
REMARK  status: ('A' for Active; 'I' for Inactive)
REMARK    1  A    between atoms: C_1  and  O_2
REMARK    2  A    between atoms: O_2  and  C_3
REMARK    3  A    between atoms: C_5  and  O_6
REMARK    4  A    between atoms: C_7  and  C_8
REMARK    5  A    between atoms: C_9  and  C_10
REMARK    6  A    between atoms: C_12  and  O_13
REMARK    7  A    between atoms: O_13  and  C_14
REMARK    8  A    between atoms: C_16  and  O_17
REMARK    9  A    between atoms: O_17  and  C_18
REMARK   10  A    between atoms: C_25  and  C_26
REMARK   11  A    between atoms: C_28  and  C_29
REMARK                            x       y       z     vdW  Elec       q    Type
REMARK                         _______ _______ _______ _____ _____    ______ ____
ROOT
ATOM      1  C   UNL     1      -4.648   3.557 -22.511  0.00  0.00    +0.132 A 
ATOM      2  C   UNL     1      -3.899   3.643 -21.452  0.00  0.00    +0.092 A 
ATOM      3  C   UNL     1      -2.609   3.745 -21.575  0.00  0.00    +0.128 A 
ATOM      4  C   UNL     1      -2.068   3.759 -22.756  0.00  0.00    +0.028 A 
ATOM      5  C   UNL     1      -2.817   3.673 -23.816  0.00  0.00    -0.019 A 
ATOM      6  C   UNL     1      -2.276   3.688 -24.997  0.00  0.00    +0.090 C 
ATOM      7  C   UNL     1      -3.025   3.601 -26.056  0.00  0.00    +0.064 C 
ATOM      8  C   UNL     1      -2.483   3.616 -27.239  0.00  0.00    +0.064 C 
ATOM      9  N   UNL     1      -4.315   3.500 -25.933  0.00  0.00    +0.235 N 
ATOM     10  H   UNL     1      -4.512   2.566 -26.294  0.00  0.00    +0.202 HD
ATOM     11  H   UNL     1      -4.721   4.291 -26.434  0.00  0.00    +0.202 HD
ATOM     12  C   UNL     1      -4.856   3.485 -24.751  0.00  0.00    +0.095 C 
ATOM     13  C   UNL     1      -6.146   3.384 -24.628  0.00  0.00    +0.069 C 
ATOM     14  C   UNL     1      -4.107   3.572 -23.693  0.00  0.00    +0.045 A 
ENDROOT
BRANCH   4  15
ATOM     15  C   UNL     1      -0.778   3.861 -22.879  0.00  0.00    -0.003 A 
ATOM     16  C   UNL     1      -0.244   4.998 -23.214  0.00  0.00    -0.039 A 
ATOM     17  C   UNL     1       1.047   5.100 -23.337  0.00  0.00    +0.050 A 
ATOM     18  C   UNL     1       1.803   4.063 -23.125  0.00  0.00    +0.132 A 
ATOM     19  C   UNL     1       1.269   2.926 -22.790  0.00  0.00    +0.066 A 
ATOM     20  C   UNL     1       2.025   1.891 -22.579  0.00  0.00    +0.131 A 
ATOM     21  C   UNL     1       1.492   0.753 -22.244  0.00  0.00    +0.046 A 
ATOM     22  C   UNL     1       0.202   0.652 -22.121  0.00  0.00    +0.004 A 
ATOM     23  C   UNL     1      -0.555   1.688 -22.333  0.00  0.00    +0.009 A 
ATOM     24  C   UNL     1      -1.000   6.034 -23.426  0.00  0.00    +0.044 C 
ATOM     25  C   UNL     1      -0.021   2.825 -22.667  0.00  0.00    -0.003 A 
BRANCH  20  26
ATOM     26  O   UNL     1       3.315   1.992 -22.702  0.00  0.00    -0.494 OA
ATOM     27  C   UNL     1       4.067   0.940 -22.557  0.00  0.00    +0.277 C 
ENDBRANCH  20  26
BRANCH  18  28
ATOM     28  O   UNL     1       3.093   4.164 -23.248  0.00  0.00    -0.494 OA
ATOM     29  C   UNL     1       3.684   5.292 -22.988  0.00  0.00    +0.277 C 
ENDBRANCH  18  28
ENDBRANCH   4  15
BRANCH   1  31
ATOM     30  C   UNL     1      -6.446   2.665 -21.490  0.00  0.00    +0.277 C 
ATOM     31  O   UNL     1      -5.938   3.456 -22.388  0.00  0.00    -0.495 OA
ENDBRANCH   1  31
BRANCH   3  32
ATOM     32  O   UNL     1      -1.860   3.831 -20.516  0.00  0.00    -0.506 OA
ATOM     33  H   UNL     1      -1.457   4.647 -20.292  0.00  0.00    +0.292 HD
ENDBRANCH   3  32
TORSDOF 5
ENDMDL
MODEL 6
REMARK VINA RESULT:    -7.124      1.652      2.806
REMARK INTER + INTRA:          -8.471
REMARK INTER:                 -10.400
REMARK INTRA:                   1.930
REMARK UNBOUND:                 0.528
REMARK  Name = ZINC000004098020
REMARK  11 active torsions:
REMARK  status: ('A' for Active; 'I' for Inactive)
REMARK    1  A    between atoms: C_1  and  O_2
REMARK    2  A    between atoms: O_2  and  C_3
REMARK    3  A    between atoms: C_5  and  O_6
REMARK    4  A    between atoms: C_7  and  C_8
REMARK    5  A    between atoms: C_9  and  C_10
REMARK    6  A    between atoms: C_12  and  O_13
REMARK    7  A    between atoms: O_13  and  C_14
REMARK    8  A    between atoms: C_16  and  O_17
REMARK    9  A    between atoms: O_17  and  C_18
REMARK   10  A    between atoms: C_25  and  C_26
REMARK   11  A    between atoms: C_28  and  C_29
REMARK                            x       y       z     vdW  Elec       q    Type
REMARK                         _______ _______ _______ _____ _____    ______ ____
ROOT
ATOM      1  C   UNL     1      -4.245   3.486 -22.274  0.00  0.00    +0.132 A 
ATOM      2  C   UNL     1      -3.560   3.243 -21.195  0.00  0.00    +0.092 A 
ATOM      3  C   UNL     1      -2.294   2.963 -21.279  0.00  0.00    +0.128 A 
ATOM      4  C   UNL     1      -1.711   2.926 -22.441  0.00  0.00    +0.028 A 
ATOM      5  C   UNL     1      -2.396   3.170 -23.520  0.00  0.00    -0.019 A 
ATOM      6  C   UNL     1      -1.814   3.133 -24.681  0.00  0.00    +0.090 C 
ATOM      7  C   UNL     1      -2.498   3.377 -25.759  0.00  0.00    +0.064 C 
ATOM      8  C   UNL     1      -1.916   3.340 -26.921  0.00  0.00    +0.064 C 
ATOM      9  N   UNL     1      -3.765   3.657 -25.675  0.00  0.00    +0.235 N 
ATOM     10  H   UNL     1      -4.211   2.864 -26.137  0.00  0.00    +0.202 HD
ATOM     11  H   UNL     1      -3.892   4.577 -26.097  0.00  0.00    +0.202 HD
ATOM     12  C   UNL     1      -4.347   3.693 -24.513  0.00  0.00    +0.095 C 
ATOM     13  C   UNL     1      -5.614   3.973 -24.429  0.00  0.00    +0.069 C 
ATOM     14  C   UNL     1      -3.663   3.450 -23.436  0.00  0.00    +0.045 A 
ENDROOT
BRANCH   4  15
ATOM     15  C   UNL     1      -0.445   2.646 -22.525  0.00  0.00    -0.003 A 
ATOM     16  C   UNL     1      -0.031   1.434 -22.302  0.00  0.00    -0.039 A 
ATOM     17  C   UNL     1       1.236   1.154 -22.386  0.00  0.00    +0.050 A 
ATOM     18  C   UNL     1       2.089   2.086 -22.693  0.00  0.00    +0.132 A 
ATOM     19  C   UNL     1       1.675   3.298 -22.915  0.00  0.00    +0.066 A 
ATOM     20  C   UNL     1       2.527   4.230 -23.222  0.00  0.00    +0.131 A 
ATOM     21  C   UNL     1       2.114   5.442 -23.445  0.00  0.00    +0.046 A 
ATOM     22  C   UNL     1       0.847   5.722 -23.361  0.00  0.00    +0.004 A 
ATOM     23  C   UNL     1      -0.006   4.790 -23.054  0.00  0.00    +0.009 A 
ATOM     24  C   UNL     1      -0.883   0.502 -21.995  0.00  0.00    +0.044 C 
ATOM     25  C   UNL     1       0.408   3.578 -22.832  0.00  0.00    -0.003 A 
BRANCH  20  26
ATOM     26  O   UNL     1       3.794   3.950 -23.306  0.00  0.00    -0.494 OA
ATOM     27  C   UNL     1       4.681   4.862 -23.036  0.00  0.00    +0.277 C 
ENDBRANCH  20  26
BRANCH  18  28
ATOM     28  O   UNL     1       3.355   1.806 -22.777  0.00  0.00    -0.494 OA
ATOM     29  C   UNL     1       3.827   0.746 -22.192  0.00  0.00    +0.277 C 
ENDBRANCH  18  28
ENDBRANCH   4  15
BRANCH   1  31
ATOM     30  C   UNL     1      -6.327   2.925 -21.628  0.00  0.00    +0.277 C 
ATOM     31  O   UNL     1      -5.512   3.766 -22.190  0.00  0.00    -0.495 OA
ENDBRANCH   1  31
BRANCH   3  32
ATOM     32  O   UNL     1      -1.609   2.719 -20.202  0.00  0.00    -0.506 OA
ATOM     33  H   UNL     1      -1.145   3.412 -19.775  0.00  0.00    +0.292 HD
ENDBRANCH   3  32
TORSDOF 5
ENDMDL
