MODEL 1
REMARK VINA RESULT:    -9.314      0.000      0.000
REMARK INTER + INTRA:          -9.858
REMARK INTER:                  -9.858
REMARK INTRA:                   0.000
REMARK UNBOUND:                 0.000
REMARK  Name = ZINC000004104703
REMARK  4 active torsions:
REMARK  status: ('A' for Active; 'I' for Inactive)
REMARK    1  A    between atoms: C_1  and  C_2
REMARK    2  A    between atoms: C_5  and  O_6
REMARK    3  A    between atoms: C_14  and  C_15
REMARK    4  A    between atoms: C_14  and  C_16
REMARK                            x       y       z     vdW  Elec       q    Type
REMARK                         _______ _______ _______ _____ _____    ______ ____
ROOT
ATOM      1  C   UNL     1      -1.796   3.751 -25.437  0.00  0.00    +0.008 C 
ATOM      2  C   UNL     1      -2.923   3.766 -24.792  0.00  0.00    -0.007 C 
ATOM      3  C   UNL     1      -4.051   4.235 -25.236  0.00  0.00    +0.007 C 
ATOM      4  C   UNL     1      -4.948   4.075 -24.307  0.00  0.00    +0.043 C 
ATOM      5  C   UNL     1      -4.373   3.506 -23.290  0.00  0.00    +0.127 C 
ATOM      6  C   UNL     1      -4.998   3.206 -22.190  0.00  0.00    +0.165 C 
ATOM      7  C   UNL     1      -4.526   2.641 -21.117  0.00  0.00    +0.078 C 
ATOM      8  C   UNL     1      -3.314   2.237 -20.880  0.00  0.00    +0.012 C 
ATOM      9  C   UNL     1      -2.273   2.298 -21.657  0.00  0.00    -0.001 C 
ATOM     10  C   UNL     1      -2.187   2.778 -22.862  0.00  0.00    +0.005 C 
ATOM     11  C   UNL     1      -1.136   2.274 -22.287  0.00  0.00    -0.028 C 
ATOM     12  C   UNL     1      -0.389   1.710 -21.384  0.00  0.00    +0.011 C 
ATOM     13  C   UNL     1      -0.259   2.445 -23.230  0.00  0.00    +0.011 C 
ATOM     14  O   UNL     1      -6.261   3.511 -22.158  0.00  0.00    -0.294 OA
ATOM     15  C   UNL     1      -3.122   3.315 -23.588  0.00  0.00    +0.035 C 
ENDROOT
BRANCH   5  16
ATOM     16  O   UNL     1      -5.639   3.789 -23.203  0.00  0.00    -0.381 OA
ATOM     17  H   UNL     1      -6.156   2.969 -23.229  0.00  0.00    +0.211 HD
ENDBRANCH   5  16
TORSDOF 1
ENDMDL
MODEL 2
REMARK VINA RESULT:    -9.101      2.226      3.649
REMARK INTER + INTRA:          -9.634
REMARK INTER:                  -9.634
REMARK INTRA:                   0.000
REMARK UNBOUND:                 0.000
REMARK  Name = ZINC000004104703
REMARK  4 active torsions:
REMARK  status: ('A' for Active; 'I' for Inactive)
REMARK    1  A    between atoms: C_1  and  C_2
REMARK    2  A    between atoms: C_5  and  O_6
REMARK    3  A    between atoms: C_14  and  C_15
REMARK    4  A    between atoms: C_14  and  C_16
REMARK                            x       y       z     vdW  Elec       q    Type
REMARK                         _______ _______ _______ _____ _____    ______ ____
ROOT
ATOM      1  C   UNL     1      -4.825   3.989 -24.979  0.00  0.00    +0.008 C 
ATOM      2  C   UNL     1      -3.570   3.648 -24.963  0.00  0.00    -0.007 C 
ATOM      3  C   UNL     1      -2.746   3.722 -25.965  0.00  0.00    +0.007 C 
ATOM      4  C   UNL     1      -1.586   3.293 -25.565  0.00  0.00    +0.043 C 
ATOM      5  C   UNL     1      -1.694   2.954 -24.315  0.00  0.00    +0.127 C 
ATOM      6  C   UNL     1      -0.705   2.482 -23.614  0.00  0.00    +0.165 C 
ATOM      7  C   UNL     1      -0.700   2.113 -22.366  0.00  0.00    +0.078 C 
ATOM      8  C   UNL     1      -1.681   2.125 -21.514  0.00  0.00    +0.012 C 
ATOM      9  C   UNL     1      -2.910   2.508 -21.697  0.00  0.00    -0.001 C 
ATOM     10  C   UNL     1      -3.461   2.974 -22.777  0.00  0.00    +0.005 C 
ATOM     11  C   UNL     1      -4.166   2.843 -21.693  0.00  0.00    -0.028 C 
ATOM     12  C   UNL     1      -4.471   2.562 -20.461  0.00  0.00    +0.011 C 
ATOM     13  C   UNL     1      -5.316   3.276 -22.117  0.00  0.00    +0.011 C 
ATOM     14  O   UNL     1       0.426   2.364 -24.242  0.00  0.00    -0.294 OA
ATOM     15  C   UNL     1      -2.920   3.173 -23.942  0.00  0.00    +0.035 C 
ENDROOT
BRANCH   5  16
ATOM     16  O   UNL     1      -0.538   2.815 -24.894  0.00  0.00    -0.381 OA
ATOM     17  H   UNL     1      -0.196   3.687 -25.147  0.00  0.00    +0.211 HD
ENDBRANCH   5  16
TORSDOF 1
ENDMDL
MODEL 3
REMARK VINA RESULT:    -9.094      1.068      2.983
REMARK INTER + INTRA:          -9.626
REMARK INTER:                  -9.626
REMARK INTRA:                   0.000
REMARK UNBOUND:                 0.000
REMARK  Name = ZINC000004104703
REMARK  4 active torsions:
REMARK  status: ('A' for Active; 'I' for Inactive)
REMARK    1  A    between atoms: C_1  and  C_2
REMARK    2  A    between atoms: C_5  and  O_6
REMARK    3  A    between atoms: C_14  and  C_15
REMARK    4  A    between atoms: C_14  and  C_16
REMARK                            x       y       z     vdW  Elec       q    Type
REMARK                         _______ _______ _______ _____ _____    ______ ____
ROOT
ATOM      1  C   UNL     1      -3.944   2.536 -20.630  0.00  0.00    +0.008 C 
ATOM      2  C   UNL     1      -4.280   2.986 -21.802  0.00  0.00    -0.007 C 
ATOM      3  C   UNL     1      -5.468   3.376 -22.158  0.00  0.00    +0.007 C 
ATOM      4  C   UNL     1      -5.412   3.758 -23.399  0.00  0.00    +0.043 C 
ATOM      5  C   UNL     1      -4.189   3.604 -23.810  0.00  0.00    +0.127 C 
ATOM      6  C   UNL     1      -3.797   3.896 -25.015  0.00  0.00    +0.165 C 
ATOM      7  C   UNL     1      -2.607   3.783 -25.530  0.00  0.00    +0.078 C 
ATOM      8  C   UNL     1      -1.518   3.351 -24.968  0.00  0.00    +0.012 C 
ATOM      9  C   UNL     1      -1.348   2.924 -23.751  0.00  0.00    -0.001 C 
ATOM     10  C   UNL     1      -2.225   2.825 -22.797  0.00  0.00    +0.005 C 
ATOM     11  C   UNL     1      -0.993   2.471 -22.586  0.00  0.00    -0.028 C 
ATOM     12  C   UNL     1       0.270   2.247 -22.807  0.00  0.00    +0.011 C 
ATOM     13  C   UNL     1      -1.074   2.095 -21.345  0.00  0.00    +0.011 C 
ATOM     14  O   UNL     1      -4.713   4.362 -25.810  0.00  0.00    -0.294 OA
ATOM     15  C   UNL     1      -3.489   3.127 -22.824  0.00  0.00    +0.035 C 
ENDROOT
BRANCH   5  16
ATOM     16  O   UNL     1      -5.066   4.074 -24.648  0.00  0.00    -0.381 OA
ATOM     17  H   UNL     1      -4.817   4.976 -24.903  0.00  0.00    +0.211 HD
ENDBRANCH   5  16
TORSDOF 1
ENDMDL
MODEL 4
REMARK VINA RESULT:    -8.726      2.066      4.326
REMARK INTER + INTRA:          -9.236
REMARK INTER:                  -9.236
REMARK INTRA:                   0.000
REMARK UNBOUND:                 0.000
REMARK  Name = ZINC000004104703
REMARK  4 active torsions:
REMARK  status: ('A' for Active; 'I' for Inactive)
REMARK    1  A    between atoms: C_1  and  C_2
REMARK    2  A    between atoms: C_5  and  O_6
REMARK    3  A    between atoms: C_14  and  C_15
REMARK    4  A    between atoms: C_14  and  C_16
REMARK                            x       y       z     vdW  Elec       q    Type
REMARK                         _______ _______ _______ _____ _____    ______ ____
ROOT
ATOM      1  C   UNL     1      -5.580   3.399 -22.566  0.00  0.00    +0.008 C 
ATOM      2  C   UNL     1      -4.372   3.140 -22.164  0.00  0.00    -0.007 C 
ATOM      3  C   UNL     1      -4.009   2.902 -20.939  0.00  0.00    +0.007 C 
ATOM      4  C   UNL     1      -2.726   2.689 -20.933  0.00  0.00    +0.043 C 
ATOM      5  C   UNL     1      -2.297   2.796 -22.155  0.00  0.00    +0.127 C 
ATOM      6  C   UNL     1      -1.051   2.639 -22.492  0.00  0.00    +0.165 C 
ATOM      7  C   UNL     1      -0.514   2.722 -23.674  0.00  0.00    +0.078 C 
ATOM      8  C   UNL     1      -1.090   2.982 -24.809  0.00  0.00    +0.012 C 
ATOM      9  C   UNL     1      -2.346   3.224 -25.044  0.00  0.00    -0.001 C 
ATOM     10  C   UNL     1      -3.335   3.265 -24.202  0.00  0.00    +0.005 C 
ATOM     11  C   UNL     1      -3.548   3.484 -25.465  0.00  0.00    -0.028 C 
ATOM     12  C   UNL     1      -3.315   3.630 -26.737  0.00  0.00    +0.011 C 
ATOM     13  C   UNL     1      -4.831   3.693 -25.446  0.00  0.00    +0.011 C 
ATOM     14  O   UNL     1      -0.234   2.363 -21.519  0.00  0.00    -0.294 OA
ATOM     15  C   UNL     1      -3.313   3.075 -22.916  0.00  0.00    +0.035 C 
ENDROOT
BRANCH   5  16
ATOM     16  O   UNL     1      -1.436   2.518 -21.221  0.00  0.00    -0.381 OA
ATOM     17  H   UNL     1      -1.475   1.570 -21.018  0.00  0.00    +0.211 HD
ENDBRANCH   5  16
TORSDOF 1
ENDMDL
MODEL 5
REMARK VINA RESULT:    -8.630      0.839      3.095
REMARK INTER + INTRA:          -9.134
REMARK INTER:                  -9.134
REMARK INTRA:                   0.000
REMARK UNBOUND:                 0.000
REMARK  Name = ZINC000004104703
REMARK  4 active torsions:
REMARK  status: ('A' for Active; 'I' for Inactive)
REMARK    1  A    between atoms: C_1  and  C_2
REMARK    2  A    between atoms: C_5  and  O_6
REMARK    3  A    between atoms: C_14  and  C_15
REMARK    4  A    between atoms: C_14  and  C_16
REMARK                            x       y       z     vdW  Elec       q    Type
REMARK                         _______ _______ _______ _____ _____    ______ ____
ROOT
ATOM      1  C   UNL     1      -1.249   2.254 -21.137  0.00  0.00    +0.008 C 
ATOM      2  C   UNL     1      -2.436   2.584 -21.551  0.00  0.00    -0.007 C 
ATOM      3  C   UNL     1      -3.536   2.498 -20.863  0.00  0.00    +0.007 C 
ATOM      4  C   UNL     1      -4.513   2.919 -21.611  0.00  0.00    +0.043 C 
ATOM      5  C   UNL     1      -4.016   3.264 -22.761  0.00  0.00    +0.127 C 
ATOM      6  C   UNL     1      -4.734   3.730 -23.740  0.00  0.00    +0.165 C 
ATOM      7  C   UNL     1      -4.346   4.104 -24.924  0.00  0.00    +0.078 C 
ATOM      8  C   UNL     1      -3.145   4.105 -25.420  0.00  0.00    +0.012 C 
ATOM      9  C   UNL     1      -2.034   3.731 -24.856  0.00  0.00    -0.001 C 
ATOM     10  C   UNL     1      -1.851   3.265 -23.657  0.00  0.00    +0.005 C 
ATOM     11  C   UNL     1      -0.839   3.406 -24.460  0.00  0.00    -0.028 C 
ATOM     12  C   UNL     1      -0.160   3.696 -25.531  0.00  0.00    +0.011 C 
ATOM     13  C   UNL     1       0.120   2.982 -23.693  0.00  0.00    +0.011 C 
ATOM     14  O   UNL     1      -6.008   3.836 -23.505  0.00  0.00    -0.294 OA
ATOM     15  C   UNL     1      -2.733   3.058 -22.725  0.00  0.00    +0.035 C 
ENDROOT
BRANCH   5  16
ATOM     16  O   UNL     1      -5.297   3.391 -22.580  0.00  0.00    -0.381 OA
ATOM     17  H   UNL     1      -5.570   2.859 -21.817  0.00  0.00    +0.211 HD
ENDBRANCH   5  16
TORSDOF 1
ENDMDL
MODEL 6
REMARK VINA RESULT:    -8.609      1.197      2.181
REMARK INTER + INTRA:          -9.112
REMARK INTER:                  -9.112
REMARK INTRA:                   0.000
REMARK UNBOUND:                 0.000
REMARK  Name = ZINC000004104703
REMARK  4 active torsions:
REMARK  status: ('A' for Active; 'I' for Inactive)
REMARK    1  A    between atoms: C_1  and  C_2
REMARK    2  A    between atoms: C_5  and  O_6
REMARK    3  A    between atoms: C_14  and  C_15
REMARK    4  A    between atoms: C_14  and  C_16
REMARK                            x       y       z     vdW  Elec       q    Type
REMARK                         _______ _______ _______ _____ _____    ______ ____
ROOT
ATOM      1  C   UNL     1      -4.069   4.153 -25.624  0.00  0.00    +0.008 C 
ATOM      2  C   UNL     1      -4.248   3.819 -24.381  0.00  0.00    -0.007 C 
ATOM      3  C   UNL     1      -5.378   3.839 -23.740  0.00  0.00    +0.007 C 
ATOM      4  C   UNL     1      -5.158   3.438 -22.523  0.00  0.00    +0.043 C 
ATOM      5  C   UNL     1      -3.891   3.169 -22.413  0.00  0.00    +0.127 C 
ATOM      6  C   UNL     1      -3.343   2.741 -21.313  0.00  0.00    +0.165 C 
ATOM      7  C   UNL     1      -2.097   2.443 -21.092  0.00  0.00    +0.078 C 
ATOM      8  C   UNL     1      -1.091   2.500 -21.914  0.00  0.00    +0.012 C 
ATOM      9  C   UNL     1      -1.084   2.868 -23.161  0.00  0.00    -0.001 C 
ATOM     10  C   UNL     1      -2.079   3.270 -23.894  0.00  0.00    +0.005 C 
ATOM     11  C   UNL     1      -0.885   3.198 -24.403  0.00  0.00    -0.028 C 
ATOM     12  C   UNL     1       0.395   2.986 -24.491  0.00  0.00    +0.011 C 
ATOM     13  C   UNL     1      -1.130   3.603 -25.613  0.00  0.00    +0.011 C 
ATOM     14  O   UNL     1      -4.147   2.592 -20.304  0.00  0.00    -0.294 OA
ATOM     15  C   UNL     1      -3.328   3.404 -23.561  0.00  0.00    +0.035 C 
ENDROOT
BRANCH   5  16
ATOM     16  O   UNL     1      -4.650   3.001 -21.370  0.00  0.00    -0.381 OA
ATOM     17  H   UNL     1      -5.562   3.246 -21.591  0.00  0.00    +0.211 HD
ENDBRANCH   5  16
TORSDOF 1
ENDMDL
MODEL 7
REMARK VINA RESULT:    -8.033      1.365      3.482
REMARK INTER + INTRA:          -8.502
REMARK INTER:                  -8.502
REMARK INTRA:                   0.000
REMARK UNBOUND:                 0.000
REMARK  Name = ZINC000004104703
REMARK  4 active torsions:
REMARK  status: ('A' for Active; 'I' for Inactive)
REMARK    1  A    between atoms: C_1  and  C_2
REMARK    2  A    between atoms: C_5  and  O_6
REMARK    3  A    between atoms: C_14  and  C_15
REMARK    4  A    between atoms: C_14  and  C_16
REMARK                            x       y       z     vdW  Elec       q    Type
REMARK                         _______ _______ _______ _____ _____    ______ ____
ROOT
ATOM      1  C   UNL     1      -0.154   2.713 -24.005  0.00  0.00    +0.008 C 
ATOM      2  C   UNL     1      -0.993   2.730 -23.012  0.00  0.00    -0.007 C 
ATOM      3  C   UNL     1      -0.710   2.474 -21.769  0.00  0.00    +0.007 C 
ATOM      4  C   UNL     1      -1.803   2.591 -21.075  0.00  0.00    +0.043 C 
ATOM      5  C   UNL     1      -2.761   2.920 -21.889  0.00  0.00    +0.127 C 
ATOM      6  C   UNL     1      -3.989   3.116 -21.508  0.00  0.00    +0.165 C 
ATOM      7  C   UNL     1      -5.019   3.445 -22.230  0.00  0.00    +0.078 C 
ATOM      8  C   UNL     1      -5.076   3.660 -23.511  0.00  0.00    +0.012 C 
ATOM      9  C   UNL     1      -4.116   3.599 -24.386  0.00  0.00    -0.001 C 
ATOM     10  C   UNL     1      -2.864   3.309 -24.197  0.00  0.00    +0.005 C 
ATOM     11  C   UNL     1      -3.293   3.588 -25.392  0.00  0.00    -0.028 C 
ATOM     12  C   UNL     1      -4.107   3.910 -26.354  0.00  0.00    +0.011 C 
ATOM     13  C   UNL     1      -2.187   3.464 -26.064  0.00  0.00    +0.011 C 
ATOM     14  O   UNL     1      -4.217   2.961 -20.238  0.00  0.00    -0.294 OA
ATOM     15  C   UNL     1      -2.261   3.006 -23.086  0.00  0.00    +0.035 C 
ENDROOT
BRANCH   5  16
ATOM     16  O   UNL     1      -3.046   2.779 -20.628  0.00  0.00    -0.381 OA
ATOM     17  H   UNL     1      -4.001   2.652 -20.525  0.00  0.00    +0.211 HD
ENDBRANCH   5  16
TORSDOF 1
ENDMDL
MODEL 8
REMARK VINA RESULT:    -7.852      3.451      5.268
REMARK INTER + INTRA:          -8.312
REMARK INTER:                  -8.312
REMARK INTRA:                   0.000
REMARK UNBOUND:                 0.000
REMARK  Name = ZINC000004104703
REMARK  4 active torsions:
REMARK  status: ('A' for Active; 'I' for Inactive)
REMARK    1  A    between atoms: C_1  and  C_2
REMARK    2  A    between atoms: C_5  and  O_6
REMARK    3  A    between atoms: C_14  and  C_15
REMARK    4  A    between atoms: C_14  and  C_16
REMARK                            x       y       z     vdW  Elec       q    Type
REMARK                         _______ _______ _______ _____ _____    ______ ____
ROOT
ATOM      1  C   UNL     1       1.176   3.938 -25.497  0.00  0.00    +0.008 C 
ATOM      2  C   UNL     1       1.566   3.280 -24.446  0.00  0.00    -0.007 C 
ATOM      3  C   UNL     1       2.794   2.974 -24.150  0.00  0.00    +0.007 C 
ATOM      4  C   UNL     1       2.786   2.317 -23.027  0.00  0.00    +0.043 C 
ATOM      5  C   UNL     1       1.552   2.219 -22.631  0.00  0.00    +0.127 C 
ATOM      6  C   UNL     1       1.199   1.614 -21.535  0.00  0.00    +0.165 C 
ATOM      7  C   UNL     1       0.004   1.457 -21.045  0.00  0.00    +0.078 C 
ATOM      8  C   UNL     1      -1.131   1.864 -21.530  0.00  0.00    +0.012 C 
ATOM      9  C   UNL     1      -1.352   2.530 -22.625  0.00  0.00    -0.001 C 
ATOM     10  C   UNL     1      -0.494   2.952 -23.504  0.00  0.00    +0.005 C 
ATOM     11  C   UNL     1      -1.762   3.186 -23.669  0.00  0.00    -0.028 C 
ATOM     12  C   UNL     1      -3.043   3.192 -23.444  0.00  0.00    +0.011 C 
ATOM     13  C   UNL     1      -1.728   3.840 -24.792  0.00  0.00    +0.011 C 
ATOM     14  O   UNL     1       2.167   1.101 -20.837  0.00  0.00    -0.294 OA
ATOM     15  C   UNL     1       0.798   2.814 -23.507  0.00  0.00    +0.035 C 
ENDROOT
BRANCH   5  16
ATOM     16  O   UNL     1       2.481   1.686 -21.893  0.00  0.00    -0.381 OA
ATOM     17  H   UNL     1       3.344   1.819 -22.315  0.00  0.00    +0.211 HD
ENDBRANCH   5  16
TORSDOF 1
ENDMDL
MODEL 9
REMARK VINA RESULT:    -7.725      2.002      3.017
REMARK INTER + INTRA:          -8.177
REMARK INTER:                  -8.177
REMARK INTRA:                   0.000
REMARK UNBOUND:                 0.000
REMARK  Name = ZINC000004104703
REMARK  4 active torsions:
REMARK  status: ('A' for Active; 'I' for Inactive)
REMARK    1  A    between atoms: C_1  and  C_2
REMARK    2  A    between atoms: C_5  and  O_6
REMARK    3  A    between atoms: C_14  and  C_15
REMARK    4  A    between atoms: C_14  and  C_16
REMARK                            x       y       z     vdW  Elec       q    Type
REMARK                         _______ _______ _______ _____ _____    ______ ____
ROOT
ATOM      1  C   UNL     1       1.200   3.552 -25.507  0.00  0.00    +0.008 C 
ATOM      2  C   UNL     1       0.045   3.390 -24.933  0.00  0.00    -0.007 C 
ATOM      3  C   UNL     1      -1.107   3.736 -25.426  0.00  0.00    +0.007 C 
ATOM      4  C   UNL     1      -2.026   3.415 -24.563  0.00  0.00    +0.043 C 
ATOM      5  C   UNL     1      -1.441   2.871 -23.538  0.00  0.00    +0.127 C 
ATOM      6  C   UNL     1      -2.084   2.437 -22.494  0.00  0.00    +0.165 C 
ATOM      7  C   UNL     1      -1.604   1.881 -21.421  0.00  0.00    +0.078 C 
ATOM      8  C   UNL     1      -0.365   1.622 -21.127  0.00  0.00    +0.012 C 
ATOM      9  C   UNL     1       0.702   1.854 -21.833  0.00  0.00    -0.001 C 
ATOM     10  C   UNL     1       0.792   2.403 -23.008  0.00  0.00    +0.005 C 
ATOM     11  C   UNL     1       1.866   2.007 -22.391  0.00  0.00    -0.028 C 
ATOM     12  C   UNL     1       2.627   1.495 -21.469  0.00  0.00    +0.011 C 
ATOM     13  C   UNL     1       2.766   2.337 -23.269  0.00  0.00    +0.011 C 
ATOM     14  O   UNL     1      -3.375   2.578 -22.528  0.00  0.00    -0.294 OA
ATOM     15  C   UNL     1      -0.161   2.856 -23.766  0.00  0.00    +0.035 C 
ENDROOT
BRANCH   5  16
ATOM     16  O   UNL     1      -2.736   2.987 -23.519  0.00  0.00    -0.381 OA
ATOM     17  H   UNL     1      -3.116   2.273 -22.984  0.00  0.00    +0.211 HD
ENDBRANCH   5  16
TORSDOF 1
ENDMDL
