MODEL 1
REMARK VINA RESULT:   -10.133      0.000      0.000
REMARK INTER + INTRA:         -10.133
REMARK INTER:                 -10.133
REMARK INTRA:                   0.000
REMARK UNBOUND:                 0.000
REMARK  Name = ZINC000001567077
REMARK  2 active torsions:
REMARK  status: ('A' for Active; 'I' for Inactive)
REMARK    1  A    between atoms: C_8  and  C_9
REMARK    2  A    between atoms: C_13  and  C_14
REMARK                            x       y       z     vdW  Elec       q    Type
REMARK                         _______ _______ _______ _____ _____    ______ ____
ROOT
ATOM      1  C   UNL     1       0.462   1.511 -21.328  0.00  0.00    +0.020 C 
ATOM      2  C   UNL     1       0.089   2.070 -22.440  0.00  0.00    +0.040 C 
ATOM      3  C   UNL     1       0.851   2.328 -23.460  0.00  0.00    +0.336 C 
ATOM      4  O   UNL     1       0.120   2.887 -24.378  0.00  0.00    -0.457 OA
ATOM      5  C   UNL     1      -1.095   2.975 -23.924  0.00  0.00    +0.189 C 
ATOM      6  C   UNL     1      -2.186   3.449 -24.447  0.00  0.00    +0.056 C 
ATOM      7  C   UNL     1      -3.298   3.420 -23.773  0.00  0.00    -0.007 C 
ATOM      8  C   UNL     1      -4.389   3.894 -24.296  0.00  0.00    +0.011 C 
ATOM      9  C   UNL     1      -5.499   3.864 -23.621  0.00  0.00    +0.001 C 
ATOM     10  C   UNL     1      -5.519   3.360 -22.423  0.00  0.00    +0.007 C 
ATOM     11  C   UNL     1      -4.428   2.885 -21.899  0.00  0.00    +0.012 C 
ATOM     12  C   UNL     1      -4.447   2.380 -20.701  0.00  0.00    +0.012 C 
ATOM     13  C   UNL     1      -3.278   3.924 -24.971  0.00  0.00    +0.016 C 
ATOM     14  C   UNL     1      -3.316   2.915 -22.574  0.00  0.00    -0.064 C 
ATOM     15  C   UNL     1      -2.225   2.440 -22.051  0.00  0.00    -0.015 C 
ATOM     16  O   UNL     1       2.123   2.071 -23.548  0.00  0.00    -0.245 OA
ATOM     17  C   UNL     1      -1.115   2.470 -22.726  0.00  0.00    +0.089 C 
ENDROOT
TORSDOF 0
ENDMDL
MODEL 2
REMARK VINA RESULT:   -10.020      0.966      2.523
REMARK INTER + INTRA:         -10.020
REMARK INTER:                 -10.020
REMARK INTRA:                   0.000
REMARK UNBOUND:                 0.000
REMARK  Name = ZINC000001567077
REMARK  2 active torsions:
REMARK  status: ('A' for Active; 'I' for Inactive)
REMARK    1  A    between atoms: C_8  and  C_9
REMARK    2  A    between atoms: C_13  and  C_14
REMARK                            x       y       z     vdW  Elec       q    Type
REMARK                         _______ _______ _______ _____ _____    ______ ____
ROOT
ATOM      1  C   UNL     1       0.545   3.376 -25.124  0.00  0.00    +0.020 C 
ATOM      2  C   UNL     1       0.122   3.039 -23.942  0.00  0.00    +0.040 C 
ATOM      3  C   UNL     1       0.855   2.592 -22.966  0.00  0.00    +0.336 C 
ATOM      4  O   UNL     1       0.077   2.368 -21.950  0.00  0.00    -0.457 OA
ATOM      5  C   UNL     1      -1.137   2.677 -22.297  0.00  0.00    +0.189 C 
ATOM      6  C   UNL     1      -2.264   2.633 -21.652  0.00  0.00    +0.056 C 
ATOM      7  C   UNL     1      -3.364   3.005 -22.236  0.00  0.00    -0.007 C 
ATOM      8  C   UNL     1      -4.491   2.961 -21.591  0.00  0.00    +0.011 C 
ATOM      9  C   UNL     1      -5.591   3.333 -22.176  0.00  0.00    +0.001 C 
ATOM     10  C   UNL     1      -5.563   3.748 -23.408  0.00  0.00    +0.007 C 
ATOM     11  C   UNL     1      -4.436   3.792 -24.055  0.00  0.00    +0.012 C 
ATOM     12  C   UNL     1      -4.408   4.207 -25.286  0.00  0.00    +0.012 C 
ATOM     13  C   UNL     1      -3.392   2.590 -21.005  0.00  0.00    +0.016 C 
ATOM     14  C   UNL     1      -3.336   3.420 -23.469  0.00  0.00    -0.064 C 
ATOM     15  C   UNL     1      -2.209   3.463 -24.115  0.00  0.00    -0.015 C 
ATOM     16  O   UNL     1       2.141   2.403 -23.001  0.00  0.00    -0.245 OA
ATOM     17  C   UNL     1      -1.109   3.092 -23.529  0.00  0.00    +0.089 C 
ENDROOT
TORSDOF 0
ENDMDL
MODEL 3
REMARK VINA RESULT:    -9.694      1.307      2.693
REMARK INTER + INTRA:          -9.694
REMARK INTER:                  -9.694
REMARK INTRA:                   0.000
REMARK UNBOUND:                 0.000
REMARK  Name = ZINC000001567077
REMARK  2 active torsions:
REMARK  status: ('A' for Active; 'I' for Inactive)
REMARK    1  A    between atoms: C_8  and  C_9
REMARK    2  A    between atoms: C_13  and  C_14
REMARK                            x       y       z     vdW  Elec       q    Type
REMARK                         _______ _______ _______ _____ _____    ______ ____
ROOT
ATOM      1  C   UNL     1       1.558   1.974 -23.620  0.00  0.00    +0.020 C 
ATOM      2  C   UNL     1       0.682   1.951 -22.659  0.00  0.00    +0.040 C 
ATOM      3  C   UNL     1       0.899   1.568 -21.437  0.00  0.00    +0.336 C 
ATOM      4  O   UNL     1      -0.214   1.687 -20.775  0.00  0.00    -0.457 OA
ATOM      5  C   UNL     1      -1.118   2.145 -21.590  0.00  0.00    +0.189 C 
ATOM      6  C   UNL     1      -2.374   2.433 -21.421  0.00  0.00    +0.056 C 
ATOM      7  C   UNL     1      -3.077   2.886 -22.416  0.00  0.00    -0.007 C 
ATOM      8  C   UNL     1      -4.333   3.174 -22.248  0.00  0.00    +0.011 C 
ATOM      9  C   UNL     1      -5.035   3.626 -23.244  0.00  0.00    +0.001 C 
ATOM     10  C   UNL     1      -4.482   3.789 -24.409  0.00  0.00    +0.007 C 
ATOM     11  C   UNL     1      -3.225   3.501 -24.578  0.00  0.00    +0.012 C 
ATOM     12  C   UNL     1      -2.672   3.664 -25.743  0.00  0.00    +0.012 C 
ATOM     13  C   UNL     1      -3.631   2.723 -21.251  0.00  0.00    +0.016 C 
ATOM     14  C   UNL     1      -2.522   3.048 -23.582  0.00  0.00    -0.064 C 
ATOM     15  C   UNL     1      -1.267   2.759 -23.750  0.00  0.00    -0.015 C 
ATOM     16  O   UNL     1       2.030   1.140 -20.959  0.00  0.00    -0.245 OA
ATOM     17  C   UNL     1      -0.564   2.308 -22.754  0.00  0.00    +0.089 C 
ENDROOT
TORSDOF 0
ENDMDL
MODEL 4
REMARK VINA RESULT:    -9.510      2.203      5.301
REMARK INTER + INTRA:          -9.510
REMARK INTER:                  -9.510
REMARK INTRA:                   0.000
REMARK UNBOUND:                 0.000
REMARK  Name = ZINC000001567077
REMARK  2 active torsions:
REMARK  status: ('A' for Active; 'I' for Inactive)
REMARK    1  A    between atoms: C_8  and  C_9
REMARK    2  A    between atoms: C_13  and  C_14
REMARK                            x       y       z     vdW  Elec       q    Type
REMARK                         _______ _______ _______ _____ _____    ______ ____
ROOT
ATOM      1  C   UNL     1      -4.681   4.249 -24.401  0.00  0.00    +0.020 C 
ATOM      2  C   UNL     1      -4.186   3.598 -23.391  0.00  0.00    +0.040 C 
ATOM      3  C   UNL     1      -4.843   3.196 -22.344  0.00  0.00    +0.336 C 
ATOM      4  O   UNL     1      -4.008   2.584 -21.557  0.00  0.00    -0.457 OA
ATOM      5  C   UNL     1      -2.836   2.609 -22.118  0.00  0.00    +0.189 C 
ATOM      6  C   UNL     1      -1.683   2.141 -21.743  0.00  0.00    +0.056 C 
ATOM      7  C   UNL     1      -0.638   2.300 -22.500  0.00  0.00    -0.007 C 
ATOM      8  C   UNL     1       0.515   1.832 -22.125  0.00  0.00    +0.011 C 
ATOM      9  C   UNL     1       1.559   1.991 -22.883  0.00  0.00    +0.001 C 
ATOM     10  C   UNL     1       1.449   2.618 -24.017  0.00  0.00    +0.007 C 
ATOM     11  C   UNL     1       0.296   3.086 -24.393  0.00  0.00    +0.012 C 
ATOM     12  C   UNL     1       0.187   3.713 -25.527  0.00  0.00    +0.012 C 
ATOM     13  C   UNL     1      -0.528   1.673 -21.367  0.00  0.00    +0.016 C 
ATOM     14  C   UNL     1      -0.749   2.927 -23.635  0.00  0.00    -0.064 C 
ATOM     15  C   UNL     1      -1.902   3.395 -24.010  0.00  0.00    -0.015 C 
ATOM     16  O   UNL     1      -6.111   3.374 -22.123  0.00  0.00    -0.245 OA
ATOM     17  C   UNL     1      -2.945   3.236 -23.252  0.00  0.00    +0.089 C 
ENDROOT
TORSDOF 0
ENDMDL
MODEL 5
REMARK VINA RESULT:    -9.446      2.095      4.646
REMARK INTER + INTRA:          -9.446
REMARK INTER:                  -9.446
REMARK INTRA:                   0.000
REMARK UNBOUND:                 0.000
REMARK  Name = ZINC000001567077
REMARK  2 active torsions:
REMARK  status: ('A' for Active; 'I' for Inactive)
REMARK    1  A    between atoms: C_8  and  C_9
REMARK    2  A    between atoms: C_13  and  C_14
REMARK                            x       y       z     vdW  Elec       q    Type
REMARK                         _______ _______ _______ _____ _____    ______ ____
ROOT
ATOM      1  C   UNL     1      -4.132   2.251 -20.588  0.00  0.00    +0.020 C 
ATOM      2  C   UNL     1      -3.962   2.771 -21.767  0.00  0.00    +0.040 C 
ATOM      3  C   UNL     1      -4.881   3.336 -22.492  0.00  0.00    +0.336 C 
ATOM      4  O   UNL     1      -4.330   3.732 -23.601  0.00  0.00    -0.457 OA
ATOM      5  C   UNL     1      -3.071   3.411 -23.561  0.00  0.00    +0.189 C 
ATOM      6  C   UNL     1      -2.103   3.583 -24.411  0.00  0.00    +0.056 C 
ATOM      7  C   UNL     1      -0.906   3.161 -24.128  0.00  0.00    -0.007 C 
ATOM      8  C   UNL     1       0.062   3.333 -24.977  0.00  0.00    +0.011 C 
ATOM      9  C   UNL     1       1.258   2.911 -24.693  0.00  0.00    +0.001 C 
ATOM     10  C   UNL     1       1.486   2.317 -23.560  0.00  0.00    +0.007 C 
ATOM     11  C   UNL     1       0.518   2.144 -22.709  0.00  0.00    +0.012 C 
ATOM     12  C   UNL     1       0.746   1.550 -21.576  0.00  0.00    +0.012 C 
ATOM     13  C   UNL     1      -1.134   3.755 -25.262  0.00  0.00    +0.016 C 
ATOM     14  C   UNL     1      -0.679   2.567 -22.993  0.00  0.00    -0.064 C 
ATOM     15  C   UNL     1      -1.647   2.395 -22.144  0.00  0.00    -0.015 C 
ATOM     16  O   UNL     1      -6.131   3.481 -22.166  0.00  0.00    -0.245 OA
ATOM     17  C   UNL     1      -2.844   2.817 -22.428  0.00  0.00    +0.089 C 
ENDROOT
TORSDOF 0
ENDMDL
MODEL 6
REMARK VINA RESULT:    -8.552      1.786      3.592
REMARK INTER + INTRA:          -8.552
REMARK INTER:                  -8.552
REMARK INTRA:                   0.000
REMARK UNBOUND:                 0.000
REMARK  Name = ZINC000001567077
REMARK  2 active torsions:
REMARK  status: ('A' for Active; 'I' for Inactive)
REMARK    1  A    between atoms: C_8  and  C_9
REMARK    2  A    between atoms: C_13  and  C_14
REMARK                            x       y       z     vdW  Elec       q    Type
REMARK                         _______ _______ _______ _____ _____    ______ ____
ROOT
ATOM      1  C   UNL     1       3.428   1.785 -23.887  0.00  0.00    +0.020 C 
ATOM      2  C   UNL     1       2.615   1.591 -22.892  0.00  0.00    +0.040 C 
ATOM      3  C   UNL     1       2.916   1.035 -21.756  0.00  0.00    +0.336 C 
ATOM      4  O   UNL     1       1.844   1.021 -21.020  0.00  0.00    -0.457 OA
ATOM      5  C   UNL     1       0.882   1.568 -21.701  0.00  0.00    +0.189 C 
ATOM      6  C   UNL     1      -0.367   1.791 -21.417  0.00  0.00    +0.056 C 
ATOM      7  C   UNL     1      -1.140   2.366 -22.289  0.00  0.00    -0.007 C 
ATOM      8  C   UNL     1      -2.389   2.589 -22.005  0.00  0.00    +0.011 C 
ATOM      9  C   UNL     1      -3.161   3.165 -22.878  0.00  0.00    +0.001 C 
ATOM     10  C   UNL     1      -2.685   3.518 -24.035  0.00  0.00    +0.007 C 
ATOM     11  C   UNL     1      -1.436   3.295 -24.320  0.00  0.00    +0.012 C 
ATOM     12  C   UNL     1      -0.959   3.648 -25.477  0.00  0.00    +0.012 C 
ATOM     13  C   UNL     1      -1.616   2.014 -21.132  0.00  0.00    +0.016 C 
ATOM     14  C   UNL     1      -0.663   2.719 -23.447  0.00  0.00    -0.064 C 
ATOM     15  C   UNL     1       0.586   2.496 -23.731  0.00  0.00    -0.015 C 
ATOM     16  O   UNL     1       4.083   0.574 -21.416  0.00  0.00    -0.245 OA
ATOM     17  C   UNL     1       1.358   1.921 -22.858  0.00  0.00    +0.089 C 
ENDROOT
TORSDOF 0
ENDMDL
MODEL 7
REMARK VINA RESULT:    -7.629      3.038      5.261
REMARK INTER + INTRA:          -7.629
REMARK INTER:                  -7.629
REMARK INTRA:                   0.000
REMARK UNBOUND:                 0.000
REMARK  Name = ZINC000001567077
REMARK  2 active torsions:
REMARK  status: ('A' for Active; 'I' for Inactive)
REMARK    1  A    between atoms: C_8  and  C_9
REMARK    2  A    between atoms: C_13  and  C_14
REMARK                            x       y       z     vdW  Elec       q    Type
REMARK                         _______ _______ _______ _____ _____    ______ ____
ROOT
ATOM      1  C   UNL     1       5.387   4.161 -23.579  0.00  0.00    +0.020 C 
ATOM      2  C   UNL     1       4.738   3.421 -22.731  0.00  0.00    +0.040 C 
ATOM      3  C   UNL     1       5.235   2.862 -21.667  0.00  0.00    +0.336 C 
ATOM      4  O   UNL     1       4.281   2.206 -21.076  0.00  0.00    -0.457 OA
ATOM      5  C   UNL     1       3.195   2.359 -21.775  0.00  0.00    +0.189 C 
ATOM      6  C   UNL     1       1.986   1.911 -21.611  0.00  0.00    +0.056 C 
ATOM      7  C   UNL     1       1.058   2.214 -22.470  0.00  0.00    -0.007 C 
ATOM      8  C   UNL     1      -0.151   1.766 -22.307  0.00  0.00    +0.011 C 
ATOM      9  C   UNL     1      -1.078   2.070 -23.166  0.00  0.00    +0.001 C 
ATOM     10  C   UNL     1      -0.795   2.821 -24.189  0.00  0.00    +0.007 C 
ATOM     11  C   UNL     1       0.414   3.269 -24.353  0.00  0.00    +0.012 C 
ATOM     12  C   UNL     1       0.697   4.020 -25.376  0.00  0.00    +0.012 C 
ATOM     13  C   UNL     1       0.776   1.463 -21.447  0.00  0.00    +0.016 C 
ATOM     14  C   UNL     1       1.342   2.966 -23.493  0.00  0.00    -0.064 C 
ATOM     15  C   UNL     1       2.551   3.413 -23.657  0.00  0.00    -0.015 C 
ATOM     16  O   UNL     1       6.468   2.946 -21.265  0.00  0.00    -0.245 OA
ATOM     17  C   UNL     1       3.478   3.110 -22.797  0.00  0.00    +0.089 C 
ENDROOT
TORSDOF 0
ENDMDL
