MODEL 1
REMARK VINA RESULT:   -10.924      0.000      0.000
REMARK INTER + INTRA:         -11.671
REMARK INTER:                 -11.523
REMARK INTRA:                  -0.148
REMARK UNBOUND:                -0.108
REMARK  Name = COc1ccc2c3c1O[C@@H]1[C@H](Cl)C=C[C@@H]4[C@H](C2)N(C)CC[C@@]341       ZINC000100393525
REMARK  3 active torsions:
REMARK  status: ('A' for Active; 'I' for Inactive)
REMARK    1  A    between atoms: C_1  and  O_2
REMARK    2  A    between atoms: O_2  and  C_3
REMARK    3  A    between atoms: N_18  and  C_19
REMARK                            x       y       z     vdW  Elec       q    Type
REMARK                         _______ _______ _______ _____ _____    ______ ____
ROOT
ATOM      1  C   UNL     1       0.904   2.250 -23.244  0.00  0.00    +0.162 A 
ATOM      2  C   UNL     1       0.858   1.884 -22.036  0.00  0.00    +0.050 A 
ATOM      3  C   UNL     1      -0.221   1.907 -21.407  0.00  0.00    +0.008 A 
ATOM      4  C   UNL     1      -1.264   2.295 -21.978  0.00  0.00    -0.034 A 
ATOM      5  C   UNL     1      -1.242   2.664 -23.181  0.00  0.00    +0.012 A 
ATOM      6  C   UNL     1      -2.285   3.051 -23.746  0.00  0.00    +0.054 C 
ATOM      7  C   UNL     1      -3.406   3.510 -24.495  0.00  0.00    +0.067 C 
ATOM      8  C   UNL     1      -4.638   3.548 -23.813  0.00  0.00    +0.132 C 
ATOM      9  N   UNL     1      -4.652   3.133 -22.467  0.00  0.00    +0.236 N 
ATOM     10  H   UNL     1      -5.516   3.140 -21.926  0.00  0.00    +0.203 HD
ATOM     11  C   UNL     1      -5.702   3.135 -21.791  0.00  0.00    +0.190 C 
ATOM     12  C   UNL     1      -3.411   2.709 -21.912  0.00  0.00    +0.076 C 
ATOM     13  C   UNL     1      -3.367   3.076 -23.121  0.00  0.00    +0.075 C 
ATOM     14  C   UNL     1      -4.423   3.467 -23.695  0.00  0.00    -0.020 C 
ATOM     15  C   UNL     1      -4.383   3.830 -24.889  0.00  0.00    -0.008 C 
ATOM     16  C   UNL     1      -3.297   3.810 -25.531  0.00  0.00    +0.144 C 
ATOM     17 CL   UNL     1      -3.263   4.173 -26.725  0.00  0.00    -0.113 Cl
ATOM     18  C   UNL     1      -2.254   3.421 -24.959  0.00  0.00    +0.207 C 
ATOM     19  O   UNL     1      -0.772   3.159 -25.081  0.00  0.00    -0.482 OA
ATOM     20  C   UNL     1      -2.368   2.322 -21.343  0.00  0.00    +0.090 C 
ATOM     21  C   UNL     1      -0.154   2.642 -23.818  0.00  0.00    +0.167 A 
ENDROOT
BRANCH   1  23
ATOM     22  C   UNL     1       2.714   3.241 -23.900  0.00  0.00    +0.277 C 
ATOM     23  O   UNL     1       1.986   2.225 -23.869  0.00  0.00    -0.491 OA
ENDBRANCH   1  23
TORSDOF 1
ENDMDL
MODEL 2
REMARK VINA RESULT:   -10.726      2.045      3.015
REMARK INTER + INTRA:         -11.462
REMARK INTER:                 -11.346
REMARK INTRA:                  -0.116
REMARK UNBOUND:                -0.108
REMARK  Name = COc1ccc2c3c1O[C@@H]1[C@H](Cl)C=C[C@@H]4[C@H](C2)N(C)CC[C@@]341       ZINC000100393525
REMARK  3 active torsions:
REMARK  status: ('A' for Active; 'I' for Inactive)
REMARK    1  A    between atoms: C_1  and  O_2
REMARK    2  A    between atoms: O_2  and  C_3
REMARK    3  A    between atoms: N_18  and  C_19
REMARK                            x       y       z     vdW  Elec       q    Type
REMARK                         _______ _______ _______ _____ _____    ______ ____
ROOT
ATOM      1  C   UNL     1       1.126   1.738 -22.142  0.00  0.00    +0.162 A 
ATOM      2  C   UNL     1       1.695   2.107 -23.208  0.00  0.00    +0.050 A 
ATOM      3  C   UNL     1       1.045   2.680 -24.108  0.00  0.00    +0.008 A 
ATOM      4  C   UNL     1      -0.178   2.891 -23.952  0.00  0.00    -0.034 A 
ATOM      5  C   UNL     1      -0.765   2.533 -22.899  0.00  0.00    +0.012 A 
ATOM      6  C   UNL     1      -1.985   2.745 -22.749  0.00  0.00    +0.054 C 
ATOM      7  C   UNL     1      -3.369   2.932 -22.464  0.00  0.00    +0.067 C 
ATOM      8  C   UNL     1      -4.129   3.576 -23.460  0.00  0.00    +0.132 C 
ATOM      9  N   UNL     1      -3.461   3.973 -24.635  0.00  0.00    +0.236 N 
ATOM     10  H   UNL     1      -3.963   4.443 -25.389  0.00  0.00    +0.203 HD
ATOM     11  C   UNL     1      -4.061   4.550 -25.567  0.00  0.00    +0.190 C 
ATOM     12  C   UNL     1      -2.069   3.686 -24.712  0.00  0.00    +0.076 C 
ATOM     13  C   UNL     1      -2.640   3.318 -23.646  0.00  0.00    +0.075 C 
ATOM     14  C   UNL     1      -3.876   3.533 -23.493  0.00  0.00    -0.020 C 
ATOM     15  C   UNL     1      -4.444   3.171 -22.441  0.00  0.00    -0.008 C 
ATOM     16  C   UNL     1      -3.794   2.591 -21.527  0.00  0.00    +0.144 C 
ATOM     17 CL   UNL     1      -4.367   2.231 -20.478  0.00  0.00    -0.113 Cl
ATOM     18  C   UNL     1      -2.571   2.380 -21.683  0.00  0.00    +0.207 C 
ATOM     19  O   UNL     1      -1.304   1.809 -21.093  0.00  0.00    -0.482 OA
ATOM     20  C   UNL     1      -0.847   3.475 -24.866  0.00  0.00    +0.090 C 
ATOM     21  C   UNL     1      -0.112   1.954 -21.989  0.00  0.00    +0.167 A 
ENDROOT
BRANCH   1  23
ATOM     22  C   UNL     1       2.954   1.521 -21.002  0.00  0.00    +0.277 C 
ATOM     23  O   UNL     1       1.780   1.165 -21.245  0.00  0.00    -0.491 OA
ENDBRANCH   1  23
TORSDOF 1
ENDMDL
MODEL 3
REMARK VINA RESULT:   -10.600      2.688      5.448
REMARK INTER + INTRA:         -11.328
REMARK INTER:                 -11.203
REMARK INTRA:                  -0.125
REMARK UNBOUND:                -0.108
REMARK  Name = COc1ccc2c3c1O[C@@H]1[C@H](Cl)C=C[C@@H]4[C@H](C2)N(C)CC[C@@]341       ZINC000100393525
REMARK  3 active torsions:
REMARK  status: ('A' for Active; 'I' for Inactive)
REMARK    1  A    between atoms: C_1  and  O_2
REMARK    2  A    between atoms: O_2  and  C_3
REMARK    3  A    between atoms: N_18  and  C_19
REMARK                            x       y       z     vdW  Elec       q    Type
REMARK                         _______ _______ _______ _____ _____    ______ ____
ROOT
ATOM      1  C   UNL     1      -4.696   3.392 -22.472  0.00  0.00    +0.162 A 
ATOM      2  C   UNL     1      -5.000   3.864 -23.604  0.00  0.00    +0.050 A 
ATOM      3  C   UNL     1      -4.137   3.967 -24.501  0.00  0.00    +0.008 A 
ATOM      4  C   UNL     1      -2.962   3.600 -24.276  0.00  0.00    -0.034 A 
ATOM      5  C   UNL     1      -2.636   3.128 -23.157  0.00  0.00    +0.012 A 
ATOM      6  C   UNL     1      -1.463   2.764 -22.938  0.00  0.00    +0.054 C 
ATOM      7  C   UNL     1      -0.161   2.316 -22.572  0.00  0.00    +0.067 C 
ATOM      8  C   UNL     1       0.835   2.419 -23.562  0.00  0.00    +0.132 C 
ATOM      9  N   UNL     1       0.460   2.950 -24.812  0.00  0.00    +0.236 N 
ATOM     10  H   UNL     1       1.141   3.047 -25.565  0.00  0.00    +0.203 HD
ATOM     11  C   UNL     1       1.281   3.075 -25.745  0.00  0.00    +0.190 C 
ATOM     12  C   UNL     1      -0.902   3.336 -24.964  0.00  0.00    +0.076 C 
ATOM     13  C   UNL     1      -0.596   2.865 -23.832  0.00  0.00    +0.075 C 
ATOM     14  C   UNL     1       0.592   2.495 -23.609  0.00  0.00    -0.020 C 
ATOM     15  C   UNL     1       0.899   2.028 -22.492  0.00  0.00    -0.008 C 
ATOM     16  C   UNL     1       0.032   1.921 -21.581  0.00  0.00    +0.144 C 
ATOM     17 CL   UNL     1       0.344   1.454 -20.466  0.00  0.00    -0.113 Cl
ATOM     18  C   UNL     1      -1.143   2.288 -21.806  0.00  0.00    +0.207 C 
ATOM     19  O   UNL     1      -2.543   2.440 -21.261  0.00  0.00    -0.482 OA
ATOM     20  C   UNL     1      -2.076   3.702 -25.187  0.00  0.00    +0.090 C 
ATOM     21  C   UNL     1      -3.506   3.023 -22.250  0.00  0.00    +0.167 A 
ENDROOT
BRANCH   1  23
ATOM     22  C   UNL     1      -6.613   2.647 -21.795  0.00  0.00    +0.277 C 
ATOM     23  O   UNL     1      -5.563   3.291 -21.579  0.00  0.00    -0.491 OA
ENDBRANCH   1  23
TORSDOF 1
ENDMDL
MODEL 4
REMARK VINA RESULT:   -10.136      2.090      4.753
REMARK INTER + INTRA:         -10.837
REMARK INTER:                 -10.771
REMARK INTRA:                  -0.066
REMARK UNBOUND:                -0.108
REMARK  Name = COc1ccc2c3c1O[C@@H]1[C@H](Cl)C=C[C@@H]4[C@H](C2)N(C)CC[C@@]341       ZINC000100393525
REMARK  3 active torsions:
REMARK  status: ('A' for Active; 'I' for Inactive)
REMARK    1  A    between atoms: C_1  and  O_2
REMARK    2  A    between atoms: O_2  and  C_3
REMARK    3  A    between atoms: N_18  and  C_19
REMARK                            x       y       z     vdW  Elec       q    Type
REMARK                         _______ _______ _______ _____ _____    ______ ____
ROOT
ATOM      1  C   UNL     1      -3.859   3.528 -23.142  0.00  0.00    +0.162 A 
ATOM      2  C   UNL     1      -4.112   2.923 -22.061  0.00  0.00    +0.050 A 
ATOM      3  C   UNL     1      -3.197   2.366 -21.418  0.00  0.00    +0.008 A 
ATOM      4  C   UNL     1      -2.023   2.408 -21.846  0.00  0.00    -0.034 A 
ATOM      5  C   UNL     1      -1.748   3.004 -22.919  0.00  0.00    +0.012 A 
ATOM      6  C   UNL     1      -0.575   3.043 -23.341  0.00  0.00    +0.054 C 
ATOM      7  C   UNL     1       0.722   3.154 -23.922  0.00  0.00    +0.067 C 
ATOM      8  C   UNL     1       1.775   2.536 -23.219  0.00  0.00    +0.132 C 
ATOM      9  N   UNL     1       1.456   1.871 -22.018  0.00  0.00    +0.236 N 
ATOM     10  H   UNL     1       2.179   1.407 -21.470  0.00  0.00    +0.203 HD
ATOM     11  C   UNL     1       2.330   1.298 -21.335  0.00  0.00    +0.190 C 
ATOM     12  C   UNL     1       0.089   1.883 -21.621  0.00  0.00    +0.076 C 
ATOM     13  C   UNL     1       0.343   2.488 -22.700  0.00  0.00    +0.075 C 
ATOM     14  C   UNL     1       1.531   2.528 -23.130  0.00  0.00    -0.020 C 
ATOM     15  C   UNL     1       1.788   3.124 -24.197  0.00  0.00    -0.008 C 
ATOM     16  C   UNL     1       0.869   3.689 -24.853  0.00  0.00    +0.144 C 
ATOM     17 CL   UNL     1       1.130   4.283 -25.919  0.00  0.00    -0.113 Cl
ATOM     18  C   UNL     1      -0.306   3.647 -24.425  0.00  0.00    +0.207 C 
ATOM     19  O   UNL     1      -1.745   4.046 -24.648  0.00  0.00    -0.482 OA
ATOM     20  C   UNL     1      -1.085   1.843 -21.194  0.00  0.00    +0.090 C 
ATOM     21  C   UNL     1      -2.669   3.567 -23.571  0.00  0.00    +0.167 A 
ENDROOT
BRANCH   1  23
ATOM     22  C   UNL     1      -5.025   3.728 -24.955  0.00  0.00    +0.277 C 
ATOM     23  O   UNL     1      -4.777   4.083 -23.782  0.00  0.00    -0.491 OA
ENDBRANCH   1  23
TORSDOF 1
ENDMDL
MODEL 5
REMARK VINA RESULT:    -9.626      2.189      4.500
REMARK INTER + INTRA:         -10.297
REMARK INTER:                 -10.152
REMARK INTRA:                  -0.146
REMARK UNBOUND:                -0.108
REMARK  Name = COc1ccc2c3c1O[C@@H]1[C@H](Cl)C=C[C@@H]4[C@H](C2)N(C)CC[C@@]341       ZINC000100393525
REMARK  3 active torsions:
REMARK  status: ('A' for Active; 'I' for Inactive)
REMARK    1  A    between atoms: C_1  and  O_2
REMARK    2  A    between atoms: O_2  and  C_3
REMARK    3  A    between atoms: N_18  and  C_19
REMARK                            x       y       z     vdW  Elec       q    Type
REMARK                         _______ _______ _______ _____ _____    ______ ____
ROOT
ATOM      1  C   UNL     1      -5.023   3.348 -21.751  0.00  0.00    +0.162 A 
ATOM      2  C   UNL     1      -4.412   3.296 -20.647  0.00  0.00    +0.050 A 
ATOM      3  C   UNL     1      -3.164   3.269 -20.613  0.00  0.00    +0.008 A 
ATOM      4  C   UNL     1      -2.513   3.294 -21.681  0.00  0.00    -0.034 A 
ATOM      5  C   UNL     1      -3.100   3.346 -22.792  0.00  0.00    +0.012 A 
ATOM      6  C   UNL     1      -2.447   3.372 -23.855  0.00  0.00    +0.054 C 
ATOM      7  C   UNL     1      -1.810   3.405 -25.129  0.00  0.00    +0.067 C 
ATOM      8  C   UNL     1      -0.402   3.376 -25.124  0.00  0.00    +0.132 C 
ATOM      9  N   UNL     1       0.245   3.317 -23.874  0.00  0.00    +0.236 N 
ATOM     10  H   UNL     1       1.263   3.294 -23.812  0.00  0.00    +0.203 HD
ATOM     11  C   UNL     1       1.490   3.288 -23.781  0.00  0.00    +0.190 C 
ATOM     12  C   UNL     1      -0.588   3.292 -22.720  0.00  0.00    +0.076 C 
ATOM     13  C   UNL     1      -1.197   3.345 -23.826  0.00  0.00    +0.075 C 
ATOM     14  C   UNL     1      -0.536   3.370 -24.903  0.00  0.00    -0.020 C 
ATOM     15  C   UNL     1      -1.134   3.422 -25.999  0.00  0.00    -0.008 C 
ATOM     16  C   UNL     1      -2.396   3.450 -26.041  0.00  0.00    +0.144 C 
ATOM     17 CL   UNL     1      -2.988   3.502 -27.138  0.00  0.00    -0.113 Cl
ATOM     18  C   UNL     1      -3.046   3.424 -24.972  0.00  0.00    +0.207 C 
ATOM     19  O   UNL     1      -4.410   3.429 -24.326  0.00  0.00    -0.482 OA
ATOM     20  C   UNL     1      -1.240   3.267 -21.654  0.00  0.00    +0.090 C 
ATOM     21  C   UNL     1      -4.360   3.374 -22.830  0.00  0.00    +0.167 A 
ENDROOT
BRANCH   1  23
ATOM     22  C   UNL     1      -6.921   2.307 -21.751  0.00  0.00    +0.277 C 
ATOM     23  O   UNL     1      -6.271   3.375 -21.780  0.00  0.00    -0.491 OA
ENDBRANCH   1  23
TORSDOF 1
ENDMDL
MODEL 6
REMARK VINA RESULT:    -9.599      3.210      6.344
REMARK INTER + INTRA:         -10.269
REMARK INTER:                 -10.150
REMARK INTRA:                  -0.119
REMARK UNBOUND:                -0.108
REMARK  Name = COc1ccc2c3c1O[C@@H]1[C@H](Cl)C=C[C@@H]4[C@H](C2)N(C)CC[C@@]341       ZINC000100393525
REMARK  3 active torsions:
REMARK  status: ('A' for Active; 'I' for Inactive)
REMARK    1  A    between atoms: C_1  and  O_2
REMARK    2  A    between atoms: O_2  and  C_3
REMARK    3  A    between atoms: N_18  and  C_19
REMARK                            x       y       z     vdW  Elec       q    Type
REMARK                         _______ _______ _______ _____ _____    ______ ____
ROOT
ATOM      1  C   UNL     1      -1.523   3.306 -23.358  0.00  0.00    +0.162 A 
ATOM      2  C   UNL     1      -1.598   4.545 -23.596  0.00  0.00    +0.050 A 
ATOM      3  C   UNL     1      -0.569   5.253 -23.606  0.00  0.00    +0.008 A 
ATOM      4  C   UNL     1       0.545   4.731 -23.378  0.00  0.00    -0.034 A 
ATOM      5  C   UNL     1       0.644   3.500 -23.138  0.00  0.00    +0.012 A 
ATOM      6  C   UNL     1       1.757   2.985 -22.911  0.00  0.00    +0.054 C 
ATOM      7  C   UNL     1       2.969   2.286 -22.639  0.00  0.00    +0.067 C 
ATOM      8  C   UNL     1       4.148   3.057 -22.643  0.00  0.00    +0.132 C 
ATOM      9  N   UNL     1       4.025   4.435 -22.912  0.00  0.00    +0.236 N 
ATOM     10  H   UNL     1       4.846   5.040 -22.927  0.00  0.00    +0.203 HD
ATOM     11  C   UNL     1       5.020   5.189 -22.934  0.00  0.00    +0.190 C 
ATOM     12  C   UNL     1       2.712   4.927 -23.158  0.00  0.00    +0.076 C 
ATOM     13  C   UNL     1       2.790   3.689 -22.920  0.00  0.00    +0.075 C 
ATOM     14  C   UNL     1       3.917   3.166 -22.690  0.00  0.00    -0.020 C 
ATOM     15  C   UNL     1       3.998   1.942 -22.454  0.00  0.00    -0.008 C 
ATOM     16  C   UNL     1       2.963   1.220 -22.442  0.00  0.00    +0.144 C 
ATOM     17 CL   UNL     1       3.049  -0.002 -22.206  0.00  0.00    -0.113 Cl
ATOM     18  C   UNL     1       1.849   1.742 -22.670  0.00  0.00    +0.207 C 
ATOM     19  O   UNL     1       0.360   1.529 -22.807  0.00  0.00    -0.482 OA
ATOM     20  C   UNL     1       1.598   5.447 -23.386  0.00  0.00    +0.090 C 
ATOM     21  C   UNL     1      -0.394   2.783 -23.128  0.00  0.00    +0.167 A 
ENDROOT
BRANCH   1  23
ATOM     22  C   UNL     1      -3.585   3.010 -22.769  0.00  0.00    +0.277 C 
ATOM     23  O   UNL     1      -2.555   2.603 -23.349  0.00  0.00    -0.491 OA
ENDBRANCH   1  23
TORSDOF 1
ENDMDL
MODEL 7
REMARK VINA RESULT:    -8.884      2.092      3.327
REMARK INTER + INTRA:          -9.512
REMARK INTER:                  -9.363
REMARK INTRA:                  -0.149
REMARK UNBOUND:                -0.108
REMARK  Name = COc1ccc2c3c1O[C@@H]1[C@H](Cl)C=C[C@@H]4[C@H](C2)N(C)CC[C@@]341       ZINC000100393525
REMARK  3 active torsions:
REMARK  status: ('A' for Active; 'I' for Inactive)
REMARK    1  A    between atoms: C_1  and  O_2
REMARK    2  A    between atoms: O_2  and  C_3
REMARK    3  A    between atoms: N_18  and  C_19
REMARK                            x       y       z     vdW  Elec       q    Type
REMARK                         _______ _______ _______ _____ _____    ______ ____
ROOT
ATOM      1  C   UNL     1       3.889   1.598 -21.999  0.00  0.00    +0.162 A 
ATOM      2  C   UNL     1       3.525   1.062 -20.914  0.00  0.00    +0.050 A 
ATOM      3  C   UNL     1       2.321   1.055 -20.583  0.00  0.00    +0.008 A 
ATOM      4  C   UNL     1       1.468   1.582 -21.331  0.00  0.00    -0.034 A 
ATOM      5  C   UNL     1       1.807   2.121 -22.416  0.00  0.00    +0.012 A 
ATOM      6  C   UNL     1       0.953   2.646 -23.158  0.00  0.00    +0.054 C 
ATOM      7  C   UNL     1       0.071   3.274 -24.085  0.00  0.00    +0.067 C 
ATOM      8  C   UNL     1      -1.294   3.282 -23.740  0.00  0.00    +0.132 C 
ATOM      9  N   UNL     1      -1.663   2.675 -22.523  0.00  0.00    +0.236 N 
ATOM     10  H   UNL     1      -2.637   2.652 -22.224  0.00  0.00    +0.203 HD
ATOM     11  C   UNL     1      -2.852   2.639 -22.142  0.00  0.00    +0.190 C 
ATOM     12  C   UNL     1      -0.615   2.104 -21.746  0.00  0.00    +0.076 C 
ATOM     13  C   UNL     1      -0.253   2.641 -22.831  0.00  0.00    +0.075 C 
ATOM     14  C   UNL     1      -1.118   3.172 -23.584  0.00  0.00    -0.020 C 
ATOM     15  C   UNL     1      -0.765   3.704 -24.658  0.00  0.00    -0.008 C 
ATOM     16  C   UNL     1       0.450   3.715 -25.000  0.00  0.00    +0.144 C 
ATOM     17 CL   UNL     1       0.798   4.248 -26.074  0.00  0.00    -0.113 Cl
ATOM     18  C   UNL     1       1.303   3.188 -24.251  0.00  0.00    +0.207 C 
ATOM     19  O   UNL     1       2.761   2.862 -24.034  0.00  0.00    -0.482 OA
ATOM     20  C   UNL     1       0.238   1.578 -20.999  0.00  0.00    +0.090 C 
ATOM     21  C   UNL     1       3.022   2.130 -22.753  0.00  0.00    +0.167 A 
ENDROOT
BRANCH   1  23
ATOM     22  C   UNL     1       5.798   2.613 -22.105  0.00  0.00    +0.277 C 
ATOM     23  O   UNL     1       5.094   1.603 -22.326  0.00  0.00    -0.491 OA
ENDBRANCH   1  23
TORSDOF 1
ENDMDL
MODEL 8
REMARK VINA RESULT:    -8.372      3.099      4.601
REMARK INTER + INTRA:          -8.970
REMARK INTER:                  -8.847
REMARK INTRA:                  -0.122
REMARK UNBOUND:                -0.108
REMARK  Name = COc1ccc2c3c1O[C@@H]1[C@H](Cl)C=C[C@@H]4[C@H](C2)N(C)CC[C@@]341       ZINC000100393525
REMARK  3 active torsions:
REMARK  status: ('A' for Active; 'I' for Inactive)
REMARK    1  A    between atoms: C_1  and  O_2
REMARK    2  A    between atoms: O_2  and  C_3
REMARK    3  A    between atoms: N_18  and  C_19
REMARK                            x       y       z     vdW  Elec       q    Type
REMARK                         _______ _______ _______ _____ _____    ______ ____
ROOT
ATOM      1  C   UNL     1       5.396   3.081 -22.491  0.00  0.00    +0.162 A 
ATOM      2  C   UNL     1       5.508   2.410 -21.427  0.00  0.00    +0.050 A 
ATOM      3  C   UNL     1       4.507   1.871 -20.909  0.00  0.00    +0.008 A 
ATOM      4  C   UNL     1       3.385   1.998 -21.449  0.00  0.00    -0.034 A 
ATOM      5  C   UNL     1       3.251   2.661 -22.509  0.00  0.00    +0.012 A 
ATOM      6  C   UNL     1       2.130   2.784 -23.043  0.00  0.00    +0.054 C 
ATOM      7  C   UNL     1       0.906   2.994 -23.742  0.00  0.00    +0.067 C 
ATOM      8  C   UNL     1      -0.242   2.399 -23.182  0.00  0.00    +0.132 C 
ATOM      9  N   UNL     1      -0.079   1.658 -21.995  0.00  0.00    +0.236 N 
ATOM     10  H   UNL     1      -0.877   1.206 -21.547  0.00  0.00    +0.203 HD
ATOM     11  C   UNL     1      -1.045   1.099 -21.434  0.00  0.00    +0.190 C 
ATOM     12  C   UNL     1       1.239   1.576 -21.463  0.00  0.00    +0.076 C 
ATOM     13  C   UNL     1       1.125   2.247 -22.528  0.00  0.00    +0.075 C 
ATOM     14  C   UNL     1      -0.010   2.372 -23.070  0.00  0.00    -0.020 C 
ATOM     15  C   UNL     1      -0.126   3.035 -24.123  0.00  0.00    -0.008 C 
ATOM     16  C   UNL     1       0.881   3.582 -24.652  0.00  0.00    +0.144 C 
ATOM     17 CL   UNL     1       0.759   4.242 -25.704  0.00  0.00    -0.113 Cl
ATOM     18  C   UNL     1       2.002   3.455 -24.112  0.00  0.00    +0.207 C 
ATOM     19  O   UNL     1       3.474   3.787 -24.169  0.00  0.00    -0.482 OA
ATOM     20  C   UNL     1       2.360   1.451 -20.925  0.00  0.00    +0.090 C 
ATOM     21  C   UNL     1       4.259   3.206 -23.034  0.00  0.00    +0.167 A 
ENDROOT
BRANCH   1  23
ATOM     22  C   UNL     1       7.431   2.941 -23.220  0.00  0.00    +0.277 C 
ATOM     23  O   UNL     1       6.400   3.617 -23.006  0.00  0.00    -0.491 OA
ENDBRANCH   1  23
TORSDOF 1
ENDMDL
MODEL 9
REMARK VINA RESULT:    -8.356      2.985      5.955
REMARK INTER + INTRA:          -8.953
REMARK INTER:                  -8.845
REMARK INTRA:                  -0.108
REMARK UNBOUND:                -0.108
REMARK  Name = COc1ccc2c3c1O[C@@H]1[C@H](Cl)C=C[C@@H]4[C@H](C2)N(C)CC[C@@]341       ZINC000100393525
REMARK  3 active torsions:
REMARK  status: ('A' for Active; 'I' for Inactive)
REMARK    1  A    between atoms: C_1  and  O_2
REMARK    2  A    between atoms: O_2  and  C_3
REMARK    3  A    between atoms: N_18  and  C_19
REMARK                            x       y       z     vdW  Elec       q    Type
REMARK                         _______ _______ _______ _____ _____    ______ ____
ROOT
ATOM      1  C   UNL     1      -1.243   3.798 -23.710  0.00  0.00    +0.162 A 
ATOM      2  C   UNL     1      -1.889   2.832 -23.216  0.00  0.00    +0.050 A 
ATOM      3  C   UNL     1      -1.302   1.944 -22.563  0.00  0.00    +0.008 A 
ATOM      4  C   UNL     1      -0.064   2.012 -22.397  0.00  0.00    -0.034 A 
ATOM      5  C   UNL     1       0.600   2.965 -22.879  0.00  0.00    +0.012 A 
ATOM      6  C   UNL     1       1.835   3.028 -22.710  0.00  0.00    +0.054 C 
ATOM      7  C   UNL     1       3.243   3.207 -22.584  0.00  0.00    +0.067 C 
ATOM      8  C   UNL     1       3.934   2.222 -21.853  0.00  0.00    +0.132 C 
ATOM      9  N   UNL     1       3.180   1.158 -21.317  0.00  0.00    +0.236 N 
ATOM     10  H   UNL     1       3.630   0.418 -20.780  0.00  0.00    +0.203 HD
ATOM     11  C   UNL     1       3.715   0.244 -20.657  0.00  0.00    +0.190 C 
ATOM     12  C   UNL     1       1.778   1.176 -21.565  0.00  0.00    +0.076 C 
ATOM     13  C   UNL     1       2.427   2.142 -22.058  0.00  0.00    +0.075 C 
ATOM     14  C   UNL     1       3.677   2.207 -21.888  0.00  0.00    -0.020 C 
ATOM     15  C   UNL     1       4.322   3.160 -22.373  0.00  0.00    -0.008 C 
ATOM     16  C   UNL     1       3.736   4.061 -23.034  0.00  0.00    +0.144 C 
ATOM     17 CL   UNL     1       4.385   5.012 -23.518  0.00  0.00    -0.113 Cl
ATOM     18  C   UNL     1       2.498   3.993 -23.200  0.00  0.00    +0.207 C 
ATOM     19  O   UNL     1       1.269   4.630 -23.805  0.00  0.00    -0.482 OA
ATOM     20  C   UNL     1       0.541   1.109 -21.732  0.00  0.00    +0.090 C 
ATOM     21  C   UNL     1       0.010   3.863 -23.539  0.00  0.00    +0.167 A 
ENDROOT
BRANCH   1  23
ATOM     22  C   UNL     1      -3.062   4.586 -24.581  0.00  0.00    +0.277 C 
ATOM     23  O   UNL     1      -1.834   4.684 -24.362  0.00  0.00    -0.491 OA
ENDBRANCH   1  23
TORSDOF 1
ENDMDL
