MODEL 1
REMARK VINA RESULT:   -10.142      0.000      0.000
REMARK INTER + INTRA:         -11.407
REMARK INTER:                 -11.175
REMARK INTRA:                  -0.232
REMARK UNBOUND:                 0.811
REMARK  Name = ZINC000000119985
REMARK  6 active torsions:
REMARK  status: ('A' for Active; 'I' for Inactive)
REMARK    1  A    between atoms: O_1  and  C_2
REMARK    2  A    between atoms: C_4  and  O_5
REMARK    3  A    between atoms: C_10  and  C_11
REMARK    4  A    between atoms: C_14  and  O_15
REMARK    5  A    between atoms: C_16  and  O_17
REMARK    6  A    between atoms: C_19  and  O_20
REMARK                            x       y       z     vdW  Elec       q    Type
REMARK                         _______ _______ _______ _____ _____    ______ ____
ROOT
ATOM      1  C   UNL     1      -3.967   4.226 -24.658  0.00  0.00    +0.124 A 
ATOM      2  C   UNL     1      -4.489   3.709 -23.586  0.00  0.00    +0.091 A 
ATOM      3  C   UNL     1      -3.728   3.116 -22.713  0.00  0.00    +0.127 A 
ATOM      4  C   UNL     1      -2.446   3.041 -22.913  0.00  0.00    +0.038 A 
ATOM      5  C   UNL     1      -1.924   3.559 -23.986  0.00  0.00    +0.132 A 
ATOM      6  O   UNL     1      -0.642   3.484 -24.187  0.00  0.00    -0.481 OA
ATOM      7  C   UNL     1       0.119   2.891 -23.314  0.00  0.00    +0.232 C 
ATOM      8  C   UNL     1      -0.403   2.373 -22.241  0.00  0.00    +0.164 C 
ATOM      9  C   UNL     1      -1.686   2.448 -22.041  0.00  0.00    +0.078 C 
ATOM     10  C   UNL     1      -2.684   4.151 -24.858  0.00  0.00    +0.091 A 
ENDROOT
BRANCH   7  11
ATOM     11  C   UNL     1       1.401   2.816 -23.514  0.00  0.00    -0.001 A 
ATOM     12  C   UNL     1       2.176   3.790 -23.139  0.00  0.00    +0.011 A 
ATOM     13  C   UNL     1       3.458   3.716 -23.339  0.00  0.00    +0.049 A 
ATOM     14  C   UNL     1       3.966   2.666 -23.915  0.00  0.00    +0.158 A 
ATOM     15  C   UNL     1       3.191   1.692 -24.290  0.00  0.00    +0.159 A 
ATOM     16  C   UNL     1       1.909   1.767 -24.090  0.00  0.00    +0.056 A 
BRANCH  15  17
ATOM     17  O   UNL     1       3.699   0.643 -24.866  0.00  0.00    -0.503 OA
ATOM     18  H   UNL     1       4.209   0.035 -24.367  0.00  0.00    +0.292 HD
ENDBRANCH  15  17
BRANCH  14  19
ATOM     19  O   UNL     1       5.248   2.591 -24.115  0.00  0.00    -0.503 OA
ATOM     20  H   UNL     1       5.781   2.070 -23.548  0.00  0.00    +0.292 HD
ENDBRANCH  14  19
ENDBRANCH   7  11
BRANCH   8  21
ATOM     21  O   UNL     1       0.357   1.781 -21.370  0.00  0.00    -0.387 OA
ATOM     22  H   UNL     1       1.143   1.425 -21.813  0.00  0.00    +0.210 HD
ENDBRANCH   8  21
BRANCH   1  23
ATOM     23  O   UNL     1      -4.727   4.819 -25.530  0.00  0.00    -0.507 OA
ATOM     24  H   UNL     1      -4.349   5.392 -26.168  0.00  0.00    +0.292 HD
ENDBRANCH   1  23
BRANCH   3  25
ATOM     25  O   UNL     1      -4.250   2.598 -21.641  0.00  0.00    -0.506 OA
ATOM     26  H   UNL     1      -4.319   1.667 -21.556  0.00  0.00    +0.292 HD
ENDBRANCH   3  25
TORSDOF 6
ENDMDL
MODEL 2
REMARK VINA RESULT:   -10.067      1.244      6.581
REMARK INTER + INTRA:         -11.316
REMARK INTER:                 -11.079
REMARK INTRA:                  -0.237
REMARK UNBOUND:                 0.811
REMARK  Name = ZINC000000119985
REMARK  6 active torsions:
REMARK  status: ('A' for Active; 'I' for Inactive)
REMARK    1  A    between atoms: O_1  and  C_2
REMARK    2  A    between atoms: C_4  and  O_5
REMARK    3  A    between atoms: C_10  and  C_11
REMARK    4  A    between atoms: C_14  and  O_15
REMARK    5  A    between atoms: C_16  and  O_17
REMARK    6  A    between atoms: C_19  and  O_20
REMARK                            x       y       z     vdW  Elec       q    Type
REMARK                         _______ _______ _______ _____ _____    ______ ____
ROOT
ATOM      1  C   UNL     1       3.194   1.709 -24.388  0.00  0.00    +0.124 A 
ATOM      2  C   UNL     1       3.841   2.772 -24.011  0.00  0.00    +0.091 A 
ATOM      3  C   UNL     1       3.187   3.828 -23.626  0.00  0.00    +0.127 A 
ATOM      4  C   UNL     1       1.888   3.821 -23.617  0.00  0.00    +0.038 A 
ATOM      5  C   UNL     1       1.241   2.758 -23.994  0.00  0.00    +0.132 A 
ATOM      6  O   UNL     1      -0.059   2.750 -23.986  0.00  0.00    -0.481 OA
ATOM      7  C   UNL     1      -0.713   3.807 -23.600  0.00  0.00    +0.232 C 
ATOM      8  C   UNL     1      -0.065   4.870 -23.223  0.00  0.00    +0.164 C 
ATOM      9  C   UNL     1       1.235   4.877 -23.232  0.00  0.00    +0.078 C 
ATOM     10  C   UNL     1       1.894   1.702 -24.379  0.00  0.00    +0.091 A 
ENDROOT
BRANCH   7  11
ATOM     11  C   UNL     1      -2.012   3.800 -23.592  0.00  0.00    -0.001 A 
ATOM     12  C   UNL     1      -2.653   3.404 -22.532  0.00  0.00    +0.011 A 
ATOM     13  C   UNL     1      -3.953   3.397 -22.524  0.00  0.00    +0.049 A 
ATOM     14  C   UNL     1      -4.612   3.786 -23.575  0.00  0.00    +0.158 A 
ATOM     15  C   UNL     1      -3.971   4.181 -24.635  0.00  0.00    +0.159 A 
ATOM     16  C   UNL     1      -2.671   4.188 -24.643  0.00  0.00    +0.056 A 
BRANCH  15  17
ATOM     17  O   UNL     1      -4.630   4.570 -25.686  0.00  0.00    -0.503 OA
ATOM     18  H   UNL     1      -4.962   3.936 -26.291  0.00  0.00    +0.292 HD
ENDBRANCH  15  17
BRANCH  14  19
ATOM     19  O   UNL     1      -5.912   3.779 -23.567  0.00  0.00    -0.503 OA
ATOM     20  H   UNL     1      -6.387   3.956 -24.355  0.00  0.00    +0.292 HD
ENDBRANCH  14  19
ENDBRANCH   7  11
BRANCH   8  21
ATOM     21  O   UNL     1      -0.719   5.925 -22.838  0.00  0.00    -0.387 OA
ATOM     22  H   UNL     1      -0.184   6.717 -23.004  0.00  0.00    +0.210 HD
ENDBRANCH   8  21
BRANCH   1  23
ATOM     23  O   UNL     1       3.847   0.653 -24.774  0.00  0.00    -0.507 OA
ATOM     24  H   UNL     1       3.996   0.502 -25.686  0.00  0.00    +0.292 HD
ENDBRANCH   1  23
BRANCH   3  25
ATOM     25  O   UNL     1       3.834   4.891 -23.249  0.00  0.00    -0.506 OA
ATOM     26  H   UNL     1       4.242   5.442 -23.887  0.00  0.00    +0.292 HD
ENDBRANCH   3  25
TORSDOF 6
ENDMDL
MODEL 3
REMARK VINA RESULT:   -10.056      1.620      2.852
REMARK INTER + INTRA:         -11.303
REMARK INTER:                 -11.174
REMARK INTRA:                  -0.129
REMARK UNBOUND:                 0.811
REMARK  Name = ZINC000000119985
REMARK  6 active torsions:
REMARK  status: ('A' for Active; 'I' for Inactive)
REMARK    1  A    between atoms: O_1  and  C_2
REMARK    2  A    between atoms: C_4  and  O_5
REMARK    3  A    between atoms: C_10  and  C_11
REMARK    4  A    between atoms: C_14  and  O_15
REMARK    5  A    between atoms: C_16  and  O_17
REMARK    6  A    between atoms: C_19  and  O_20
REMARK                            x       y       z     vdW  Elec       q    Type
REMARK                         _______ _______ _______ _____ _____    ______ ____
ROOT
ATOM      1  C   UNL     1      -4.959   3.565 -22.876  0.00  0.00    +0.124 A 
ATOM      2  C   UNL     1      -5.212   3.754 -24.137  0.00  0.00    +0.091 A 
ATOM      3  C   UNL     1      -4.236   3.819 -24.994  0.00  0.00    +0.127 A 
ATOM      4  C   UNL     1      -3.007   3.697 -24.589  0.00  0.00    +0.038 A 
ATOM      5  C   UNL     1      -2.753   3.508 -23.328  0.00  0.00    +0.132 A 
ATOM      6  O   UNL     1      -1.524   3.386 -22.922  0.00  0.00    -0.481 OA
ATOM      7  C   UNL     1      -0.548   3.451 -23.779  0.00  0.00    +0.232 C 
ATOM      8  C   UNL     1      -0.801   3.640 -25.041  0.00  0.00    +0.164 C 
ATOM      9  C   UNL     1      -2.031   3.762 -25.446  0.00  0.00    +0.078 C 
ATOM     10  C   UNL     1      -3.729   3.443 -22.472  0.00  0.00    +0.091 A 
ENDROOT
BRANCH   7  11
ATOM     11  C   UNL     1       0.681   3.329 -23.374  0.00  0.00    -0.001 A 
ATOM     12  C   UNL     1       1.129   2.167 -23.000  0.00  0.00    +0.011 A 
ATOM     13  C   UNL     1       2.358   2.045 -22.595  0.00  0.00    +0.049 A 
ATOM     14  C   UNL     1       3.140   3.084 -22.565  0.00  0.00    +0.158 A 
ATOM     15  C   UNL     1       2.692   4.245 -22.940  0.00  0.00    +0.159 A 
ATOM     16  C   UNL     1       1.462   4.367 -23.345  0.00  0.00    +0.056 A 
BRANCH  15  17
ATOM     17  O   UNL     1       3.473   5.284 -22.910  0.00  0.00    -0.503 OA
ATOM     18  H   UNL     1       3.412   5.935 -23.581  0.00  0.00    +0.292 HD
ENDBRANCH  15  17
BRANCH  14  19
ATOM     19  O   UNL     1       4.369   2.961 -22.160  0.00  0.00    -0.503 OA
ATOM     20  H   UNL     1       4.610   2.248 -21.602  0.00  0.00    +0.292 HD
ENDBRANCH  14  19
ENDBRANCH   7  11
BRANCH   8  21
ATOM     21  O   UNL     1       0.174   3.705 -25.897  0.00  0.00    -0.387 OA
ATOM     22  H   UNL     1       0.342   4.632 -26.127  0.00  0.00    +0.210 HD
ENDBRANCH   8  21
BRANCH   1  23
ATOM     23  O   UNL     1      -5.934   3.500 -22.020  0.00  0.00    -0.507 OA
ATOM     24  H   UNL     1      -6.241   4.278 -21.598  0.00  0.00    +0.292 HD
ENDBRANCH   1  23
BRANCH   3  25
ATOM     25  O   UNL     1      -4.489   4.008 -26.255  0.00  0.00    -0.506 OA
ATOM     26  H   UNL     1      -4.948   4.777 -26.531  0.00  0.00    +0.292 HD
ENDBRANCH   3  25
TORSDOF 6
ENDMDL
MODEL 4
REMARK VINA RESULT:   -10.011      1.390      2.476
REMARK INTER + INTRA:         -11.248
REMARK INTER:                 -11.068
REMARK INTRA:                  -0.180
REMARK UNBOUND:                 0.811
REMARK  Name = ZINC000000119985
REMARK  6 active torsions:
REMARK  status: ('A' for Active; 'I' for Inactive)
REMARK    1  A    between atoms: O_1  and  C_2
REMARK    2  A    between atoms: C_4  and  O_5
REMARK    3  A    between atoms: C_10  and  C_11
REMARK    4  A    between atoms: C_14  and  O_15
REMARK    5  A    between atoms: C_16  and  O_17
REMARK    6  A    between atoms: C_19  and  O_20
REMARK                            x       y       z     vdW  Elec       q    Type
REMARK                         _______ _______ _______ _____ _____    ______ ____
ROOT
ATOM      1  C   UNL     1      -4.902   3.453 -22.654  0.00  0.00    +0.124 A 
ATOM      2  C   UNL     1      -5.181   3.812 -23.872  0.00  0.00    +0.091 A 
ATOM      3  C   UNL     1      -4.233   3.889 -24.759  0.00  0.00    +0.127 A 
ATOM      4  C   UNL     1      -3.009   3.606 -24.429  0.00  0.00    +0.038 A 
ATOM      5  C   UNL     1      -2.730   3.247 -23.211  0.00  0.00    +0.132 A 
ATOM      6  O   UNL     1      -1.505   2.965 -22.880  0.00  0.00    -0.481 OA
ATOM      7  C   UNL     1      -0.558   3.042 -23.768  0.00  0.00    +0.232 C 
ATOM      8  C   UNL     1      -0.836   3.401 -24.987  0.00  0.00    +0.164 C 
ATOM      9  C   UNL     1      -2.062   3.683 -25.317  0.00  0.00    +0.078 C 
ATOM     10  C   UNL     1      -3.676   3.170 -22.324  0.00  0.00    +0.091 A 
ENDROOT
BRANCH   7  11
ATOM     11  C   UNL     1       0.667   2.759 -23.437  0.00  0.00    -0.001 A 
ATOM     12  C   UNL     1       1.526   3.716 -23.245  0.00  0.00    +0.011 A 
ATOM     13  C   UNL     1       2.750   3.434 -22.915  0.00  0.00    +0.049 A 
ATOM     14  C   UNL     1       3.118   2.194 -22.777  0.00  0.00    +0.158 A 
ATOM     15  C   UNL     1       2.259   1.237 -22.969  0.00  0.00    +0.159 A 
ATOM     16  C   UNL     1       1.034   1.520 -23.300  0.00  0.00    +0.056 A 
BRANCH  15  17
ATOM     17  O   UNL     1       2.626  -0.003 -22.832  0.00  0.00    -0.503 OA
ATOM     18  H   UNL     1       3.220  -0.242 -22.148  0.00  0.00    +0.292 HD
ENDBRANCH  15  17
BRANCH  14  19
ATOM     19  O   UNL     1       4.343   1.912 -22.446  0.00  0.00    -0.503 OA
ATOM     20  H   UNL     1       4.622   1.018 -22.400  0.00  0.00    +0.292 HD
ENDBRANCH  14  19
ENDBRANCH   7  11
BRANCH   8  21
ATOM     21  O   UNL     1       0.110   3.478 -25.873  0.00  0.00    -0.387 OA
ATOM     22  H   UNL     1       0.972   3.410 -25.434  0.00  0.00    +0.210 HD
ENDBRANCH   8  21
BRANCH   1  23
ATOM     23  O   UNL     1      -5.849   3.376 -21.766  0.00  0.00    -0.507 OA
ATOM     24  H   UNL     1      -6.315   4.147 -21.511  0.00  0.00    +0.292 HD
ENDBRANCH   1  23
BRANCH   3  25
ATOM     25  O   UNL     1      -4.512   4.248 -25.977  0.00  0.00    -0.506 OA
ATOM     26  H   UNL     1      -5.254   3.881 -26.416  0.00  0.00    +0.292 HD
ENDBRANCH   3  25
TORSDOF 6
ENDMDL
MODEL 5
REMARK VINA RESULT:    -9.842      1.244      6.587
REMARK INTER + INTRA:         -11.045
REMARK INTER:                 -10.809
REMARK INTRA:                  -0.236
REMARK UNBOUND:                 0.811
REMARK  Name = ZINC000000119985
REMARK  6 active torsions:
REMARK  status: ('A' for Active; 'I' for Inactive)
REMARK    1  A    between atoms: O_1  and  C_2
REMARK    2  A    between atoms: C_4  and  O_5
REMARK    3  A    between atoms: C_10  and  C_11
REMARK    4  A    between atoms: C_14  and  O_15
REMARK    5  A    between atoms: C_16  and  O_17
REMARK    6  A    between atoms: C_19  and  O_20
REMARK                            x       y       z     vdW  Elec       q    Type
REMARK                         _______ _______ _______ _____ _____    ______ ____
ROOT
ATOM      1  C   UNL     1       3.193   1.708 -24.383  0.00  0.00    +0.124 A 
ATOM      2  C   UNL     1       3.843   2.766 -23.998  0.00  0.00    +0.091 A 
ATOM      3  C   UNL     1       3.193   3.824 -23.611  0.00  0.00    +0.127 A 
ATOM      4  C   UNL     1       1.893   3.823 -23.609  0.00  0.00    +0.038 A 
ATOM      5  C   UNL     1       1.243   2.765 -23.994  0.00  0.00    +0.132 A 
ATOM      6  O   UNL     1      -0.057   2.763 -23.992  0.00  0.00    -0.481 OA
ATOM      7  C   UNL     1      -0.708   3.821 -23.605  0.00  0.00    +0.232 C 
ATOM      8  C   UNL     1      -0.057   4.880 -23.219  0.00  0.00    +0.164 C 
ATOM      9  C   UNL     1       1.244   4.880 -23.221  0.00  0.00    +0.078 C 
ATOM     10  C   UNL     1       1.893   1.708 -24.381  0.00  0.00    +0.091 A 
ENDROOT
BRANCH   7  11
ATOM     11  C   UNL     1      -2.007   3.820 -23.602  0.00  0.00    -0.001 A 
ATOM     12  C   UNL     1      -2.659   4.238 -24.647  0.00  0.00    +0.011 A 
ATOM     13  C   UNL     1      -3.959   4.237 -24.645  0.00  0.00    +0.049 A 
ATOM     14  C   UNL     1      -4.607   3.818 -23.598  0.00  0.00    +0.158 A 
ATOM     15  C   UNL     1      -3.955   3.401 -22.553  0.00  0.00    +0.159 A 
ATOM     16  C   UNL     1      -2.655   3.402 -22.556  0.00  0.00    +0.056 A 
BRANCH  15  17
ATOM     17  O   UNL     1      -4.603   2.982 -21.507  0.00  0.00    -0.503 OA
ATOM     18  H   UNL     1      -4.364   2.172 -21.101  0.00  0.00    +0.292 HD
ENDBRANCH  15  17
BRANCH  14  19
ATOM     19  O   UNL     1      -5.907   3.817 -23.596  0.00  0.00    -0.503 OA
ATOM     20  H   UNL     1      -6.376   4.627 -23.556  0.00  0.00    +0.292 HD
ENDBRANCH  14  19
ENDBRANCH   7  11
BRANCH   8  21
ATOM     21  O   UNL     1      -0.707   5.936 -22.832  0.00  0.00    -0.387 OA
ATOM     22  H   UNL     1      -1.298   5.703 -22.099  0.00  0.00    +0.210 HD
ENDBRANCH   8  21
BRANCH   1  23
ATOM     23  O   UNL     1       3.843   0.651 -24.770  0.00  0.00    -0.507 OA
ATOM     24  H   UNL     1       4.220   0.621 -25.627  0.00  0.00    +0.292 HD
ENDBRANCH   1  23
BRANCH   3  25
ATOM     25  O   UNL     1       3.843   4.882 -23.226  0.00  0.00    -0.506 OA
ATOM     26  H   UNL     1       4.701   4.797 -22.859  0.00  0.00    +0.292 HD
ENDBRANCH   3  25
TORSDOF 6
ENDMDL
MODEL 6
REMARK VINA RESULT:    -9.524      1.756      6.535
REMARK INTER + INTRA:         -10.662
REMARK INTER:                 -10.823
REMARK INTRA:                   0.161
REMARK UNBOUND:                 0.811
REMARK  Name = ZINC000000119985
REMARK  6 active torsions:
REMARK  status: ('A' for Active; 'I' for Inactive)
REMARK    1  A    between atoms: O_1  and  C_2
REMARK    2  A    between atoms: C_4  and  O_5
REMARK    3  A    between atoms: C_10  and  C_11
REMARK    4  A    between atoms: C_14  and  O_15
REMARK    5  A    between atoms: C_16  and  O_17
REMARK    6  A    between atoms: C_19  and  O_20
REMARK                            x       y       z     vdW  Elec       q    Type
REMARK                         _______ _______ _______ _____ _____    ______ ____
ROOT
ATOM      1  C   UNL     1       2.853   1.083 -21.546  0.00  0.00    +0.124 A 
ATOM      2  C   UNL     1       3.844   1.352 -22.343  0.00  0.00    +0.091 A 
ATOM      3  C   UNL     1       3.633   2.013 -23.443  0.00  0.00    +0.127 A 
ATOM      4  C   UNL     1       2.431   2.404 -23.746  0.00  0.00    +0.038 A 
ATOM      5  C   UNL     1       1.440   2.135 -22.949  0.00  0.00    +0.132 A 
ATOM      6  O   UNL     1       0.237   2.526 -23.251  0.00  0.00    -0.481 OA
ATOM      7  C   UNL     1       0.026   3.187 -24.352  0.00  0.00    +0.232 C 
ATOM      8  C   UNL     1       1.018   3.456 -25.149  0.00  0.00    +0.164 C 
ATOM      9  C   UNL     1       2.221   3.064 -24.846  0.00  0.00    +0.078 C 
ATOM     10  C   UNL     1       1.651   1.475 -21.850  0.00  0.00    +0.091 A 
ENDROOT
BRANCH   7  11
ATOM     11  C   UNL     1      -1.176   3.578 -24.654  0.00  0.00    -0.001 A 
ATOM     12  C   UNL     1      -1.858   4.294 -23.811  0.00  0.00    +0.011 A 
ATOM     13  C   UNL     1      -3.060   4.685 -24.114  0.00  0.00    +0.049 A 
ATOM     14  C   UNL     1      -3.580   4.360 -25.260  0.00  0.00    +0.158 A 
ATOM     15  C   UNL     1      -2.898   3.644 -26.104  0.00  0.00    +0.159 A 
ATOM     16  C   UNL     1      -1.695   3.252 -25.800  0.00  0.00    +0.056 A 
BRANCH  15  17
ATOM     17  O   UNL     1      -3.418   3.318 -27.250  0.00  0.00    -0.503 OA
ATOM     18  H   UNL     1      -3.343   2.439 -27.565  0.00  0.00    +0.292 HD
ENDBRANCH  15  17
BRANCH  14  19
ATOM     19  O   UNL     1      -4.782   4.751 -25.563  0.00  0.00    -0.503 OA
ATOM     20  H   UNL     1      -5.524   4.276 -25.244  0.00  0.00    +0.292 HD
ENDBRANCH  14  19
ENDBRANCH   7  11
BRANCH   8  21
ATOM     21  O   UNL     1       0.807   4.116 -26.248  0.00  0.00    -0.387 OA
ATOM     22  H   UNL     1       1.374   3.765 -26.951  0.00  0.00    +0.210 HD
ENDBRANCH   8  21
BRANCH   1  23
ATOM     23  O   UNL     1       3.064   0.423 -20.447  0.00  0.00    -0.507 OA
ATOM     24  H   UNL     1       3.897   0.023 -20.293  0.00  0.00    +0.292 HD
ENDBRANCH   1  23
BRANCH   3  25
ATOM     25  O   UNL     1       4.624   2.282 -24.240  0.00  0.00    -0.506 OA
ATOM     26  H   UNL     1       5.484   2.416 -23.891  0.00  0.00    +0.292 HD
ENDBRANCH   3  25
TORSDOF 6
ENDMDL
MODEL 7
REMARK VINA RESULT:    -8.351      1.844      2.473
REMARK INTER + INTRA:          -9.248
REMARK INTER:                  -9.755
REMARK INTRA:                   0.507
REMARK UNBOUND:                 0.811
REMARK  Name = ZINC000000119985
REMARK  6 active torsions:
REMARK  status: ('A' for Active; 'I' for Inactive)
REMARK    1  A    between atoms: O_1  and  C_2
REMARK    2  A    between atoms: C_4  and  O_5
REMARK    3  A    between atoms: C_10  and  C_11
REMARK    4  A    between atoms: C_14  and  O_15
REMARK    5  A    between atoms: C_16  and  O_17
REMARK    6  A    between atoms: C_19  and  O_20
REMARK                            x       y       z     vdW  Elec       q    Type
REMARK                         _______ _______ _______ _____ _____    ______ ____
ROOT
ATOM      1  C   UNL     1      -1.789   3.870 -23.787  0.00  0.00    +0.124 A 
ATOM      2  C   UNL     1      -2.353   3.093 -22.911  0.00  0.00    +0.091 A 
ATOM      3  C   UNL     1      -1.620   2.347 -22.137  0.00  0.00    +0.127 A 
ATOM      4  C   UNL     1      -0.325   2.378 -22.240  0.00  0.00    +0.038 A 
ATOM      5  C   UNL     1       0.239   3.155 -23.117  0.00  0.00    +0.132 A 
ATOM      6  O   UNL     1       1.534   3.187 -23.220  0.00  0.00    -0.481 OA
ATOM      7  C   UNL     1       2.267   2.441 -22.447  0.00  0.00    +0.232 C 
ATOM      8  C   UNL     1       1.702   1.663 -21.569  0.00  0.00    +0.164 C 
ATOM      9  C   UNL     1       0.406   1.632 -21.467  0.00  0.00    +0.078 C 
ATOM     10  C   UNL     1      -0.493   3.901 -23.890  0.00  0.00    +0.091 A 
ENDROOT
BRANCH   7  11
ATOM     11  C   UNL     1       3.562   2.472 -22.550  0.00  0.00    -0.001 A 
ATOM     12  C   UNL     1       4.169   3.598 -22.780  0.00  0.00    +0.011 A 
ATOM     13  C   UNL     1       5.464   3.629 -22.883  0.00  0.00    +0.049 A 
ATOM     14  C   UNL     1       6.153   2.534 -22.756  0.00  0.00    +0.158 A 
ATOM     15  C   UNL     1       5.546   1.407 -22.526  0.00  0.00    +0.159 A 
ATOM     16  C   UNL     1       4.250   1.377 -22.423  0.00  0.00    +0.056 A 
BRANCH  15  17
ATOM     17  O   UNL     1       6.234   0.312 -22.398  0.00  0.00    -0.503 OA
ATOM     18  H   UNL     1       7.061   0.225 -22.832  0.00  0.00    +0.292 HD
ENDBRANCH  15  17
BRANCH  14  19
ATOM     19  O   UNL     1       7.448   2.565 -22.859  0.00  0.00    -0.503 OA
ATOM     20  H   UNL     1       7.848   2.851 -23.657  0.00  0.00    +0.292 HD
ENDBRANCH  14  19
ENDBRANCH   7  11
BRANCH   8  21
ATOM     21  O   UNL     1       2.434   0.918 -20.797  0.00  0.00    -0.387 OA
ATOM     22  H   UNL     1       2.000   0.061 -20.667  0.00  0.00    +0.210 HD
ENDBRANCH   8  21
BRANCH   1  23
ATOM     23  O   UNL     1      -2.520   4.616 -24.561  0.00  0.00    -0.507 OA
ATOM     24  H   UNL     1      -3.059   5.287 -24.191  0.00  0.00    +0.292 HD
ENDBRANCH   1  23
BRANCH   3  25
ATOM     25  O   UNL     1      -2.184   1.570 -21.260  0.00  0.00    -0.506 OA
ATOM     26  H   UNL     1      -2.304   0.660 -21.449  0.00  0.00    +0.292 HD
ENDBRANCH   3  25
TORSDOF 6
ENDMDL
MODEL 8
REMARK VINA RESULT:    -8.007      2.381      3.875
REMARK INTER + INTRA:          -8.834
REMARK INTER:                  -8.624
REMARK INTRA:                  -0.210
REMARK UNBOUND:                 0.811
REMARK  Name = ZINC000000119985
REMARK  6 active torsions:
REMARK  status: ('A' for Active; 'I' for Inactive)
REMARK    1  A    between atoms: O_1  and  C_2
REMARK    2  A    between atoms: C_4  and  O_5
REMARK    3  A    between atoms: C_10  and  C_11
REMARK    4  A    between atoms: C_14  and  O_15
REMARK    5  A    between atoms: C_16  and  O_17
REMARK    6  A    between atoms: C_19  and  O_20
REMARK                            x       y       z     vdW  Elec       q    Type
REMARK                         _______ _______ _______ _____ _____    ______ ____
ROOT
ATOM      1  C   UNL     1      -0.712   3.304 -25.037  0.00  0.00    +0.124 A 
ATOM      2  C   UNL     1      -1.126   2.561 -24.054  0.00  0.00    +0.091 A 
ATOM      3  C   UNL     1      -0.308   2.230 -23.099  0.00  0.00    +0.127 A 
ATOM      4  C   UNL     1       0.925   2.641 -23.128  0.00  0.00    +0.038 A 
ATOM      5  C   UNL     1       1.339   3.384 -24.111  0.00  0.00    +0.132 A 
ATOM      6  O   UNL     1       2.572   3.796 -24.140  0.00  0.00    -0.481 OA
ATOM      7  C   UNL     1       3.391   3.464 -23.185  0.00  0.00    +0.232 C 
ATOM      8  C   UNL     1       2.976   2.721 -22.201  0.00  0.00    +0.164 C 
ATOM      9  C   UNL     1       1.742   2.310 -22.173  0.00  0.00    +0.078 C 
ATOM     10  C   UNL     1       0.522   3.715 -25.065  0.00  0.00    +0.091 A 
ENDROOT
BRANCH   7  11
ATOM     11  C   UNL     1       4.623   3.876 -23.214  0.00  0.00    -0.001 A 
ATOM     12  C   UNL     1       5.563   3.085 -23.640  0.00  0.00    +0.011 A 
ATOM     13  C   UNL     1       6.795   3.496 -23.669  0.00  0.00    +0.049 A 
ATOM     14  C   UNL     1       7.089   4.699 -23.271  0.00  0.00    +0.158 A 
ATOM     15  C   UNL     1       6.150   5.490 -22.844  0.00  0.00    +0.159 A 
ATOM     16  C   UNL     1       4.916   5.078 -22.816  0.00  0.00    +0.056 A 
BRANCH  15  17
ATOM     17  O   UNL     1       6.443   6.692 -22.446  0.00  0.00    -0.503 OA
ATOM     18  H   UNL     1       6.294   7.423 -23.014  0.00  0.00    +0.292 HD
ENDBRANCH  15  17
BRANCH  14  19
ATOM     19  O   UNL     1       8.322   5.110 -23.299  0.00  0.00    -0.503 OA
ATOM     20  H   UNL     1       8.821   5.151 -22.507  0.00  0.00    +0.292 HD
ENDBRANCH  14  19
ENDBRANCH   7  11
BRANCH   8  21
ATOM     21  O   UNL     1       3.794   2.390 -21.248  0.00  0.00    -0.387 OA
ATOM     22  H   UNL     1       4.594   1.997 -21.629  0.00  0.00    +0.210 HD
ENDBRANCH   8  21
BRANCH   1  23
ATOM     23  O   UNL     1      -1.529   3.635 -25.992  0.00  0.00    -0.507 OA
ATOM     24  H   UNL     1      -1.273   3.528 -26.886  0.00  0.00    +0.292 HD
ENDBRANCH   1  23
BRANCH   3  25
ATOM     25  O   UNL     1      -0.723   1.487 -22.116  0.00  0.00    -0.506 OA
ATOM     26  H   UNL     1      -1.340   0.800 -22.276  0.00  0.00    +0.292 HD
ENDBRANCH   3  25
TORSDOF 6
ENDMDL
