MODEL 1
REMARK VINA RESULT:   -12.469      0.000      0.000
REMARK INTER + INTRA:         -12.469
REMARK INTER:                 -12.469
REMARK INTRA:                   0.000
REMARK UNBOUND:                 0.000
REMARK  Name = C[C@]12CC[C@@H]3[C@H](CC(=O)[C@H]4CC(=O)CC[C@@]43C)[C@@H]1CCC2=O     ZINC000253504862
REMARK  2 active torsions:
REMARK  status: ('A' for Active; 'I' for Inactive)
REMARK    1  A    between atoms: C_1  and  C_2
REMARK    2  A    between atoms: C_16  and  C_17
REMARK                            x       y       z     vdW  Elec       q    Type
REMARK                         _______ _______ _______ _____ _____    ______ ____
ROOT
ATOM      1  C   UNL     1      -4.745   2.871 -21.545  0.00  0.00    +0.019 C 
ATOM      2  C   UNL     1      -3.897   3.115 -22.499  0.00  0.00    +0.029 C 
ATOM      3  C   UNL     1      -3.373   2.532 -21.462  0.00  0.00    +0.015 C 
ATOM      4  C   UNL     1      -2.104   2.247 -21.448  0.00  0.00    +0.005 C 
ATOM      5  C   UNL     1      -1.361   2.545 -22.472  0.00  0.00    -0.001 C 
ATOM      6  C   UNL     1      -1.885   3.128 -23.509  0.00  0.00    +0.004 C 
ATOM      7  C   UNL     1      -1.141   3.426 -24.532  0.00  0.00    +0.078 C 
ATOM      8  C   UNL     1       0.127   3.142 -24.519  0.00  0.00    +0.138 C 
ATOM      9  C   UNL     1       0.652   2.559 -23.481  0.00  0.00    +0.068 C 
ATOM     10  C   UNL     1       1.920   2.274 -23.468  0.00  0.00    +0.086 C 
ATOM     11  C   UNL     1       2.444   1.691 -22.431  0.00  0.00    +0.134 C 
ATOM     12  C   UNL     1       1.700   1.393 -21.407  0.00  0.00    +0.075 C 
ATOM     13  C   UNL     1       0.432   1.678 -21.421  0.00  0.00    +0.015 C 
ATOM     14  O   UNL     1       3.713   1.406 -22.417  0.00  0.00    -0.297 OA
ATOM     15  O   UNL     1       0.872   3.439 -25.542  0.00  0.00    -0.297 OA
ATOM     16  C   UNL     1      -0.093   2.261 -22.458  0.00  0.00    -0.019 C 
ATOM     17  C   UNL     1      -0.836   1.963 -21.435  0.00  0.00    +0.012 C 
ATOM     18  C   UNL     1      -5.111   3.499 -22.760  0.00  0.00    +0.139 C 
ATOM     19  O   UNL     1      -6.140   3.371 -21.974  0.00  0.00    -0.297 OA
ATOM     20  C   UNL     1      -5.118   4.035 -23.945  0.00  0.00    +0.075 C 
ATOM     21  C   UNL     1      -3.908   3.981 -24.416  0.00  0.00    +0.012 C 
ATOM     22  C   UNL     1      -3.153   3.413 -23.523  0.00  0.00    +0.006 C 
ENDROOT
TORSDOF 0
ENDMDL
MODEL 2
REMARK VINA RESULT:   -12.144      1.125      2.650
REMARK INTER + INTRA:         -12.144
REMARK INTER:                 -12.144
REMARK INTRA:                   0.000
REMARK UNBOUND:                 0.000
REMARK  Name = C[C@]12CC[C@@H]3[C@H](CC(=O)[C@H]4CC(=O)CC[C@@]43C)[C@@H]1CCC2=O     ZINC000253504862
REMARK  2 active torsions:
REMARK  status: ('A' for Active; 'I' for Inactive)
REMARK    1  A    between atoms: C_1  and  C_2
REMARK    2  A    between atoms: C_16  and  C_17
REMARK                            x       y       z     vdW  Elec       q    Type
REMARK                         _______ _______ _______ _____ _____    ______ ____
ROOT
ATOM      1  C   UNL     1      -4.533   3.781 -23.916  0.00  0.00    +0.019 C 
ATOM      2  C   UNL     1      -3.696   3.264 -23.067  0.00  0.00    +0.029 C 
ATOM      3  C   UNL     1      -3.159   3.598 -24.203  0.00  0.00    +0.015 C 
ATOM      4  C   UNL     1      -1.889   3.404 -24.404  0.00  0.00    +0.005 C 
ATOM      5  C   UNL     1      -1.157   2.875 -23.469  0.00  0.00    -0.001 C 
ATOM      6  C   UNL     1      -1.694   2.540 -22.333  0.00  0.00    +0.004 C 
ATOM      7  C   UNL     1      -0.962   2.011 -21.398  0.00  0.00    +0.078 C 
ATOM      8  C   UNL     1       0.307   1.817 -21.599  0.00  0.00    +0.138 C 
ATOM      9  C   UNL     1       0.845   2.152 -22.735  0.00  0.00    +0.068 C 
ATOM     10  C   UNL     1       2.114   1.957 -22.936  0.00  0.00    +0.086 C 
ATOM     11  C   UNL     1       2.651   2.292 -24.071  0.00  0.00    +0.134 C 
ATOM     12  C   UNL     1       1.919   2.821 -25.006  0.00  0.00    +0.075 C 
ATOM     13  C   UNL     1       0.650   3.015 -24.806  0.00  0.00    +0.015 C 
ATOM     14  O   UNL     1       3.921   2.097 -24.272  0.00  0.00    -0.297 OA
ATOM     15  O   UNL     1       1.040   1.288 -20.665  0.00  0.00    -0.297 OA
ATOM     16  C   UNL     1       0.112   2.680 -23.670  0.00  0.00    -0.019 C 
ATOM     17  C   UNL     1      -0.620   3.209 -24.604  0.00  0.00    +0.012 C 
ATOM     18  C   UNL     1      -4.914   3.350 -22.622  0.00  0.00    +0.139 C 
ATOM     19  O   UNL     1      -5.934   3.828 -23.272  0.00  0.00    -0.297 OA
ATOM     20  C   UNL     1      -4.935   2.875 -21.412  0.00  0.00    +0.075 C 
ATOM     21  C   UNL     1      -3.730   2.495 -21.110  0.00  0.00    +0.012 C 
ATOM     22  C   UNL     1      -2.964   2.735 -22.132  0.00  0.00    +0.006 C 
ENDROOT
TORSDOF 0
ENDMDL
MODEL 3
REMARK VINA RESULT:   -11.814      1.139      5.524
REMARK INTER + INTRA:         -11.814
REMARK INTER:                 -11.814
REMARK INTRA:                   0.000
REMARK UNBOUND:                 0.000
REMARK  Name = C[C@]12CC[C@@H]3[C@H](CC(=O)[C@H]4CC(=O)CC[C@@]43C)[C@@H]1CCC2=O     ZINC000253504862
REMARK  2 active torsions:
REMARK  status: ('A' for Active; 'I' for Inactive)
REMARK    1  A    between atoms: C_1  and  C_2
REMARK    2  A    between atoms: C_16  and  C_17
REMARK                            x       y       z     vdW  Elec       q    Type
REMARK                         _______ _______ _______ _____ _____    ______ ____
ROOT
ATOM      1  C   UNL     1       2.116   1.532 -21.898  0.00  0.00    +0.019 C 
ATOM      2  C   UNL     1       1.349   2.067 -22.801  0.00  0.00    +0.029 C 
ATOM      3  C   UNL     1       0.732   1.752 -21.702  0.00  0.00    +0.015 C 
ATOM      4  C   UNL     1      -0.543   1.980 -21.583  0.00  0.00    +0.005 C 
ATOM      5  C   UNL     1      -1.199   2.523 -22.565  0.00  0.00    -0.001 C 
ATOM      6  C   UNL     1      -0.582   2.838 -23.665  0.00  0.00    +0.004 C 
ATOM      7  C   UNL     1      -1.238   3.382 -24.647  0.00  0.00    +0.078 C 
ATOM      8  C   UNL     1      -2.512   3.610 -24.529  0.00  0.00    +0.138 C 
ATOM      9  C   UNL     1      -3.130   3.295 -23.429  0.00  0.00    +0.068 C 
ATOM     10  C   UNL     1      -4.404   3.523 -23.312  0.00  0.00    +0.086 C 
ATOM     11  C   UNL     1      -5.022   3.208 -22.212  0.00  0.00    +0.134 C 
ATOM     12  C   UNL     1      -4.366   2.665 -21.230  0.00  0.00    +0.075 C 
ATOM     13  C   UNL     1      -3.092   2.437 -21.348  0.00  0.00    +0.015 C 
ATOM     14  O   UNL     1      -6.297   3.437 -22.094  0.00  0.00    -0.297 OA
ATOM     15  O   UNL     1      -3.169   4.154 -25.511  0.00  0.00    -0.297 OA
ATOM     16  C   UNL     1      -2.473   2.752 -22.448  0.00  0.00    -0.019 C 
ATOM     17  C   UNL     1      -1.817   2.208 -21.466  0.00  0.00    +0.012 C 
ATOM     18  C   UNL     1       2.591   1.946 -23.166  0.00  0.00    +0.139 C 
ATOM     19  O   UNL     1       3.554   1.445 -22.450  0.00  0.00    -0.297 OA
ATOM     20  C   UNL     1       2.702   2.415 -24.374  0.00  0.00    +0.075 C 
ATOM     21  C   UNL     1       1.530   2.826 -24.755  0.00  0.00    +0.012 C 
ATOM     22  C   UNL     1       0.693   2.610 -23.783  0.00  0.00    +0.006 C 
ENDROOT
TORSDOF 0
ENDMDL
MODEL 4
REMARK VINA RESULT:   -10.825      1.373      6.135
REMARK INTER + INTRA:         -10.825
REMARK INTER:                 -10.825
REMARK INTRA:                   0.000
REMARK UNBOUND:                 0.000
REMARK  Name = C[C@]12CC[C@@H]3[C@H](CC(=O)[C@H]4CC(=O)CC[C@@]43C)[C@@H]1CCC2=O     ZINC000253504862
REMARK  2 active torsions:
REMARK  status: ('A' for Active; 'I' for Inactive)
REMARK    1  A    between atoms: C_1  and  C_2
REMARK    2  A    between atoms: C_16  and  C_17
REMARK                            x       y       z     vdW  Elec       q    Type
REMARK                         _______ _______ _______ _____ _____    ______ ____
ROOT
ATOM      1  C   UNL     1       2.828   2.349 -23.955  0.00  0.00    +0.019 C 
ATOM      2  C   UNL     1       1.813   2.216 -23.155  0.00  0.00    +0.029 C 
ATOM      3  C   UNL     1       1.516   2.751 -24.302  0.00  0.00    +0.015 C 
ATOM      4  C   UNL     1       0.289   3.099 -24.559  0.00  0.00    +0.005 C 
ATOM      5  C   UNL     1      -0.639   2.912 -23.668  0.00  0.00    -0.001 C 
ATOM      6  C   UNL     1      -0.342   2.377 -22.521  0.00  0.00    +0.004 C 
ATOM      7  C   UNL     1      -1.270   2.191 -21.630  0.00  0.00    +0.078 C 
ATOM      8  C   UNL     1      -2.496   2.538 -21.887  0.00  0.00    +0.138 C 
ATOM      9  C   UNL     1      -2.794   3.073 -23.034  0.00  0.00    +0.068 C 
ATOM     10  C   UNL     1      -4.020   3.421 -23.291  0.00  0.00    +0.086 C 
ATOM     11  C   UNL     1      -4.317   3.955 -24.438  0.00  0.00    +0.134 C 
ATOM     12  C   UNL     1      -3.388   4.142 -25.329  0.00  0.00    +0.075 C 
ATOM     13  C   UNL     1      -2.163   3.794 -25.072  0.00  0.00    +0.015 C 
ATOM     14  O   UNL     1      -5.543   4.303 -24.695  0.00  0.00    -0.297 OA
ATOM     15  O   UNL     1      -3.425   2.352 -20.997  0.00  0.00    -0.297 OA
ATOM     16  C   UNL     1      -1.865   3.260 -23.924  0.00  0.00    -0.019 C 
ATOM     17  C   UNL     1      -0.936   3.446 -24.815  0.00  0.00    +0.012 C 
ATOM     18  C   UNL     1       2.936   1.789 -22.659  0.00  0.00    +0.139 C 
ATOM     19  O   UNL     1       4.092   1.809 -23.255  0.00  0.00    -0.297 OA
ATOM     20  C   UNL     1       2.702   1.339 -21.462  0.00  0.00    +0.075 C 
ATOM     21  C   UNL     1       1.434   1.487 -21.218  0.00  0.00    +0.012 C 
ATOM     22  C   UNL     1       0.884   2.029 -22.264  0.00  0.00    +0.006 C 
ENDROOT
TORSDOF 0
ENDMDL
MODEL 5
REMARK VINA RESULT:   -10.782      0.859      1.067
REMARK INTER + INTRA:         -10.782
REMARK INTER:                 -10.782
REMARK INTRA:                   0.000
REMARK UNBOUND:                 0.000
REMARK  Name = C[C@]12CC[C@@H]3[C@H](CC(=O)[C@H]4CC(=O)CC[C@@]43C)[C@@H]1CCC2=O     ZINC000253504862
REMARK  2 active torsions:
REMARK  status: ('A' for Active; 'I' for Inactive)
REMARK    1  A    between atoms: C_1  and  C_2
REMARK    2  A    between atoms: C_16  and  C_17
REMARK                            x       y       z     vdW  Elec       q    Type
REMARK                         _______ _______ _______ _____ _____    ______ ____
ROOT
ATOM      1  C   UNL     1      -3.861   3.044 -21.692  0.00  0.00    +0.019 C 
ATOM      2  C   UNL     1      -2.947   3.075 -22.615  0.00  0.00    +0.029 C 
ATOM      3  C   UNL     1      -2.546   2.560 -21.491  0.00  0.00    +0.015 C 
ATOM      4  C   UNL     1      -1.324   2.133 -21.370  0.00  0.00    +0.005 C 
ATOM      5  C   UNL     1      -0.502   2.222 -22.373  0.00  0.00    -0.001 C 
ATOM      6  C   UNL     1      -0.903   2.738 -23.498  0.00  0.00    +0.004 C 
ATOM      7  C   UNL     1      -0.082   2.826 -24.501  0.00  0.00    +0.078 C 
ATOM      8  C   UNL     1       1.140   2.400 -24.381  0.00  0.00    +0.138 C 
ATOM      9  C   UNL     1       1.541   1.885 -23.256  0.00  0.00    +0.068 C 
ATOM     10  C   UNL     1       2.763   1.458 -23.136  0.00  0.00    +0.086 C 
ATOM     11  C   UNL     1       3.163   0.943 -22.011  0.00  0.00    +0.134 C 
ATOM     12  C   UNL     1       2.342   0.854 -21.008  0.00  0.00    +0.075 C 
ATOM     13  C   UNL     1       1.120   1.281 -21.128  0.00  0.00    +0.015 C 
ATOM     14  O   UNL     1       4.386   0.517 -21.890  0.00  0.00    -0.297 OA
ATOM     15  O   UNL     1       1.962   2.489 -25.384  0.00  0.00    -0.297 OA
ATOM     16  C   UNL     1       0.719   1.796 -22.253  0.00  0.00    -0.019 C 
ATOM     17  C   UNL     1      -0.102   1.707 -21.249  0.00  0.00    +0.012 C 
ATOM     18  C   UNL     1      -4.092   3.565 -22.989  0.00  0.00    +0.139 C 
ATOM     19  O   UNL     1      -5.163   3.649 -22.256  0.00  0.00    -0.297 OA
ATOM     20  C   UNL     1      -3.978   3.956 -24.223  0.00  0.00    +0.075 C 
ATOM     21  C   UNL     1      -2.763   3.709 -24.612  0.00  0.00    +0.012 C 
ATOM     22  C   UNL     1      -2.125   3.164 -23.619  0.00  0.00    +0.006 C 
ENDROOT
TORSDOF 0
ENDMDL
MODEL 6
REMARK VINA RESULT:   -10.620      1.958      3.853
REMARK INTER + INTRA:         -10.620
REMARK INTER:                 -10.620
REMARK INTRA:                   0.000
REMARK UNBOUND:                 0.000
REMARK  Name = C[C@]12CC[C@@H]3[C@H](CC(=O)[C@H]4CC(=O)CC[C@@]43C)[C@@H]1CCC2=O     ZINC000253504862
REMARK  2 active torsions:
REMARK  status: ('A' for Active; 'I' for Inactive)
REMARK    1  A    between atoms: C_1  and  C_2
REMARK    2  A    between atoms: C_16  and  C_17
REMARK                            x       y       z     vdW  Elec       q    Type
REMARK                         _______ _______ _______ _____ _____    ______ ____
ROOT
ATOM      1  C   UNL     1      -1.616   4.502 -23.620  0.00  0.00    +0.019 C 
ATOM      2  C   UNL     1      -0.982   3.574 -22.968  0.00  0.00    +0.029 C 
ATOM      3  C   UNL     1      -0.203   4.424 -23.569  0.00  0.00    +0.015 C 
ATOM      4  C   UNL     1       1.088   4.296 -23.483  0.00  0.00    +0.005 C 
ATOM      5  C   UNL     1       1.600   3.319 -22.795  0.00  0.00    -0.001 C 
ATOM      6  C   UNL     1       0.821   2.470 -22.194  0.00  0.00    +0.004 C 
ATOM      7  C   UNL     1       1.333   1.492 -21.506  0.00  0.00    +0.078 C 
ATOM      8  C   UNL     1       2.624   1.365 -21.420  0.00  0.00    +0.138 C 
ATOM      9  C   UNL     1       3.403   2.215 -22.022  0.00  0.00    +0.068 C 
ATOM     10  C   UNL     1       4.694   2.087 -21.935  0.00  0.00    +0.086 C 
ATOM     11  C   UNL     1       5.472   2.937 -22.537  0.00  0.00    +0.134 C 
ATOM     12  C   UNL     1       4.960   3.914 -23.225  0.00  0.00    +0.075 C 
ATOM     13  C   UNL     1       3.670   4.042 -23.311  0.00  0.00    +0.015 C 
ATOM     14  O   UNL     1       6.763   2.809 -22.451  0.00  0.00    -0.297 OA
ATOM     15  O   UNL     1       3.137   0.388 -20.732  0.00  0.00    -0.297 OA
ATOM     16  C   UNL     1       2.890   3.192 -22.709  0.00  0.00    -0.019 C 
ATOM     17  C   UNL     1       2.378   4.169 -23.397  0.00  0.00    +0.012 C 
ATOM     18  C   UNL     1      -2.276   3.479 -22.897  0.00  0.00    +0.139 C 
ATOM     19  O   UNL     1      -3.134   4.280 -23.459  0.00  0.00    -0.297 OA
ATOM     20  C   UNL     1      -2.564   2.444 -22.166  0.00  0.00    +0.075 C 
ATOM     21  C   UNL     1      -1.448   1.899 -21.785  0.00  0.00    +0.012 C 
ATOM     22  C   UNL     1      -0.470   2.597 -22.280  0.00  0.00    +0.006 C 
ENDROOT
TORSDOF 0
ENDMDL
MODEL 7
REMARK VINA RESULT:   -10.109      2.090      6.594
REMARK INTER + INTRA:         -10.109
REMARK INTER:                 -10.109
REMARK INTRA:                   0.000
REMARK UNBOUND:                 0.000
REMARK  Name = C[C@]12CC[C@@H]3[C@H](CC(=O)[C@H]4CC(=O)CC[C@@]43C)[C@@H]1CCC2=O     ZINC000253504862
REMARK  2 active torsions:
REMARK  status: ('A' for Active; 'I' for Inactive)
REMARK    1  A    between atoms: C_1  and  C_2
REMARK    2  A    between atoms: C_16  and  C_17
REMARK                            x       y       z     vdW  Elec       q    Type
REMARK                         _______ _______ _______ _____ _____    ______ ____
ROOT
ATOM      1  C   UNL     1       4.630   3.963 -23.265  0.00  0.00    +0.019 C 
ATOM      2  C   UNL     1       3.746   3.168 -22.740  0.00  0.00    +0.029 C 
ATOM      3  C   UNL     1       3.236   4.139 -23.438  0.00  0.00    +0.015 C 
ATOM      4  C   UNL     1       1.946   4.245 -23.559  0.00  0.00    +0.005 C 
ATOM      5  C   UNL     1       1.166   3.381 -22.982  0.00  0.00    -0.001 C 
ATOM      6  C   UNL     1       1.675   2.410 -22.283  0.00  0.00    +0.004 C 
ATOM      7  C   UNL     1       0.895   1.545 -21.705  0.00  0.00    +0.078 C 
ATOM      8  C   UNL     1      -0.395   1.651 -21.826  0.00  0.00    +0.138 C 
ATOM      9  C   UNL     1      -0.905   2.622 -22.525  0.00  0.00    +0.068 C 
ATOM     10  C   UNL     1      -2.194   2.728 -22.646  0.00  0.00    +0.086 C 
ATOM     11  C   UNL     1      -2.704   3.699 -23.344  0.00  0.00    +0.134 C 
ATOM     12  C   UNL     1      -1.924   4.564 -23.922  0.00  0.00    +0.075 C 
ATOM     13  C   UNL     1      -0.634   4.458 -23.801  0.00  0.00    +0.015 C 
ATOM     14  O   UNL     1      -3.994   3.805 -23.466  0.00  0.00    -0.297 OA
ATOM     15  O   UNL     1      -1.175   0.787 -21.249  0.00  0.00    -0.297 OA
ATOM     16  C   UNL     1      -0.124   3.487 -23.102  0.00  0.00    -0.019 C 
ATOM     17  C   UNL     1       0.656   4.351 -23.680  0.00  0.00    +0.012 C 
ATOM     18  C   UNL     1       4.975   2.844 -22.468  0.00  0.00    +0.139 C 
ATOM     19  O   UNL     1       6.039   3.474 -22.871  0.00  0.00    -0.297 OA
ATOM     20  C   UNL     1       4.954   1.779 -21.723  0.00  0.00    +0.075 C 
ATOM     21  C   UNL     1       3.713   1.445 -21.534  0.00  0.00    +0.012 C 
ATOM     22  C   UNL     1       2.965   2.303 -22.162  0.00  0.00    +0.006 C 
ENDROOT
TORSDOF 0
ENDMDL
