MODEL 1
REMARK VINA RESULT:   -10.464      0.000      0.000
REMARK INTER + INTRA:          -7.131
REMARK INTER:                 -10.399
REMARK INTRA:                   3.267
REMARK UNBOUND:                 3.945
REMARK  Name = CC(=O)O[C@H]1c2occ(C)c2[C@H]2C=C(CC[C@@H]3O[C@]31C)C(=O)O2           ZINC000253390667
REMARK  5 active torsions:
REMARK  status: ('A' for Active; 'I' for Inactive)
REMARK    1  A    between atoms: C_1  and  C_2
REMARK    2  A    between atoms: C_2  and  O_4
REMARK    3  A    between atoms: O_4  and  C_5
REMARK    4  A    between atoms: C_9  and  C_10
REMARK    5  A    between atoms: C_19  and  C_20
REMARK                            x       y       z     vdW  Elec       q    Type
REMARK                         _______ _______ _______ _____ _____    ______ ____
ROOT
ATOM      1  C   UNL     1      -3.430   3.216 -23.089  0.00  0.00    +0.276 C 
ATOM      2  C   UNL     1      -2.119   2.961 -22.824  0.00  0.00    +0.155 A 
ATOM      3  O   UNL     1      -1.391   2.732 -21.795  0.00  0.00    -0.463 OA
ATOM      4  C   UNL     1      -0.187   2.563 -22.198  0.00  0.00    +0.199 A 
ATOM      5  C   UNL     1      -0.170   2.686 -23.472  0.00  0.00    -0.005 A 
ATOM      6  C   UNL     1       0.855   2.584 -24.234  0.00  0.00    +0.047 C 
ATOM      7  C   UNL     1      -1.367   2.933 -23.856  0.00  0.00    +0.044 A 
ATOM      8  C   UNL     1      -1.917   3.138 -24.957  0.00  0.00    +0.234 C 
ATOM      9  C   UNL     1      -3.158   3.330 -24.717  0.00  0.00    +0.032 C 
ATOM     10  C   UNL     1      -3.748   3.543 -25.827  0.00  0.00    +0.037 C 
ATOM     11  C   UNL     1      -2.871   3.484 -26.767  0.00  0.00    +0.336 C 
ATOM     12  O   UNL     1      -3.091   3.646 -28.017  0.00  0.00    -0.245 OA
ATOM     13  C   UNL     1      -4.968   3.744 -25.711  0.00  0.00    +0.045 C 
ATOM     14  C   UNL     1      -5.733   3.754 -24.471  0.00  0.00    +0.039 C 
ATOM     15  C   UNL     1      -5.543   3.571 -22.965  0.00  0.00    +0.155 C 
ATOM     16  O   UNL     1      -5.625   3.459 -21.692  0.00  0.00    -0.361 OA
ATOM     17  O   UNL     1      -1.738   3.233 -26.225  0.00  0.00    -0.449 OA
ATOM     18  C   UNL     1      -4.491   3.320 -22.274  0.00  0.00    +0.137 C 
ATOM     19  C   UNL     1      -4.137   3.173 -21.417  0.00  0.00    +0.048 C 
ENDROOT
BRANCH   1  20
ATOM     20  O   UNL     1      -2.921   2.983 -21.636  0.00  0.00    -0.451 OA
BRANCH  20  22
ATOM     21  C   UNL     1      -3.099   3.684 -19.493  0.00  0.00    +0.136 C 
ATOM     22  C   UNL     1      -2.744   3.930 -20.716  0.00  0.00    +0.305 C 
ATOM     23  O   UNL     1      -2.236   5.073 -21.003  0.00  0.00    -0.251 OA
ENDBRANCH  20  22
ENDBRANCH   1  20
TORSDOF 2
ENDMDL
MODEL 2
REMARK VINA RESULT:   -10.061      1.405      4.162
REMARK INTER + INTRA:          -6.705
REMARK INTER:                  -9.959
REMARK INTRA:                   3.254
REMARK UNBOUND:                 3.945
REMARK  Name = CC(=O)O[C@H]1c2occ(C)c2[C@H]2C=C(CC[C@@H]3O[C@]31C)C(=O)O2           ZINC000253390667
REMARK  5 active torsions:
REMARK  status: ('A' for Active; 'I' for Inactive)
REMARK    1  A    between atoms: C_1  and  C_2
REMARK    2  A    between atoms: C_2  and  O_4
REMARK    3  A    between atoms: O_4  and  C_5
REMARK    4  A    between atoms: C_9  and  C_10
REMARK    5  A    between atoms: C_19  and  C_20
REMARK                            x       y       z     vdW  Elec       q    Type
REMARK                         _______ _______ _______ _____ _____    ______ ____
ROOT
ATOM      1  C   UNL     1      -2.057   3.084 -24.226  0.00  0.00    +0.276 C 
ATOM      2  C   UNL     1      -0.979   2.614 -23.539  0.00  0.00    +0.155 A 
ATOM      3  O   UNL     1       0.263   2.396 -23.765  0.00  0.00    -0.463 OA
ATOM      4  C   UNL     1       0.781   1.933 -22.689  0.00  0.00    +0.199 A 
ATOM      5  C   UNL     1      -0.138   1.864 -21.800  0.00  0.00    -0.005 A 
ATOM      6  C   UNL     1      -0.003   1.448 -20.596  0.00  0.00    +0.047 C 
ATOM      7  C   UNL     1      -1.225   2.286 -22.329  0.00  0.00    +0.044 A 
ATOM      8  C   UNL     1      -2.400   2.434 -21.936  0.00  0.00    +0.234 C 
ATOM      9  C   UNL     1      -3.062   2.903 -22.923  0.00  0.00    +0.032 C 
ATOM     10  C   UNL     1      -4.270   3.066 -22.550  0.00  0.00    +0.037 C 
ATOM     11  C   UNL     1      -4.365   2.696 -21.321  0.00  0.00    +0.336 C 
ATOM     12  O   UNL     1      -5.426   2.716 -20.606  0.00  0.00    -0.245 OA
ATOM     13  C   UNL     1      -5.008   3.522 -23.439  0.00  0.00    +0.045 C 
ATOM     14  C   UNL     1      -4.619   3.865 -24.801  0.00  0.00    +0.039 C 
ATOM     15  C   UNL     1      -3.392   3.869 -25.712  0.00  0.00    +0.155 C 
ATOM     16  O   UNL     1      -2.518   3.962 -26.643  0.00  0.00    -0.361 OA
ATOM     17  O   UNL     1      -3.205   2.306 -20.944  0.00  0.00    -0.449 OA
ATOM     18  C   UNL     1      -2.178   3.516 -25.491  0.00  0.00    +0.137 C 
ATOM     19  C   UNL     1      -1.313   3.427 -25.846  0.00  0.00    +0.048 C 
ENDROOT
BRANCH   1  20
ATOM     20  O   UNL     1      -0.653   2.968 -24.889  0.00  0.00    -0.451 OA
BRANCH  20  22
ATOM     21  C   UNL     1       1.198   3.850 -25.844  0.00  0.00    +0.136 C 
ATOM     22  C   UNL     1       0.253   3.943 -24.961  0.00  0.00    +0.305 C 
ATOM     23  O   UNL     1       0.217   4.965 -24.186  0.00  0.00    -0.251 OA
ENDBRANCH  20  22
ENDBRANCH   1  20
TORSDOF 2
ENDMDL
MODEL 3
REMARK VINA RESULT:    -9.899      1.521      4.546
REMARK INTER + INTRA:          -6.533
REMARK INTER:                  -9.720
REMARK INTRA:                   3.187
REMARK UNBOUND:                 3.945
REMARK  Name = CC(=O)O[C@H]1c2occ(C)c2[C@H]2C=C(CC[C@@H]3O[C@]31C)C(=O)O2           ZINC000253390667
REMARK  5 active torsions:
REMARK  status: ('A' for Active; 'I' for Inactive)
REMARK    1  A    between atoms: C_1  and  C_2
REMARK    2  A    between atoms: C_2  and  O_4
REMARK    3  A    between atoms: O_4  and  C_5
REMARK    4  A    between atoms: C_9  and  C_10
REMARK    5  A    between atoms: C_19  and  C_20
REMARK                            x       y       z     vdW  Elec       q    Type
REMARK                         _______ _______ _______ _____ _____    ______ ____
ROOT
ATOM      1  C   UNL     1      -1.739   2.911 -23.284  0.00  0.00    +0.276 C 
ATOM      2  C   UNL     1      -1.934   3.168 -24.607  0.00  0.00    +0.155 A 
ATOM      3  O   UNL     1      -1.221   3.239 -25.670  0.00  0.00    -0.463 OA
ATOM      4  C   UNL     1      -2.000   3.527 -26.644  0.00  0.00    +0.199 A 
ATOM      5  C   UNL     1      -3.191   3.633 -26.186  0.00  0.00    -0.005 A 
ATOM      6  C   UNL     1      -4.245   3.912 -26.860  0.00  0.00    +0.047 C 
ATOM      7  C   UNL     1      -3.146   3.410 -24.926  0.00  0.00    +0.044 A 
ATOM      8  C   UNL     1      -3.985   3.382 -24.003  0.00  0.00    +0.234 C 
ATOM      9  C   UNL     1      -3.345   3.099 -22.933  0.00  0.00    +0.032 C 
ATOM     10  C   UNL     1      -4.179   3.063 -21.969  0.00  0.00    +0.037 C 
ATOM     11  C   UNL     1      -5.348   3.325 -22.439  0.00  0.00    +0.336 C 
ATOM     12  O   UNL     1      -6.437   3.379 -21.768  0.00  0.00    -0.245 OA
ATOM     13  C   UNL     1      -3.661   2.795 -20.873  0.00  0.00    +0.045 C 
ATOM     14  C   UNL     1      -2.250   2.533 -20.619  0.00  0.00    +0.039 C 
ATOM     15  C   UNL     1      -0.913   2.452 -21.356  0.00  0.00    +0.155 C 
ATOM     16  O   UNL     1       0.298   2.333 -21.753  0.00  0.00    -0.361 OA
ATOM     17  O   UNL     1      -5.225   3.522 -23.699  0.00  0.00    -0.449 OA
ATOM     18  C   UNL     1      -0.624   2.620 -22.595  0.00  0.00    +0.137 C 
ATOM     19  C   UNL     1       0.054   2.626 -23.246  0.00  0.00    +0.048 C 
ENDROOT
BRANCH   1  20
ATOM     20  O   UNL     1      -0.558   2.902 -24.300  0.00  0.00    -0.451 OA
BRANCH  20  22
ATOM     21  C   UNL     1       1.445   3.624 -25.059  0.00  0.00    +0.136 C 
ATOM     22  C   UNL     1       0.318   3.890 -24.477  0.00  0.00    +0.305 C 
ATOM     23  O   UNL     1       0.080   5.090 -24.092  0.00  0.00    -0.251 OA
ENDBRANCH  20  22
ENDBRANCH   1  20
TORSDOF 2
ENDMDL
MODEL 4
REMARK VINA RESULT:    -9.637      1.330      2.259
REMARK INTER + INTRA:          -6.256
REMARK INTER:                  -9.583
REMARK INTRA:                   3.328
REMARK UNBOUND:                 3.945
REMARK  Name = CC(=O)O[C@H]1c2occ(C)c2[C@H]2C=C(CC[C@@H]3O[C@]31C)C(=O)O2           ZINC000253390667
REMARK  5 active torsions:
REMARK  status: ('A' for Active; 'I' for Inactive)
REMARK    1  A    between atoms: C_1  and  C_2
REMARK    2  A    between atoms: C_2  and  O_4
REMARK    3  A    between atoms: O_4  and  C_5
REMARK    4  A    between atoms: C_9  and  C_10
REMARK    5  A    between atoms: C_19  and  C_20
REMARK                            x       y       z     vdW  Elec       q    Type
REMARK                         _______ _______ _______ _____ _____    ______ ____
ROOT
ATOM      1  C   UNL     1      -2.121   3.207 -22.593  0.00  0.00    +0.276 C 
ATOM      2  C   UNL     1      -0.852   3.239 -23.087  0.00  0.00    +0.155 A 
ATOM      3  O   UNL     1       0.338   3.065 -22.644  0.00  0.00    -0.463 OA
ATOM      4  C   UNL     1       1.147   3.234 -23.622  0.00  0.00    +0.199 A 
ATOM      5  C   UNL     1       0.460   3.511 -24.666  0.00  0.00    -0.005 A 
ATOM      6  C   UNL     1       0.918   3.745 -25.840  0.00  0.00    +0.047 C 
ATOM      7  C   UNL     1      -0.776   3.513 -24.331  0.00  0.00    +0.044 A 
ATOM      8  C   UNL     1      -1.853   3.714 -24.928  0.00  0.00    +0.234 C 
ATOM      9  C   UNL     1      -2.784   3.578 -24.063  0.00  0.00    +0.032 C 
ATOM     10  C   UNL     1      -3.900   3.779 -24.645  0.00  0.00    +0.037 C 
ATOM     11  C   UNL     1      -3.666   4.042 -25.883  0.00  0.00    +0.336 C 
ATOM     12  O   UNL     1      -4.543   4.298 -26.780  0.00  0.00    -0.245 OA
ATOM     13  C   UNL     1      -4.881   3.671 -23.891  0.00  0.00    +0.045 C 
ATOM     14  C   UNL     1      -4.854   3.350 -22.470  0.00  0.00    +0.039 C 
ATOM     15  C   UNL     1      -3.862   3.037 -21.349  0.00  0.00    +0.155 C 
ATOM     16  O   UNL     1      -3.232   2.756 -20.271  0.00  0.00    -0.361 OA
ATOM     17  O   UNL     1      -2.398   4.001 -26.055  0.00  0.00    -0.449 OA
ATOM     18  C   UNL     1      -2.582   2.959 -21.357  0.00  0.00    +0.137 C 
ATOM     19  C   UNL     1      -1.806   2.797 -20.852  0.00  0.00    +0.048 C 
ENDROOT
BRANCH   1  20
ATOM     20  O   UNL     1      -0.885   2.927 -21.687  0.00  0.00    -0.451 OA
BRANCH  20  22
ATOM     21  C   UNL     1       0.462   1.595 -20.452  0.00  0.00    +0.136 C 
ATOM     22  C   UNL     1      -0.355   1.728 -21.449  0.00  0.00    +0.305 C 
ATOM     23  O   UNL     1      -0.629   0.705 -22.175  0.00  0.00    -0.251 OA
ENDBRANCH  20  22
ENDBRANCH   1  20
TORSDOF 2
ENDMDL
MODEL 5
REMARK VINA RESULT:    -9.605      1.674      5.529
REMARK INTER + INTRA:          -6.221
REMARK INTER:                  -9.455
REMARK INTRA:                   3.234
REMARK UNBOUND:                 3.945
REMARK  Name = CC(=O)O[C@H]1c2occ(C)c2[C@H]2C=C(CC[C@@H]3O[C@]31C)C(=O)O2           ZINC000253390667
REMARK  5 active torsions:
REMARK  status: ('A' for Active; 'I' for Inactive)
REMARK    1  A    between atoms: C_1  and  C_2
REMARK    2  A    between atoms: C_2  and  O_4
REMARK    3  A    between atoms: O_4  and  C_5
REMARK    4  A    between atoms: C_9  and  C_10
REMARK    5  A    between atoms: C_19  and  C_20
REMARK                            x       y       z     vdW  Elec       q    Type
REMARK                         _______ _______ _______ _____ _____    ______ ____
ROOT
ATOM      1  C   UNL     1      -0.819   3.195 -23.852  0.00  0.00    +0.276 C 
ATOM      2  C   UNL     1      -2.036   3.246 -23.242  0.00  0.00    +0.155 A 
ATOM      3  O   UNL     1      -3.220   3.643 -23.529  0.00  0.00    -0.463 OA
ATOM      4  C   UNL     1      -3.965   3.420 -22.511  0.00  0.00    +0.199 A 
ATOM      5  C   UNL     1      -3.243   2.888 -21.597  0.00  0.00    -0.005 A 
ATOM      6  C   UNL     1      -3.635   2.523 -20.433  0.00  0.00    +0.047 C 
ATOM      7  C   UNL     1      -2.051   2.782 -22.053  0.00  0.00    +0.044 A 
ATOM      8  C   UNL     1      -0.970   2.348 -21.607  0.00  0.00    +0.234 C 
ATOM      9  C   UNL     1      -0.101   2.504 -22.531  0.00  0.00    +0.032 C 
ATOM     10  C   UNL     1       1.017   2.068 -22.103  0.00  0.00    +0.037 C 
ATOM     11  C   UNL     1       0.848   1.636 -20.903  0.00  0.00    +0.336 C 
ATOM     12  O   UNL     1       1.748   1.125 -20.150  0.00  0.00    -0.245 OA
ATOM     13  C   UNL     1       1.940   2.172 -22.928  0.00  0.00    +0.045 C 
ATOM     14  C   UNL     1       1.846   2.724 -24.273  0.00  0.00    +0.039 C 
ATOM     15  C   UNL     1       0.823   3.343 -25.226  0.00  0.00    +0.155 C 
ATOM     16  O   UNL     1       0.155   3.878 -26.178  0.00  0.00    -0.361 OA
ATOM     17  O   UNL     1      -0.383   1.811 -20.598  0.00  0.00    -0.449 OA
ATOM     18  C   UNL     1      -0.428   3.583 -25.076  0.00  0.00    +0.137 C 
ATOM     19  C   UNL     1      -1.211   3.925 -25.468  0.00  0.00    +0.048 C 
ENDROOT
BRANCH   1  20
ATOM     20  O   UNL     1      -2.071   3.778 -24.573  0.00  0.00    -0.451 OA
BRANCH  20  22
ATOM     21  C   UNL     1      -3.348   3.773 -26.439  0.00  0.00    +0.136 C 
ATOM     22  C   UNL     1      -2.842   3.122 -25.439  0.00  0.00    +0.305 C 
ATOM     23  O   UNL     1      -3.096   1.871 -25.313  0.00  0.00    -0.251 OA
ENDBRANCH  20  22
ENDBRANCH   1  20
TORSDOF 2
ENDMDL
MODEL 6
REMARK VINA RESULT:    -9.543      1.467      3.945
REMARK INTER + INTRA:          -6.157
REMARK INTER:                  -9.406
REMARK INTRA:                   3.249
REMARK UNBOUND:                 3.945
REMARK  Name = CC(=O)O[C@H]1c2occ(C)c2[C@H]2C=C(CC[C@@H]3O[C@]31C)C(=O)O2           ZINC000253390667
REMARK  5 active torsions:
REMARK  status: ('A' for Active; 'I' for Inactive)
REMARK    1  A    between atoms: C_1  and  C_2
REMARK    2  A    between atoms: C_2  and  O_4
REMARK    3  A    between atoms: O_4  and  C_5
REMARK    4  A    between atoms: C_9  and  C_10
REMARK    5  A    between atoms: C_19  and  C_20
REMARK                            x       y       z     vdW  Elec       q    Type
REMARK                         _______ _______ _______ _____ _____    ______ ____
ROOT
ATOM      1  C   UNL     1      -1.322   2.441 -22.685  0.00  0.00    +0.276 C 
ATOM      2  C   UNL     1      -2.522   2.888 -23.149  0.00  0.00    +0.155 A 
ATOM      3  O   UNL     1      -3.752   2.831 -22.794  0.00  0.00    -0.463 OA
ATOM      4  C   UNL     1      -4.441   3.464 -23.668  0.00  0.00    +0.199 A 
ATOM      5  C   UNL     1      -3.641   3.911 -24.561  0.00  0.00    -0.005 A 
ATOM      6  C   UNL     1      -3.959   4.596 -25.597  0.00  0.00    +0.047 C 
ATOM      7  C   UNL     1      -2.455   3.553 -24.237  0.00  0.00    +0.044 A 
ATOM      8  C   UNL     1      -1.318   3.708 -24.729  0.00  0.00    +0.234 C 
ATOM      9  C   UNL     1      -0.496   3.116 -23.950  0.00  0.00    +0.032 C 
ATOM     10  C   UNL     1       0.677   3.258 -24.429  0.00  0.00    +0.037 C 
ATOM     11  C   UNL     1       0.588   3.943 -25.515  0.00  0.00    +0.336 C 
ATOM     12  O   UNL     1       1.560   4.284 -26.274  0.00  0.00    -0.245 OA
ATOM     13  C   UNL     1       1.562   2.717 -23.746  0.00  0.00    +0.045 C 
ATOM     14  C   UNL     1       1.371   1.974 -22.507  0.00  0.00    +0.039 C 
ATOM     15  C   UNL     1       0.259   1.532 -21.555  0.00  0.00    +0.155 C 
ATOM     16  O   UNL     1      -0.490   1.058 -20.631  0.00  0.00    -0.361 OA
ATOM     17  O   UNL     1      -0.649   4.220 -25.698  0.00  0.00    -0.449 OA
ATOM     18  C   UNL     1      -1.009   1.724 -21.595  0.00  0.00    +0.137 C 
ATOM     19  C   UNL     1      -1.835   1.573 -21.175  0.00  0.00    +0.048 C 
ENDROOT
BRANCH   1  20
ATOM     20  O   UNL     1      -2.651   2.148 -21.927  0.00  0.00    -0.451 OA
BRANCH  20  22
ATOM     21  C   UNL     1      -4.077   2.356 -20.184  0.00  0.00    +0.136 C 
ATOM     22  C   UNL     1      -3.150   2.875 -20.928  0.00  0.00    +0.305 C 
ATOM     23  O   UNL     1      -2.743   4.066 -20.683  0.00  0.00    -0.251 OA
ENDBRANCH  20  22
ENDBRANCH   1  20
TORSDOF 2
ENDMDL
MODEL 7
REMARK VINA RESULT:    -9.179      1.497      3.927
REMARK INTER + INTRA:          -5.771
REMARK INTER:                  -8.960
REMARK INTRA:                   3.189
REMARK UNBOUND:                 3.945
REMARK  Name = CC(=O)O[C@H]1c2occ(C)c2[C@H]2C=C(CC[C@@H]3O[C@]31C)C(=O)O2           ZINC000253390667
REMARK  5 active torsions:
REMARK  status: ('A' for Active; 'I' for Inactive)
REMARK    1  A    between atoms: C_1  and  C_2
REMARK    2  A    between atoms: C_2  and  O_4
REMARK    3  A    between atoms: O_4  and  C_5
REMARK    4  A    between atoms: C_9  and  C_10
REMARK    5  A    between atoms: C_19  and  C_20
REMARK                            x       y       z     vdW  Elec       q    Type
REMARK                         _______ _______ _______ _____ _____    ______ ____
ROOT
ATOM      1  C   UNL     1      -1.116   3.108 -23.263  0.00  0.00    +0.276 C 
ATOM      2  C   UNL     1      -2.005   2.953 -22.243  0.00  0.00    +0.155 A 
ATOM      3  O   UNL     1      -1.966   2.694 -20.988  0.00  0.00    -0.463 OA
ATOM      4  C   UNL     1      -3.172   2.678 -20.555  0.00  0.00    +0.199 A 
ATOM      5  C   UNL     1      -3.953   2.927 -21.539  0.00  0.00    -0.005 A 
ATOM      6  C   UNL     1      -5.232   2.996 -21.497  0.00  0.00    +0.047 C 
ATOM      7  C   UNL     1      -3.228   3.097 -22.580  0.00  0.00    +0.044 A 
ATOM      8  C   UNL     1      -3.451   3.356 -23.780  0.00  0.00    +0.234 C 
ATOM      9  C   UNL     1      -2.315   3.406 -24.363  0.00  0.00    +0.032 C 
ATOM     10  C   UNL     1      -2.512   3.671 -25.595  0.00  0.00    +0.037 C 
ATOM     11  C   UNL     1      -3.780   3.787 -25.784  0.00  0.00    +0.336 C 
ATOM     12  O   UNL     1      -4.357   4.049 -26.895  0.00  0.00    -0.245 OA
ATOM     13  C   UNL     1      -1.467   3.744 -26.262  0.00  0.00    +0.045 C 
ATOM     14  C   UNL     1      -0.108   3.560 -25.769  0.00  0.00    +0.039 C 
ATOM     15  C   UNL     1       0.648   3.250 -24.477  0.00  0.00    +0.155 C 
ATOM     16  O   UNL     1       1.481   3.006 -23.535  0.00  0.00    -0.361 OA
ATOM     17  O   UNL     1      -4.359   3.591 -24.658  0.00  0.00    -0.449 OA
ATOM     18  C   UNL     1       0.223   3.031 -23.286  0.00  0.00    +0.137 C 
ATOM     19  C   UNL     1       0.457   2.835 -22.397  0.00  0.00    +0.048 C 
ENDROOT
BRANCH   1  20
ATOM     20  O   UNL     1      -0.647   2.783 -21.814  0.00  0.00    -0.451 OA
BRANCH  20  22
ATOM     21  C   UNL     1       0.689   1.573 -20.448  0.00  0.00    +0.136 C 
ATOM     22  C   UNL     1      -0.200   1.601 -21.391  0.00  0.00    +0.305 C 
ATOM     23  O   UNL     1      -0.621   0.495 -21.888  0.00  0.00    -0.251 OA
ENDBRANCH  20  22
ENDBRANCH   1  20
TORSDOF 2
ENDMDL
MODEL 8
REMARK VINA RESULT:    -8.758      1.631      4.368
REMARK INTER + INTRA:          -5.326
REMARK INTER:                  -8.753
REMARK INTRA:                   3.427
REMARK UNBOUND:                 3.945
REMARK  Name = CC(=O)O[C@H]1c2occ(C)c2[C@H]2C=C(CC[C@@H]3O[C@]31C)C(=O)O2           ZINC000253390667
REMARK  5 active torsions:
REMARK  status: ('A' for Active; 'I' for Inactive)
REMARK    1  A    between atoms: C_1  and  C_2
REMARK    2  A    between atoms: C_2  and  O_4
REMARK    3  A    between atoms: O_4  and  C_5
REMARK    4  A    between atoms: C_9  and  C_10
REMARK    5  A    between atoms: C_19  and  C_20
REMARK                            x       y       z     vdW  Elec       q    Type
REMARK                         _______ _______ _______ _____ _____    ______ ____
ROOT
ATOM      1  C   UNL     1      -2.404   3.314 -23.617  0.00  0.00    +0.276 C 
ATOM      2  C   UNL     1      -1.468   3.439 -24.598  0.00  0.00    +0.155 A 
ATOM      3  O   UNL     1      -1.415   3.873 -25.803  0.00  0.00    -0.463 OA
ATOM      4  C   UNL     1      -0.214   3.720 -26.221  0.00  0.00    +0.199 A 
ATOM      5  C   UNL     1       0.474   3.193 -25.279  0.00  0.00    -0.005 A 
ATOM      6  C   UNL     1       1.718   2.889 -25.321  0.00  0.00    +0.047 C 
ATOM      7  C   UNL     1      -0.305   3.021 -24.277  0.00  0.00    +0.044 A 
ATOM      8  C   UNL     1      -0.175   2.559 -23.125  0.00  0.00    +0.234 C 
ATOM      9  C   UNL     1      -1.319   2.644 -22.563  0.00  0.00    +0.032 C 
ATOM     10  C   UNL     1      -1.216   2.178 -21.380  0.00  0.00    +0.037 C 
ATOM     11  C   UNL     1       0.001   1.798 -21.202  0.00  0.00    +0.336 C 
ATOM     12  O   UNL     1       0.481   1.278 -20.135  0.00  0.00    -0.245 OA
ATOM     13  C   UNL     1      -2.279   2.212 -20.738  0.00  0.00    +0.045 C 
ATOM     14  C   UNL     1      -3.563   2.716 -21.208  0.00  0.00    +0.039 C 
ATOM     15  C   UNL     1      -4.203   3.342 -22.447  0.00  0.00    +0.155 C 
ATOM     16  O   UNL     1      -4.943   3.868 -23.350  0.00  0.00    -0.361 OA
ATOM     17  O   UNL     1       0.643   2.036 -22.284  0.00  0.00    -0.449 OA
ATOM     18  C   UNL     1      -3.705   3.640 -23.592  0.00  0.00    +0.137 C 
ATOM     19  C   UNL     1      -3.868   3.999 -24.445  0.00  0.00    +0.048 C 
ENDROOT
BRANCH   1  20
ATOM     20  O   UNL     1      -2.755   3.922 -25.007  0.00  0.00    -0.451 OA
BRANCH  20  22
ATOM     21  C   UNL     1      -3.691   3.944 -27.066  0.00  0.00    +0.136 C 
ATOM     22  C   UNL     1      -3.361   3.278 -26.004  0.00  0.00    +0.305 C 
ATOM     23  O   UNL     1      -3.628   2.024 -25.942  0.00  0.00    -0.251 OA
ENDBRANCH  20  22
ENDBRANCH   1  20
TORSDOF 2
ENDMDL
MODEL 9
REMARK VINA RESULT:    -8.481      2.554      5.280
REMARK INTER + INTRA:          -5.032
REMARK INTER:                  -8.977
REMARK INTRA:                   3.945
REMARK UNBOUND:                 3.945
REMARK  Name = CC(=O)O[C@H]1c2occ(C)c2[C@H]2C=C(CC[C@@H]3O[C@]31C)C(=O)O2           ZINC000253390667
REMARK  5 active torsions:
REMARK  status: ('A' for Active; 'I' for Inactive)
REMARK    1  A    between atoms: C_1  and  C_2
REMARK    2  A    between atoms: C_2  and  O_4
REMARK    3  A    between atoms: O_4  and  C_5
REMARK    4  A    between atoms: C_9  and  C_10
REMARK    5  A    between atoms: C_19  and  C_20
REMARK                            x       y       z     vdW  Elec       q    Type
REMARK                         _______ _______ _______ _____ _____    ______ ____
ROOT
ATOM      1  C   UNL     1       0.755   2.931 -23.762  0.00  0.00    +0.276 C 
ATOM      2  C   UNL     1       1.579   2.452 -22.789  0.00  0.00    +0.155 A 
ATOM      3  O   UNL     1       2.838   2.290 -22.615  0.00  0.00    -0.463 OA
ATOM      4  C   UNL     1       3.009   1.774 -21.455  0.00  0.00    +0.199 A 
ATOM      5  C   UNL     1       1.859   1.618 -20.914  0.00  0.00    -0.005 A 
ATOM      6  C   UNL     1       1.623   1.130 -19.752  0.00  0.00    +0.047 C 
ATOM      7  C   UNL     1       0.977   2.039 -21.742  0.00  0.00    +0.044 A 
ATOM      8  C   UNL     1      -0.268   2.124 -21.741  0.00  0.00    +0.234 C 
ATOM      9  C   UNL     1      -0.603   2.634 -22.863  0.00  0.00    +0.032 C 
ATOM     10  C   UNL     1      -1.873   2.733 -22.891  0.00  0.00    +0.037 C 
ATOM     11  C   UNL     1      -2.336   2.282 -21.778  0.00  0.00    +0.336 C 
ATOM     12  O   UNL     1      -3.570   2.221 -21.443  0.00  0.00    -0.245 OA
ATOM     13  C   UNL     1      -2.311   3.221 -23.946  0.00  0.00    +0.045 C 
ATOM     14  C   UNL     1      -1.526   3.665 -25.090  0.00  0.00    +0.039 C 
ATOM     15  C   UNL     1      -0.074   3.767 -25.557  0.00  0.00    +0.155 C 
ATOM     16  O   UNL     1       1.046   3.949 -26.151  0.00  0.00    -0.361 OA
ATOM     17  O   UNL     1      -1.340   1.905 -21.068  0.00  0.00    -0.449 OA
ATOM     18  C   UNL     1       1.022   3.439 -24.975  0.00  0.00    +0.137 C 
ATOM     19  C   UNL     1       1.959   3.402 -25.037  0.00  0.00    +0.048 C 
ENDROOT
BRANCH   1  20
ATOM     20  O   UNL     1       2.301   2.904 -23.943  0.00  0.00    -0.451 OA
BRANCH  20  22
ATOM     21  C   UNL     1       2.638   5.014 -23.204  0.00  0.00    +0.136 C 
ATOM     22  C   UNL     1       3.133   3.906 -23.659  0.00  0.00    +0.305 C 
ATOM     23  O   UNL     1       4.401   3.805 -23.823  0.00  0.00    -0.251 OA
ENDBRANCH  20  22
ENDBRANCH   1  20
TORSDOF 2
ENDMDL
