MODEL 1
REMARK VINA RESULT:   -10.841      0.000      0.000
REMARK INTER + INTRA:         -12.831
REMARK INTER:                 -12.701
REMARK INTRA:                  -0.130
REMARK UNBOUND:                 2.130
REMARK  Name = ZINC000096316309
REMARK  9 active torsions:
REMARK  status: ('A' for Active; 'I' for Inactive)
REMARK    1  A    between atoms: C_1  and  C_2
REMARK    2  A    between atoms: C_2  and  O_3
REMARK    3  A    between atoms: O_3  and  C_4
REMARK    4  A    between atoms: C_4  and  C_6
REMARK    5  A    between atoms: C_6  and  O_7
REMARK    6  A    between atoms: O_7  and  C_8
REMARK    7  A    between atoms: C_30  and  O_31
REMARK    8  A    between atoms: C_30  and  C_32
REMARK    9  A    between atoms: C_32  and  C_33
REMARK                            x       y       z     vdW  Elec       q    Type
REMARK                         _______ _______ _______ _____ _____    ______ ____
ROOT
ATOM      1  C   UNL     1      -1.184   3.461 -23.922  0.00  0.00    +0.122 A 
ATOM      2  C   UNL     1      -1.136   4.705 -23.549  0.00  0.00    +0.048 A 
ATOM      3  C   UNL     1       0.011   5.253 -23.272  0.00  0.00    +0.032 A 
ATOM      4  C   UNL     1       1.103   4.559 -23.368  0.00  0.00    +0.072 A 
ATOM      5  N   UNL     1       2.251   5.107 -23.091  0.00  0.00    -0.245 NA
ATOM      6  C   UNL     1       3.343   4.413 -23.188  0.00  0.00    +0.093 A 
ATOM      7  C   UNL     1       3.296   3.170 -23.560  0.00  0.00    +0.000 A 
ATOM      8  C   UNL     1       4.510   2.704 -23.577  0.00  0.00    +0.162 C 
ATOM      9  N   UNL     1       5.309   3.662 -23.214  0.00  0.00    -0.302 N 
ATOM     10  C   UNL     1       6.600   3.709 -23.071  0.00  0.00    +0.259 A 
ATOM     11  O   UNL     1       7.320   2.652 -23.312  0.00  0.00    -0.267 OA
ATOM     12  C   UNL     1       7.173   4.811 -22.687  0.00  0.00    +0.061 A 
ATOM     13  C   UNL     1       8.463   4.858 -22.544  0.00  0.00    +0.273 C 
ATOM     14  O   UNL     1       9.037   5.960 -22.160  0.00  0.00    -0.457 OA
ATOM     15  C   UNL     1       8.316   7.015 -21.920  0.00  0.00    +0.344 C 
ATOM     16  C   UNL     1       7.025   6.969 -22.063  0.00  0.00    +0.188 C 
ATOM     17  O   UNL     1       8.889   8.119 -21.536  0.00  0.00    -0.247 OA
ATOM     18  C   UNL     1       6.453   5.866 -22.446  0.00  0.00    +0.008 A 
ATOM     19  C   UNL     1       5.162   5.820 -22.589  0.00  0.00    +0.035 A 
ATOM     20  C   UNL     1       2.149   2.618 -23.838  0.00  0.00    +0.017 A 
ATOM     21  C   UNL     1       4.590   4.718 -22.973  0.00  0.00    +0.071 A 
ATOM     22  C   UNL     1       1.056   3.315 -23.741  0.00  0.00    +0.004 A 
ATOM     23  C   UNL     1      -0.092   2.765 -24.019  0.00  0.00    +0.055 A 
ENDROOT
BRANCH  16  24
ATOM     24  O   UNL     1       5.784   7.350 -22.074  0.00  0.00    -0.373 OA
ATOM     25  H   UNL     1       5.471   7.406 -22.990  0.00  0.00    +0.211 HD
ENDBRANCH  16  24
BRANCH  16  26
ATOM     26  C   UNL     1       7.166   8.204 -21.683  0.00  0.00    +0.048 C 
ATOM     27  C   UNL     1       6.148   8.858 -21.210  0.00  0.00    +0.007 C 
ENDBRANCH  16  26
BRANCH   1  28
ATOM     28  O   UNL     1      -2.330   2.912 -24.199  0.00  0.00    -0.481 OA
BRANCH  28  29
ATOM     29  C   UNL     1      -3.420   3.618 -24.139  0.00  0.00    +0.349 C 
BRANCH  29  30
ATOM     30  C   UNL     1      -4.299   3.378 -23.212  0.00  0.00    +0.345 C 
ATOM     31  O   UNL     1      -5.533   3.757 -23.371  0.00  0.00    -0.247 OA
BRANCH  30  32
ATOM     32  O   UNL     1      -3.946   2.758 -22.125  0.00  0.00    -0.463 OA
BRANCH  32  34
ATOM     33  C   UNL     1      -2.915   3.775 -20.401  0.00  0.00    +0.048 C 
ATOM     34  C   UNL     1      -4.006   3.370 -20.979  0.00  0.00    +0.229 C 
ENDBRANCH  32  34
ENDBRANCH  30  32
ENDBRANCH  29  30
ENDBRANCH  28  29
ENDBRANCH   1  28
TORSDOF 7
ENDMDL
MODEL 2
REMARK VINA RESULT:   -10.400      2.234      9.571
REMARK INTER + INTRA:         -12.222
REMARK INTER:                 -12.020
REMARK INTRA:                  -0.203
REMARK UNBOUND:                 2.130
REMARK  Name = ZINC000096316309
REMARK  9 active torsions:
REMARK  status: ('A' for Active; 'I' for Inactive)
REMARK    1  A    between atoms: C_1  and  C_2
REMARK    2  A    between atoms: C_2  and  O_3
REMARK    3  A    between atoms: O_3  and  C_4
REMARK    4  A    between atoms: C_4  and  C_6
REMARK    5  A    between atoms: C_6  and  O_7
REMARK    6  A    between atoms: O_7  and  C_8
REMARK    7  A    between atoms: C_30  and  O_31
REMARK    8  A    between atoms: C_30  and  C_32
REMARK    9  A    between atoms: C_32  and  C_33
REMARK                            x       y       z     vdW  Elec       q    Type
REMARK                         _______ _______ _______ _____ _____    ______ ____
ROOT
ATOM      1  C   UNL     1       4.522   1.514 -22.698  0.00  0.00    +0.122 A 
ATOM      2  C   UNL     1       4.267   1.782 -23.944  0.00  0.00    +0.048 A 
ATOM      3  C   UNL     1       3.052   2.074 -24.308  0.00  0.00    +0.032 A 
ATOM      4  C   UNL     1       2.098   2.097 -23.429  0.00  0.00    +0.072 A 
ATOM      5  N   UNL     1       0.883   2.389 -23.792  0.00  0.00    -0.245 NA
ATOM      6  C   UNL     1      -0.071   2.412 -22.912  0.00  0.00    +0.093 A 
ATOM      7  C   UNL     1       0.183   2.144 -21.668  0.00  0.00    +0.000 A 
ATOM      8  C   UNL     1      -0.929   2.234 -20.999  0.00  0.00    +0.162 C 
ATOM      9  N   UNL     1      -1.871   2.557 -21.832  0.00  0.00    -0.302 N 
ATOM     10  C   UNL     1      -3.143   2.766 -21.667  0.00  0.00    +0.259 A 
ATOM     11  O   UNL     1      -3.672   2.656 -20.484  0.00  0.00    -0.267 OA
ATOM     12  C   UNL     1      -3.888   3.085 -22.684  0.00  0.00    +0.061 A 
ATOM     13  C   UNL     1      -5.159   3.294 -22.519  0.00  0.00    +0.273 C 
ATOM     14  O   UNL     1      -5.905   3.613 -23.536  0.00  0.00    -0.457 OA
ATOM     15  C   UNL     1      -5.374   3.723 -24.717  0.00  0.00    +0.344 C 
ATOM     16  C   UNL     1      -4.102   3.514 -24.884  0.00  0.00    +0.188 C 
ATOM     17  O   UNL     1      -6.119   4.042 -25.736  0.00  0.00    -0.247 OA
ATOM     18  C   UNL     1      -3.359   3.195 -23.866  0.00  0.00    +0.008 A 
ATOM     19  C   UNL     1      -2.086   2.987 -24.032  0.00  0.00    +0.035 A 
ATOM     20  C   UNL     1       1.398   1.852 -21.300  0.00  0.00    +0.017 A 
ATOM     21  C   UNL     1      -1.343   2.668 -23.015  0.00  0.00    +0.071 A 
ATOM     22  C   UNL     1       2.352   1.829 -22.182  0.00  0.00    +0.004 A 
ATOM     23  C   UNL     1       3.568   1.537 -21.817  0.00  0.00    +0.055 A 
ENDROOT
BRANCH  16  24
ATOM     24  O   UNL     1      -2.950   3.403 -25.472  0.00  0.00    -0.373 OA
ATOM     25  H   UNL     1      -2.639   4.281 -25.743  0.00  0.00    +0.211 HD
ENDBRANCH  16  24
BRANCH  16  26
ATOM     26  C   UNL     1      -4.446   3.795 -26.105  0.00  0.00    +0.048 C 
ATOM     27  C   UNL     1      -3.666   3.465 -27.091  0.00  0.00    +0.007 C 
ENDBRANCH  16  26
BRANCH   1  28
ATOM     28  O   UNL     1       5.736   1.223 -22.333  0.00  0.00    -0.481 OA
BRANCH  28  29
ATOM     29  C   UNL     1       6.687   2.097 -22.482  0.00  0.00    +0.349 C 
BRANCH  29  30
ATOM     30  C   UNL     1       6.584   3.269 -21.931  0.00  0.00    +0.345 C 
ATOM     31  O   UNL     1       6.419   3.372 -20.645  0.00  0.00    -0.247 OA
BRANCH  30  32
ATOM     32  O   UNL     1       6.646   4.340 -22.665  0.00  0.00    -0.463 OA
BRANCH  32  34
ATOM     33  C   UNL     1       4.579   5.200 -22.912  0.00  0.00    +0.048 C 
ATOM     34  C   UNL     1       5.799   5.308 -22.475  0.00  0.00    +0.229 C 
ENDBRANCH  32  34
ENDBRANCH  30  32
ENDBRANCH  29  30
ENDBRANCH  28  29
ENDBRANCH   1  28
TORSDOF 7
ENDMDL
MODEL 3
REMARK VINA RESULT:    -9.350      1.024      1.378
REMARK INTER + INTRA:         -10.774
REMARK INTER:                 -11.318
REMARK INTRA:                   0.545
REMARK UNBOUND:                 2.130
REMARK  Name = ZINC000096316309
REMARK  9 active torsions:
REMARK  status: ('A' for Active; 'I' for Inactive)
REMARK    1  A    between atoms: C_1  and  C_2
REMARK    2  A    between atoms: C_2  and  O_3
REMARK    3  A    between atoms: O_3  and  C_4
REMARK    4  A    between atoms: C_4  and  C_6
REMARK    5  A    between atoms: C_6  and  O_7
REMARK    6  A    between atoms: O_7  and  C_8
REMARK    7  A    between atoms: C_30  and  O_31
REMARK    8  A    between atoms: C_30  and  C_32
REMARK    9  A    between atoms: C_32  and  C_33
REMARK                            x       y       z     vdW  Elec       q    Type
REMARK                         _______ _______ _______ _____ _____    ______ ____
ROOT
ATOM      1  C   UNL     1      -0.461   3.327 -23.947  0.00  0.00    +0.122 A 
ATOM      2  C   UNL     1      -0.652   4.557 -23.574  0.00  0.00    +0.048 A 
ATOM      3  C   UNL     1       0.365   5.296 -23.238  0.00  0.00    +0.032 A 
ATOM      4  C   UNL     1       1.566   4.806 -23.276  0.00  0.00    +0.072 A 
ATOM      5  N   UNL     1       2.583   5.546 -22.940  0.00  0.00    -0.245 NA
ATOM      6  C   UNL     1       3.784   5.055 -22.978  0.00  0.00    +0.093 A 
ATOM      7  C   UNL     1       3.975   3.826 -23.351  0.00  0.00    +0.000 A 
ATOM      8  C   UNL     1       5.252   3.581 -23.303  0.00  0.00    +0.162 C 
ATOM      9  N   UNL     1       5.850   4.661 -22.900  0.00  0.00    -0.302 N 
ATOM     10  C   UNL     1       7.103   4.934 -22.689  0.00  0.00    +0.259 A 
ATOM     11  O   UNL     1       8.009   4.023 -22.890  0.00  0.00    -0.267 OA
ATOM     12  C   UNL     1       7.452   6.117 -22.278  0.00  0.00    +0.061 A 
ATOM     13  C   UNL     1       8.705   6.389 -22.068  0.00  0.00    +0.273 C 
ATOM     14  O   UNL     1       9.055   7.572 -21.657  0.00  0.00    -0.457 OA
ATOM     15  C   UNL     1       8.148   8.482 -21.456  0.00  0.00    +0.344 C 
ATOM     16  C   UNL     1       6.894   8.211 -21.666  0.00  0.00    +0.188 C 
ATOM     17  O   UNL     1       8.497   9.666 -21.045  0.00  0.00    -0.247 OA
ATOM     18  C   UNL     1       6.546   7.027 -22.078  0.00  0.00    +0.008 A 
ATOM     19  C   UNL     1       5.293   6.756 -22.288  0.00  0.00    +0.035 A 
ATOM     20  C   UNL     1       2.959   3.083 -23.687  0.00  0.00    +0.017 A 
ATOM     21  C   UNL     1       4.945   5.573 -22.699  0.00  0.00    +0.071 A 
ATOM     22  C   UNL     1       1.757   3.576 -23.649  0.00  0.00    +0.004 A 
ATOM     23  C   UNL     1       0.740   2.835 -23.985  0.00  0.00    +0.055 A 
ENDROOT
BRANCH  16  24
ATOM     24  O   UNL     1       5.608   8.367 -21.743  0.00  0.00    -0.373 OA
ATOM     25  H   UNL     1       5.315   8.982 -21.053  0.00  0.00    +0.211 HD
ENDBRANCH  16  24
BRANCH  16  26
ATOM     26  C   UNL     1       6.796   9.448 -21.282  0.00  0.00    +0.048 C 
ATOM     27  C   UNL     1       5.676   9.887 -20.790  0.00  0.00    +0.007 C 
ENDBRANCH  16  26
BRANCH   1  28
ATOM     28  O   UNL     1      -1.476   2.586 -24.283  0.00  0.00    -0.481 OA
BRANCH  28  29
ATOM     29  C   UNL     1      -2.618   2.736 -23.678  0.00  0.00    +0.349 C 
BRANCH  29  30
ATOM     30  C   UNL     1      -2.765   2.319 -22.456  0.00  0.00    +0.345 C 
ATOM     31  O   UNL     1      -1.816   1.644 -21.879  0.00  0.00    -0.247 OA
BRANCH  30  32
ATOM     32  O   UNL     1      -3.864   2.576 -21.810  0.00  0.00    -0.463 OA
BRANCH  32  34
ATOM     33  C   UNL     1      -3.135   4.367 -20.655  0.00  0.00    +0.048 C 
ATOM     34  C   UNL     1      -4.071   3.767 -21.329  0.00  0.00    +0.229 C 
ENDBRANCH  32  34
ENDBRANCH  30  32
ENDBRANCH  29  30
ENDBRANCH  28  29
ENDBRANCH   1  28
TORSDOF 7
ENDMDL
MODEL 4
REMARK VINA RESULT:    -9.104      2.019      2.940
REMARK INTER + INTRA:         -10.433
REMARK INTER:                 -10.831
REMARK INTRA:                   0.398
REMARK UNBOUND:                 2.130
REMARK  Name = ZINC000096316309
REMARK  9 active torsions:
REMARK  status: ('A' for Active; 'I' for Inactive)
REMARK    1  A    between atoms: C_1  and  C_2
REMARK    2  A    between atoms: C_2  and  O_3
REMARK    3  A    between atoms: O_3  and  C_4
REMARK    4  A    between atoms: C_4  and  C_6
REMARK    5  A    between atoms: C_6  and  O_7
REMARK    6  A    between atoms: O_7  and  C_8
REMARK    7  A    between atoms: C_30  and  O_31
REMARK    8  A    between atoms: C_30  and  C_32
REMARK    9  A    between atoms: C_32  and  C_33
REMARK                            x       y       z     vdW  Elec       q    Type
REMARK                         _______ _______ _______ _____ _____    ______ ____
ROOT
ATOM      1  C   UNL     1      -2.584   2.813 -25.277  0.00  0.00    +0.122 A 
ATOM      2  C   UNL     1      -1.905   3.733 -25.896  0.00  0.00    +0.048 A 
ATOM      3  C   UNL     1      -0.681   3.987 -25.536  0.00  0.00    +0.032 A 
ATOM      4  C   UNL     1      -0.139   3.324 -24.561  0.00  0.00    +0.072 A 
ATOM      5  N   UNL     1       1.085   3.578 -24.200  0.00  0.00    -0.245 NA
ATOM      6  C   UNL     1       1.627   2.913 -23.226  0.00  0.00    +0.093 A 
ATOM      7  C   UNL     1       0.950   1.994 -22.607  0.00  0.00    +0.000 A 
ATOM      8  C   UNL     1       1.710   1.484 -21.683  0.00  0.00    +0.162 C 
ATOM      9  N   UNL     1       2.857   2.090 -21.731  0.00  0.00    -0.302 N 
ATOM     10  C   UNL     1       3.943   1.952 -21.029  0.00  0.00    +0.259 A 
ATOM     11  O   UNL     1       3.993   1.068 -20.076  0.00  0.00    -0.267 OA
ATOM     12  C   UNL     1       4.979   2.696 -21.280  0.00  0.00    +0.061 A 
ATOM     13  C   UNL     1       6.064   2.557 -20.578  0.00  0.00    +0.273 C 
ATOM     14  O   UNL     1       7.101   3.301 -20.828  0.00  0.00    -0.457 OA
ATOM     15  C   UNL     1       7.049   4.184 -21.781  0.00  0.00    +0.344 C 
ATOM     16  C   UNL     1       5.964   4.323 -22.484  0.00  0.00    +0.188 C 
ATOM     17  O   UNL     1       8.087   4.930 -22.033  0.00  0.00    -0.247 OA
ATOM     18  C   UNL     1       4.929   3.578 -22.232  0.00  0.00    +0.008 A 
ATOM     19  C   UNL     1       3.844   3.718 -22.934  0.00  0.00    +0.035 A 
ATOM     20  C   UNL     1      -0.276   1.737 -22.965  0.00  0.00    +0.017 A 
ATOM     21  C   UNL     1       2.809   2.974 -22.683  0.00  0.00    +0.071 A 
ATOM     22  C   UNL     1      -0.817   2.403 -23.942  0.00  0.00    +0.004 A 
ATOM     23  C   UNL     1      -2.043   2.147 -24.302  0.00  0.00    +0.055 A 
ENDROOT
BRANCH  16  24
ATOM     24  O   UNL     1       5.139   4.774 -23.379  0.00  0.00    -0.373 OA
ATOM     25  H   UNL     1       4.821   5.651 -23.114  0.00  0.00    +0.211 HD
ENDBRANCH  16  24
BRANCH  16  26
ATOM     26  C   UNL     1       6.714   5.224 -23.045  0.00  0.00    +0.048 C 
ATOM     27  C   UNL     1       7.181   5.025 -24.241  0.00  0.00    +0.007 C 
ENDBRANCH  16  26
BRANCH   1  28
ATOM     28  O   UNL     1      -3.807   2.557 -25.636  0.00  0.00    -0.481 OA
BRANCH  28  29
ATOM     29  C   UNL     1      -4.651   3.532 -25.807  0.00  0.00    +0.349 C 
BRANCH  29  30
ATOM     30  C   UNL     1      -5.191   4.111 -24.777  0.00  0.00    +0.345 C 
ATOM     31  O   UNL     1      -5.194   5.409 -24.687  0.00  0.00    -0.247 OA
BRANCH  30  32
ATOM     32  O   UNL     1      -5.730   3.394 -23.836  0.00  0.00    -0.463 OA
BRANCH  32  34
ATOM     33  C   UNL     1      -4.473   3.122 -21.988  0.00  0.00    +0.048 C 
ATOM     34  C   UNL     1      -5.487   3.671 -22.589  0.00  0.00    +0.229 C 
ENDBRANCH  32  34
ENDBRANCH  30  32
ENDBRANCH  29  30
ENDBRANCH  28  29
ENDBRANCH   1  28
TORSDOF 7
ENDMDL
MODEL 5
REMARK VINA RESULT:    -8.394      1.741      3.648
REMARK INTER + INTRA:          -9.454
REMARK INTER:                  -9.504
REMARK INTRA:                   0.051
REMARK UNBOUND:                 2.130
REMARK  Name = ZINC000096316309
REMARK  9 active torsions:
REMARK  status: ('A' for Active; 'I' for Inactive)
REMARK    1  A    between atoms: C_1  and  C_2
REMARK    2  A    between atoms: C_2  and  O_3
REMARK    3  A    between atoms: O_3  and  C_4
REMARK    4  A    between atoms: C_4  and  C_6
REMARK    5  A    between atoms: C_6  and  O_7
REMARK    6  A    between atoms: O_7  and  C_8
REMARK    7  A    between atoms: C_30  and  O_31
REMARK    8  A    between atoms: C_30  and  C_32
REMARK    9  A    between atoms: C_32  and  C_33
REMARK                            x       y       z     vdW  Elec       q    Type
REMARK                         _______ _______ _______ _____ _____    ______ ____
ROOT
ATOM      1  C   UNL     1      -3.452   3.323 -24.251  0.00  0.00    +0.122 A 
ATOM      2  C   UNL     1      -2.875   2.164 -24.367  0.00  0.00    +0.048 A 
ATOM      3  C   UNL     1      -1.589   2.061 -24.200  0.00  0.00    +0.032 A 
ATOM      4  C   UNL     1      -0.884   3.113 -23.918  0.00  0.00    +0.072 A 
ATOM      5  N   UNL     1       0.403   3.011 -23.751  0.00  0.00    -0.245 NA
ATOM      6  C   UNL     1       1.107   4.064 -23.468  0.00  0.00    +0.093 A 
ATOM      7  C   UNL     1       0.532   5.222 -23.352  0.00  0.00    +0.000 A 
ATOM      8  C   UNL     1       1.446   6.102 -23.069  0.00  0.00    +0.162 C 
ATOM      9  N   UNL     1       2.588   5.487 -23.011  0.00  0.00    -0.302 N 
ATOM     10  C   UNL     1       3.793   5.910 -22.765  0.00  0.00    +0.259 A 
ATOM     11  O   UNL     1       4.001   7.170 -22.518  0.00  0.00    -0.267 OA
ATOM     12  C   UNL     1       4.789   5.075 -22.766  0.00  0.00    +0.061 A 
ATOM     13  C   UNL     1       5.992   5.499 -22.520  0.00  0.00    +0.273 C 
ATOM     14  O   UNL     1       6.990   4.664 -22.521  0.00  0.00    -0.457 OA
ATOM     15  C   UNL     1       6.780   3.405 -22.768  0.00  0.00    +0.344 C 
ATOM     16  C   UNL     1       5.576   2.981 -23.014  0.00  0.00    +0.188 C 
ATOM     17  O   UNL     1       7.777   2.569 -22.769  0.00  0.00    -0.247 OA
ATOM     18  C   UNL     1       4.580   3.817 -23.013  0.00  0.00    +0.008 A 
ATOM     19  C   UNL     1       3.377   3.392 -23.258  0.00  0.00    +0.035 A 
ATOM     20  C   UNL     1      -0.756   5.328 -23.518  0.00  0.00    +0.017 A 
ATOM     21  C   UNL     1       2.381   4.227 -23.258  0.00  0.00    +0.071 A 
ATOM     22  C   UNL     1      -1.460   4.273 -23.801  0.00  0.00    +0.004 A 
ATOM     23  C   UNL     1      -2.748   4.377 -23.968  0.00  0.00    +0.055 A 
ENDROOT
BRANCH  16  24
ATOM     24  O   UNL     1       4.601   2.170 -23.293  0.00  0.00    -0.373 OA
ATOM     25  H   UNL     1       4.220   1.826 -22.470  0.00  0.00    +0.211 HD
ENDBRANCH  16  24
BRANCH  16  26
ATOM     26  C   UNL     1       6.234   1.864 -23.112  0.00  0.00    +0.048 C 
ATOM     27  C   UNL     1       5.813   0.806 -22.485  0.00  0.00    +0.007 C 
ENDBRANCH  16  26
BRANCH   1  28
ATOM     28  O   UNL     1      -4.737   3.427 -24.417  0.00  0.00    -0.481 OA
BRANCH  28  29
ATOM     29  C   UNL     1      -5.467   3.996 -23.504  0.00  0.00    +0.349 C 
BRANCH  29  30
ATOM     30  C   UNL     1      -5.543   3.477 -22.315  0.00  0.00    +0.345 C 
ATOM     31  O   UNL     1      -6.396   2.525 -22.074  0.00  0.00    -0.247 OA
BRANCH  30  32
ATOM     32  O   UNL     1      -4.766   3.908 -21.367  0.00  0.00    -0.463 OA
BRANCH  32  34
ATOM     33  C   UNL     1      -2.793   3.515 -20.354  0.00  0.00    +0.048 C 
ATOM     34  C   UNL     1      -3.947   3.089 -20.775  0.00  0.00    +0.229 C 
ENDBRANCH  32  34
ENDBRANCH  30  32
ENDBRANCH  29  30
ENDBRANCH  28  29
ENDBRANCH   1  28
TORSDOF 7
ENDMDL
