MODEL 1
REMARK VINA RESULT:    -9.778      0.000      0.000
REMARK INTER + INTRA:         -10.485
REMARK INTER:                 -10.358
REMARK INTRA:                  -0.127
REMARK UNBOUND:                -0.135
REMARK  Name = ZINC000071404300
REMARK  3 active torsions:
REMARK  status: ('A' for Active; 'I' for Inactive)
REMARK    1  A    between atoms: C_1  and  O_2
REMARK    2  A    between atoms: O_2  and  C_3
REMARK    3  A    between atoms: C_5  and  C_6
REMARK                            x       y       z     vdW  Elec       q    Type
REMARK                         _______ _______ _______ _____ _____    ______ ____
ROOT
ATOM      1  C   UNL     1      -0.597   3.255 -23.923  0.00  0.00    +0.145 A 
ATOM      2  C   UNL     1       0.336   2.680 -23.225  0.00  0.00    +0.051 A 
ATOM      3  C   UNL     1       0.041   2.092 -22.104  0.00  0.00    -0.046 A 
ATOM      4  C   UNL     1      -1.188   2.078 -21.681  0.00  0.00    +0.014 A 
ATOM      5  C   UNL     1      -2.122   2.653 -22.380  0.00  0.00    +0.012 A 
ATOM      6  C   UNL     1      -3.401   2.779 -22.185  0.00  0.00    +0.008 A 
ATOM      7  C   UNL     1      -4.179   2.373 -21.225  0.00  0.00    +0.010 A 
ATOM      8  C   UNL     1      -5.452   2.634 -21.267  0.00  0.00    +0.001 A 
ATOM      9  C   UNL     1      -5.947   3.300 -22.267  0.00  0.00    +0.002 A 
ATOM     10  C   UNL     1      -5.170   3.706 -23.227  0.00  0.00    +0.027 A 
ATOM     11  C   UNL     1      -3.896   3.445 -23.185  0.00  0.00    +0.057 A 
ATOM     12  N   UNL     1      -2.923   3.731 -23.999  0.00  0.00    -0.279 N 
ATOM     13  C   UNL     1      -3.027   4.390 -25.114  0.00  0.00    +0.348 C 
ATOM     14  O   UNL     1      -4.188   4.829 -25.503  0.00  0.00    -0.276 OA
ATOM     15  C   UNL     1       0.975   1.517 -21.405  0.00  0.00    +0.044 C 
ATOM     16  C   UNL     1      -1.826   3.241 -23.501  0.00  0.00    +0.099 A 
ENDROOT
BRANCH   1  18
ATOM     17  C   UNL     1       0.938   4.109 -25.331  0.00  0.00    +0.277 C 
ATOM     18  O   UNL     1      -0.301   3.843 -25.045  0.00  0.00    -0.493 OA
ENDBRANCH   1  18
TORSDOF 1
ENDMDL
MODEL 2
REMARK VINA RESULT:    -8.955      0.998      4.367
REMARK INTER + INTRA:          -9.614
REMARK INTER:                  -9.566
REMARK INTRA:                  -0.048
REMARK UNBOUND:                -0.135
REMARK  Name = ZINC000071404300
REMARK  3 active torsions:
REMARK  status: ('A' for Active; 'I' for Inactive)
REMARK    1  A    between atoms: C_1  and  O_2
REMARK    2  A    between atoms: O_2  and  C_3
REMARK    3  A    between atoms: C_5  and  C_6
REMARK                            x       y       z     vdW  Elec       q    Type
REMARK                         _______ _______ _______ _____ _____    ______ ____
ROOT
ATOM      1  C   UNL     1      -3.281   3.725 -24.187  0.00  0.00    +0.145 A 
ATOM      2  C   UNL     1      -4.410   3.653 -23.546  0.00  0.00    +0.051 A 
ATOM      3  C   UNL     1      -4.453   3.117 -22.363  0.00  0.00    -0.046 A 
ATOM      4  C   UNL     1      -3.367   2.652 -21.820  0.00  0.00    +0.014 A 
ATOM      5  C   UNL     1      -2.238   2.724 -22.461  0.00  0.00    +0.012 A 
ATOM      6  C   UNL     1      -1.035   2.343 -22.149  0.00  0.00    +0.008 A 
ATOM      7  C   UNL     1      -0.553   1.760 -21.091  0.00  0.00    +0.010 A 
ATOM      8  C   UNL     1       0.714   1.479 -21.023  0.00  0.00    +0.001 A 
ATOM      9  C   UNL     1       1.500   1.779 -22.014  0.00  0.00    +0.002 A 
ATOM     10  C   UNL     1       1.019   2.361 -23.072  0.00  0.00    +0.027 A 
ATOM     11  C   UNL     1      -0.248   2.643 -23.139  0.00  0.00    +0.057 A 
ATOM     12  N   UNL     1      -0.965   3.210 -24.064  0.00  0.00    -0.279 N 
ATOM     13  C   UNL     1      -0.530   3.650 -25.207  0.00  0.00    +0.348 C 
ATOM     14  O   UNL     1       0.730   3.540 -25.508  0.00  0.00    -0.276 OA
ATOM     15  C   UNL     1      -5.582   3.045 -21.722  0.00  0.00    +0.044 C 
ATOM     16  C   UNL     1      -2.196   3.260 -23.644  0.00  0.00    +0.099 A 
ENDROOT
BRANCH   1  18
ATOM     17  C   UNL     1      -3.815   3.668 -26.374  0.00  0.00    +0.277 C 
ATOM     18  O   UNL     1      -3.239   4.261 -25.371  0.00  0.00    -0.493 OA
ENDBRANCH   1  18
TORSDOF 1
ENDMDL
MODEL 3
REMARK VINA RESULT:    -8.875      1.994      5.522
REMARK INTER + INTRA:          -9.529
REMARK INTER:                  -9.404
REMARK INTRA:                  -0.125
REMARK UNBOUND:                -0.135
REMARK  Name = ZINC000071404300
REMARK  3 active torsions:
REMARK  status: ('A' for Active; 'I' for Inactive)
REMARK    1  A    between atoms: C_1  and  O_2
REMARK    2  A    between atoms: O_2  and  C_3
REMARK    3  A    between atoms: C_5  and  C_6
REMARK                            x       y       z     vdW  Elec       q    Type
REMARK                         _______ _______ _______ _____ _____    ______ ____
ROOT
ATOM      1  C   UNL     1      -3.066   2.807 -22.378  0.00  0.00    +0.145 A 
ATOM      2  C   UNL     1      -4.062   3.353 -23.009  0.00  0.00    +0.051 A 
ATOM      3  C   UNL     1      -3.867   3.932 -24.157  0.00  0.00    -0.046 A 
ATOM      4  C   UNL     1      -2.674   3.965 -24.673  0.00  0.00    +0.014 A 
ATOM      5  C   UNL     1      -1.677   3.419 -24.041  0.00  0.00    +0.012 A 
ATOM      6  C   UNL     1      -0.415   3.316 -24.333  0.00  0.00    +0.008 A 
ATOM      7  C   UNL     1       0.279   3.725 -25.355  0.00  0.00    +0.010 A 
ATOM      8  C   UNL     1       1.556   3.491 -25.408  0.00  0.00    +0.001 A 
ATOM      9  C   UNL     1       2.141   2.848 -24.441  0.00  0.00    +0.002 A 
ATOM     10  C   UNL     1       1.448   2.440 -23.420  0.00  0.00    +0.027 A 
ATOM     11  C   UNL     1       0.170   2.674 -23.366  0.00  0.00    +0.057 A 
ATOM     12  N   UNL     1      -0.731   2.380 -22.476  0.00  0.00    -0.279 N 
ATOM     13  C   UNL     1      -0.527   1.738 -21.365  0.00  0.00    +0.348 C 
ATOM     14  O   UNL     1       0.668   1.328 -21.061  0.00  0.00    -0.276 OA
ATOM     15  C   UNL     1      -4.864   4.478 -24.788  0.00  0.00    +0.044 C 
ATOM     16  C   UNL     1      -1.874   2.840 -22.894  0.00  0.00    +0.099 A 
ENDROOT
BRANCH   1  18
ATOM     17  C   UNL     1      -4.444   2.242 -20.689  0.00  0.00    +0.277 C 
ATOM     18  O   UNL     1      -3.262   2.228 -21.230  0.00  0.00    -0.493 OA
ENDBRANCH   1  18
TORSDOF 1
ENDMDL
MODEL 4
REMARK VINA RESULT:    -8.809      1.893      3.239
REMARK INTER + INTRA:          -9.459
REMARK INTER:                  -9.334
REMARK INTRA:                  -0.125
REMARK UNBOUND:                -0.135
REMARK  Name = ZINC000071404300
REMARK  3 active torsions:
REMARK  status: ('A' for Active; 'I' for Inactive)
REMARK    1  A    between atoms: C_1  and  O_2
REMARK    2  A    between atoms: O_2  and  C_3
REMARK    3  A    between atoms: C_5  and  C_6
REMARK                            x       y       z     vdW  Elec       q    Type
REMARK                         _______ _______ _______ _____ _____    ______ ____
ROOT
ATOM      1  C   UNL     1      -0.298   2.513 -22.747  0.00  0.00    +0.145 A 
ATOM      2  C   UNL     1       0.701   2.742 -23.547  0.00  0.00    +0.051 A 
ATOM      3  C   UNL     1       0.502   3.348 -24.680  0.00  0.00    -0.046 A 
ATOM      4  C   UNL     1      -0.697   3.725 -25.013  0.00  0.00    +0.014 A 
ATOM      5  C   UNL     1      -1.696   3.495 -24.213  0.00  0.00    +0.012 A 
ATOM      6  C   UNL     1      -2.965   3.764 -24.307  0.00  0.00    +0.008 A 
ATOM      7  C   UNL     1      -3.664   4.352 -25.232  0.00  0.00    +0.010 A 
ATOM      8  C   UNL     1      -4.946   4.500 -25.082  0.00  0.00    +0.001 A 
ATOM      9  C   UNL     1      -5.531   4.060 -24.008  0.00  0.00    +0.002 A 
ATOM     10  C   UNL     1      -4.833   3.472 -23.083  0.00  0.00    +0.027 A 
ATOM     11  C   UNL     1      -3.549   3.324 -23.232  0.00  0.00    +0.057 A 
ATOM     12  N   UNL     1      -2.642   2.783 -22.474  0.00  0.00    -0.279 N 
ATOM     13  C   UNL     1      -2.844   2.233 -21.313  0.00  0.00    +0.348 C 
ATOM     14  O   UNL     1      -4.043   2.191 -20.815  0.00  0.00    -0.276 OA
ATOM     15  C   UNL     1       1.500   3.577 -25.479  0.00  0.00    +0.044 C 
ATOM     16  C   UNL     1      -1.496   2.890 -23.081  0.00  0.00    +0.099 A 
ENDROOT
BRANCH   1  18
ATOM     17  C   UNL     1       1.095   1.497 -21.299  0.00  0.00    +0.277 C 
ATOM     18  O   UNL     1      -0.098   1.907 -21.614  0.00  0.00    -0.493 OA
ENDBRANCH   1  18
TORSDOF 1
ENDMDL
MODEL 5
REMARK VINA RESULT:    -8.378      1.927      3.554
REMARK INTER + INTRA:          -9.003
REMARK INTER:                  -9.136
REMARK INTRA:                   0.133
REMARK UNBOUND:                -0.135
REMARK  Name = ZINC000071404300
REMARK  3 active torsions:
REMARK  status: ('A' for Active; 'I' for Inactive)
REMARK    1  A    between atoms: C_1  and  O_2
REMARK    2  A    between atoms: O_2  and  C_3
REMARK    3  A    between atoms: C_5  and  C_6
REMARK                            x       y       z     vdW  Elec       q    Type
REMARK                         _______ _______ _______ _____ _____    ______ ____
ROOT
ATOM      1  C   UNL     1      -2.163   2.627 -21.582  0.00  0.00    +0.145 A 
ATOM      2  C   UNL     1      -0.915   2.319 -21.387  0.00  0.00    +0.051 A 
ATOM      3  C   UNL     1      -0.088   2.287 -22.390  0.00  0.00    -0.046 A 
ATOM      4  C   UNL     1      -0.510   2.564 -23.589  0.00  0.00    +0.014 A 
ATOM      5  C   UNL     1      -1.759   2.872 -23.783  0.00  0.00    +0.012 A 
ATOM      6  C   UNL     1      -2.420   3.184 -24.858  0.00  0.00    +0.008 A 
ATOM      7  C   UNL     1      -2.057   3.292 -26.102  0.00  0.00    +0.010 A 
ATOM      8  C   UNL     1      -2.930   3.625 -27.006  0.00  0.00    +0.001 A 
ATOM      9  C   UNL     1      -4.165   3.849 -26.667  0.00  0.00    +0.002 A 
ATOM     10  C   UNL     1      -4.527   3.740 -25.424  0.00  0.00    +0.027 A 
ATOM     11  C   UNL     1      -3.655   3.408 -24.519  0.00  0.00    +0.057 A 
ATOM     12  N   UNL     1      -3.757   3.235 -23.235  0.00  0.00    -0.279 N 
ATOM     13  C   UNL     1      -4.840   3.369 -22.529  0.00  0.00    +0.348 C 
ATOM     14  O   UNL     1      -5.954   3.706 -23.107  0.00  0.00    -0.276 OA
ATOM     15  C   UNL     1       1.159   1.979 -22.196  0.00  0.00    +0.044 C 
ATOM     16  C   UNL     1      -2.584   2.903 -22.780  0.00  0.00    +0.099 A 
ENDROOT
BRANCH   1  18
ATOM     17  C   UNL     1      -3.035   3.704 -19.807  0.00  0.00    +0.277 C 
ATOM     18  O   UNL     1      -2.989   2.658 -20.578  0.00  0.00    -0.493 OA
ENDBRANCH   1  18
TORSDOF 1
ENDMDL
MODEL 6
REMARK VINA RESULT:    -8.312      1.596      4.504
REMARK INTER + INTRA:          -8.933
REMARK INTER:                  -8.807
REMARK INTRA:                  -0.126
REMARK UNBOUND:                -0.135
REMARK  Name = ZINC000071404300
REMARK  3 active torsions:
REMARK  status: ('A' for Active; 'I' for Inactive)
REMARK    1  A    between atoms: C_1  and  O_2
REMARK    2  A    between atoms: O_2  and  C_3
REMARK    3  A    between atoms: C_5  and  C_6
REMARK                            x       y       z     vdW  Elec       q    Type
REMARK                         _______ _______ _______ _____ _____    ______ ____
ROOT
ATOM      1  C   UNL     1      -3.876   3.521 -22.927  0.00  0.00    +0.145 A 
ATOM      2  C   UNL     1      -4.006   3.545 -21.634  0.00  0.00    +0.051 A 
ATOM      3  C   UNL     1      -2.955   3.651 -20.876  0.00  0.00    -0.046 A 
ATOM      4  C   UNL     1      -1.773   3.732 -21.412  0.00  0.00    +0.014 A 
ATOM      5  C   UNL     1      -1.643   3.708 -22.706  0.00  0.00    +0.012 A 
ATOM      6  C   UNL     1      -0.598   3.772 -23.476  0.00  0.00    +0.008 A 
ATOM      7  C   UNL     1       0.671   3.882 -23.214  0.00  0.00    +0.010 A 
ATOM      8  C   UNL     1       1.534   3.926 -24.184  0.00  0.00    +0.001 A 
ATOM      9  C   UNL     1       1.129   3.859 -25.418  0.00  0.00    +0.002 A 
ATOM     10  C   UNL     1      -0.139   3.749 -25.681  0.00  0.00    +0.027 A 
ATOM     11  C   UNL     1      -1.003   3.706 -24.709  0.00  0.00    +0.057 A 
ATOM     12  N   UNL     1      -2.299   3.601 -24.701  0.00  0.00    -0.279 N 
ATOM     13  C   UNL     1      -3.065   3.510 -25.748  0.00  0.00    +0.348 C 
ATOM     14  O   UNL     1      -2.542   3.520 -26.938  0.00  0.00    -0.276 OA
ATOM     15  C   UNL     1      -3.085   3.676 -19.583  0.00  0.00    +0.044 C 
ATOM     16  C   UNL     1      -2.695   3.602 -23.462  0.00  0.00    +0.099 A 
ENDROOT
BRANCH   1  18
ATOM     17  C   UNL     1      -6.114   3.545 -23.170  0.00  0.00    +0.277 C 
ATOM     18  O   UNL     1      -4.928   3.415 -23.684  0.00  0.00    -0.493 OA
ENDBRANCH   1  18
TORSDOF 1
ENDMDL
MODEL 7
REMARK VINA RESULT:    -8.139      2.422      5.852
REMARK INTER + INTRA:          -8.750
REMARK INTER:                  -8.612
REMARK INTRA:                  -0.138
REMARK UNBOUND:                -0.135
REMARK  Name = ZINC000071404300
REMARK  3 active torsions:
REMARK  status: ('A' for Active; 'I' for Inactive)
REMARK    1  A    between atoms: C_1  and  O_2
REMARK    2  A    between atoms: O_2  and  C_3
REMARK    3  A    between atoms: C_5  and  C_6
REMARK                            x       y       z     vdW  Elec       q    Type
REMARK                         _______ _______ _______ _____ _____    ______ ____
ROOT
ATOM      1  C   UNL     1      -2.000   2.485 -22.787  0.00  0.00    +0.145 A 
ATOM      2  C   UNL     1      -2.735   2.914 -23.770  0.00  0.00    +0.051 A 
ATOM      3  C   UNL     1      -2.177   3.303 -24.878  0.00  0.00    -0.046 A 
ATOM      4  C   UNL     1      -0.883   3.263 -25.003  0.00  0.00    +0.014 A 
ATOM      5  C   UNL     1      -0.148   2.833 -24.020  0.00  0.00    +0.012 A 
ATOM      6  C   UNL     1       1.138   2.696 -23.892  0.00  0.00    +0.008 A 
ATOM      7  C   UNL     1       2.125   2.941 -24.702  0.00  0.00    +0.010 A 
ATOM      8  C   UNL     1       3.347   2.711 -24.326  0.00  0.00    +0.001 A 
ATOM      9  C   UNL     1       3.584   2.237 -23.138  0.00  0.00    +0.002 A 
ATOM     10  C   UNL     1       2.598   1.992 -22.328  0.00  0.00    +0.027 A 
ATOM     11  C   UNL     1       1.375   2.222 -22.705  0.00  0.00    +0.057 A 
ATOM     12  N   UNL     1       0.235   2.066 -22.099  0.00  0.00    -0.279 N 
ATOM     13  C   UNL     1       0.065   1.613 -20.893  0.00  0.00    +0.348 C 
ATOM     14  O   UNL     1       1.095   1.266 -20.178  0.00  0.00    -0.276 OA
ATOM     15  C   UNL     1      -2.911   3.733 -25.860  0.00  0.00    +0.044 C 
ATOM     16  C   UNL     1      -0.707   2.445 -22.913  0.00  0.00    +0.099 A 
ENDROOT
BRANCH   1  18
ATOM     17  C   UNL     1      -3.490   2.819 -21.133  0.00  0.00    +0.277 C 
ATOM     18  O   UNL     1      -2.559   2.096 -21.679  0.00  0.00    -0.493 OA
ENDBRANCH   1  18
TORSDOF 1
ENDMDL
MODEL 8
REMARK VINA RESULT:    -7.717      2.976      4.738
REMARK INTER + INTRA:          -8.304
REMARK INTER:                  -8.167
REMARK INTRA:                  -0.137
REMARK UNBOUND:                -0.135
REMARK  Name = ZINC000071404300
REMARK  3 active torsions:
REMARK  status: ('A' for Active; 'I' for Inactive)
REMARK    1  A    between atoms: C_1  and  O_2
REMARK    2  A    between atoms: O_2  and  C_3
REMARK    3  A    between atoms: C_5  and  C_6
REMARK                            x       y       z     vdW  Elec       q    Type
REMARK                         _______ _______ _______ _____ _____    ______ ____
ROOT
ATOM      1  C   UNL     1       4.131   2.521 -22.837  0.00  0.00    +0.145 A 
ATOM      2  C   UNL     1       4.833   1.671 -22.149  0.00  0.00    +0.051 A 
ATOM      3  C   UNL     1       4.242   0.850 -21.332  0.00  0.00    -0.046 A 
ATOM      4  C   UNL     1       2.949   0.881 -21.203  0.00  0.00    +0.014 A 
ATOM      5  C   UNL     1       2.247   1.732 -21.891  0.00  0.00    +0.012 A 
ATOM      6  C   UNL     1       0.968   1.962 -21.945  0.00  0.00    +0.008 A 
ATOM      7  C   UNL     1      -0.041   1.420 -21.330  0.00  0.00    +0.010 A 
ATOM      8  C   UNL     1      -1.247   1.840 -21.565  0.00  0.00    +0.001 A 
ATOM      9  C   UNL     1      -1.446   2.803 -22.416  0.00  0.00    +0.002 A 
ATOM     10  C   UNL     1      -0.438   3.345 -23.031  0.00  0.00    +0.027 A 
ATOM     11  C   UNL     1       0.770   2.925 -22.796  0.00  0.00    +0.057 A 
ATOM     12  N   UNL     1       1.925   3.290 -23.267  0.00  0.00    -0.279 N 
ATOM     13  C   UNL     1       2.132   4.227 -24.144  0.00  0.00    +0.348 C 
ATOM     14  O   UNL     1       1.128   4.895 -24.629  0.00  0.00    -0.276 OA
ATOM     15  C   UNL     1       4.944  -0.001 -20.644  0.00  0.00    +0.044 C 
ATOM     16  C   UNL     1       2.838   2.552 -22.708  0.00  0.00    +0.099 A 
ENDROOT
BRANCH   1  18
ATOM     17  C   UNL     1       5.759   4.019 -23.258  0.00  0.00    +0.277 C 
ATOM     18  O   UNL     1       4.723   3.342 -23.654  0.00  0.00    -0.493 OA
ENDBRANCH   1  18
TORSDOF 1
ENDMDL
MODEL 9
REMARK VINA RESULT:    -7.594      3.328      5.362
REMARK INTER + INTRA:          -8.173
REMARK INTER:                  -8.038
REMARK INTRA:                  -0.135
REMARK UNBOUND:                -0.135
REMARK  Name = ZINC000071404300
REMARK  3 active torsions:
REMARK  status: ('A' for Active; 'I' for Inactive)
REMARK    1  A    between atoms: C_1  and  O_2
REMARK    2  A    between atoms: O_2  and  C_3
REMARK    3  A    between atoms: C_5  and  C_6
REMARK                            x       y       z     vdW  Elec       q    Type
REMARK                         _______ _______ _______ _____ _____    ______ ____
ROOT
ATOM      1  C   UNL     1       3.622   1.978 -22.386  0.00  0.00    +0.145 A 
ATOM      2  C   UNL     1       4.735   2.611 -22.611  0.00  0.00    +0.051 A 
ATOM      3  C   UNL     1       4.711   3.832 -23.057  0.00  0.00    -0.046 A 
ATOM      4  C   UNL     1       3.572   4.421 -23.277  0.00  0.00    +0.014 A 
ATOM      5  C   UNL     1       2.459   3.788 -23.052  0.00  0.00    +0.012 A 
ATOM      6  C   UNL     1       1.215   4.141 -23.187  0.00  0.00    +0.008 A 
ATOM      7  C   UNL     1       0.664   5.246 -23.593  0.00  0.00    +0.010 A 
ATOM      8  C   UNL     1      -0.631   5.349 -23.637  0.00  0.00    +0.001 A 
ATOM      9  C   UNL     1      -1.375   4.346 -23.274  0.00  0.00    +0.002 A 
ATOM     10  C   UNL     1      -0.824   3.241 -22.868  0.00  0.00    +0.027 A 
ATOM     11  C   UNL     1       0.471   3.139 -22.824  0.00  0.00    +0.057 A 
ATOM     12  N   UNL     1       1.255   2.166 -22.465  0.00  0.00    -0.279 N 
ATOM     13  C   UNL     1       0.878   0.997 -22.040  0.00  0.00    +0.348 C 
ATOM     14  O   UNL     1      -0.389   0.718 -21.945  0.00  0.00    -0.276 OA
ATOM     15  C   UNL     1       5.824   4.464 -23.282  0.00  0.00    +0.044 C 
ATOM     16  C   UNL     1       2.485   2.567 -22.606  0.00  0.00    +0.099 A 
ENDROOT
BRANCH   1  18
ATOM     17  C   UNL     1       4.388   0.455 -20.916  0.00  0.00    +0.277 C 
ATOM     18  O   UNL     1       3.647   0.757 -21.940  0.00  0.00    -0.493 OA
ENDBRANCH   1  18
TORSDOF 1
ENDMDL
