MODEL 1
REMARK VINA RESULT:   -10.091      0.000      0.000
REMARK INTER + INTRA:         -13.341
REMARK INTER:                 -12.743
REMARK INTRA:                  -0.598
REMARK UNBOUND:                 0.289
REMARK  Name = ZINC000003998738
REMARK  6 active torsions:
REMARK  status: ('A' for Active; 'I' for Inactive)
REMARK    1  A    between atoms: C_2  and  C_3
REMARK    2  A    between atoms: C_10  and  C_11
REMARK    3  A    between atoms: C_11  and  O_12
REMARK    4  A    between atoms: C_11  and  C_21
REMARK    5  A    between atoms: O_12  and  C_13
REMARK    6  A    between atoms: C_13  and  C_15
REMARK                            x       y       z     vdW  Elec       q    Type
REMARK                         _______ _______ _______ _____ _____    ______ ____
ROOT
ATOM      1  C   UNL     1      -1.024   2.653 -23.781  0.00  0.00    +0.255 C 
ENDROOT
BRANCH   1   2
ATOM      2  C   UNL     1      -2.126   3.054 -24.392  0.00  0.00    +0.009 A 
ATOM      3  C   UNL     1      -2.111   3.295 -25.688  0.00  0.00    +0.028 A 
ATOM      4  C   UNL     1      -3.211   3.696 -26.301  0.00  0.00    +0.112 A 
ATOM      5  N   UNL     1      -4.326   3.853 -25.610  0.00  0.00    -0.255 NA
ATOM      6  C   UNL     1      -4.342   3.611 -24.315  0.00  0.00    +0.071 A 
ATOM      7  C   UNL     1      -5.456   3.768 -23.624  0.00  0.00    +0.028 A 
ATOM      8  C   UNL     1      -5.471   3.527 -22.329  0.00  0.00    +0.002 A 
ATOM      9  C   UNL     1      -4.371   3.127 -21.716  0.00  0.00    +0.001 A 
ATOM     10  C   UNL     1      -3.256   2.970 -22.407  0.00  0.00    +0.010 A 
ATOM     11  C   UNL     1      -3.241   3.211 -23.703  0.00  0.00    +0.007 A 
ENDBRANCH   1   2
BRANCH   1  18
ATOM     12  C   UNL     1       2.036   5.169 -23.345  0.00  0.00    +0.060 C 
ATOM     13  C   UNL     1       0.898   5.372 -22.664  0.00  0.00    +0.139 C 
ATOM     14  N   UNL     1      -0.115   4.518 -22.824  0.00  0.00    +0.241 N 
ATOM     15  H   UNL     1      -1.050   4.476 -22.419  0.00  0.00    +0.204 HD
ATOM     16  C   UNL     1       0.895   4.760 -23.116  0.00  0.00    +0.132 C 
ATOM     17  C   UNL     1       1.199   3.954 -23.854  0.00  0.00    +0.055 C 
ATOM     18  C   UNL     1      -0.010   3.487 -23.636  0.00  0.00    +0.111 C 
ATOM     19  C   UNL     1       1.124   3.288 -24.312  0.00  0.00    +0.063 C 
ATOM     20  C   UNL     1       2.135   4.120 -24.168  0.00  0.00    +0.011 C 
BRANCH  12  22
ATOM     21  C   UNL     1       4.236   5.545 -22.837  0.00  0.00    +0.004 C 
ATOM     22  C   UNL     1       3.054   6.002 -23.204  0.00  0.00    -0.026 C 
ENDBRANCH  12  22
ENDBRANCH   1  18
BRANCH   1  23
ATOM     23  O   UNL     1      -0.937   1.422 -23.315  0.00  0.00    -0.447 OA
BRANCH  23  24
ATOM     24  C   UNL     1      -0.471   1.208 -22.100  0.00  0.00    +0.340 C 
ATOM     25  O   UNL     1      -1.306   1.077 -21.087  0.00  0.00    -0.245 OA
BRANCH  24  26
ATOM     26  C   UNL     1       0.829   1.125 -21.899  0.00  0.00    +0.059 A 
ATOM     27  C   UNL     1       1.378   1.740 -20.864  0.00  0.00    +0.015 A 
ATOM     28  C   UNL     1       2.679   1.656 -20.664  0.00  0.00    +0.001 A 
ATOM     29  C   UNL     1       3.434   0.961 -21.491  0.00  0.00    +0.000 A 
ATOM     30  C   UNL     1       2.886   0.346 -22.526  0.00  0.00    +0.001 A 
ATOM     31  C   UNL     1       1.585   0.430 -22.726  0.00  0.00    +0.015 A 
ENDBRANCH  24  26
ENDBRANCH  23  24
ENDBRANCH   1  23
TORSDOF 6
ENDMDL
MODEL 2
REMARK VINA RESULT:    -9.642      1.966      5.988
REMARK INTER + INTRA:         -12.735
REMARK INTER:                 -11.387
REMARK INTRA:                  -1.348
REMARK UNBOUND:                 0.289
REMARK  Name = ZINC000003998738
REMARK  6 active torsions:
REMARK  status: ('A' for Active; 'I' for Inactive)
REMARK    1  A    between atoms: C_2  and  C_3
REMARK    2  A    between atoms: C_10  and  C_11
REMARK    3  A    between atoms: C_11  and  O_12
REMARK    4  A    between atoms: C_11  and  C_21
REMARK    5  A    between atoms: O_12  and  C_13
REMARK    6  A    between atoms: C_13  and  C_15
REMARK                            x       y       z     vdW  Elec       q    Type
REMARK                         _______ _______ _______ _____ _____    ______ ____
ROOT
ATOM      1  C   UNL     1       0.863   3.667 -23.011  0.00  0.00    +0.255 C 
ENDROOT
BRANCH   1   2
ATOM      2  C   UNL     1       1.581   2.670 -23.500  0.00  0.00    +0.009 A 
ATOM      3  C   UNL     1       1.580   2.428 -24.796  0.00  0.00    +0.028 A 
ATOM      4  C   UNL     1       2.297   1.433 -25.285  0.00  0.00    +0.112 A 
ATOM      5  N   UNL     1       3.015   0.680 -24.471  0.00  0.00    -0.255 NA
ATOM      6  C   UNL     1       3.017   0.921 -23.176  0.00  0.00    +0.071 A 
ATOM      7  C   UNL     1       3.735   0.168 -22.362  0.00  0.00    +0.028 A 
ATOM      8  C   UNL     1       3.736   0.410 -21.067  0.00  0.00    +0.002 A 
ATOM      9  C   UNL     1       3.019   1.405 -20.577  0.00  0.00    +0.001 A 
ATOM     10  C   UNL     1       2.301   2.158 -21.391  0.00  0.00    +0.010 A 
ATOM     11  C   UNL     1       2.300   1.916 -22.687  0.00  0.00    +0.007 A 
ENDBRANCH   1   2
BRANCH   1  18
ATOM     12  C   UNL     1      -3.117   3.485 -23.108  0.00  0.00    +0.060 C 
ATOM     13  C   UNL     1      -2.456   4.213 -24.021  0.00  0.00    +0.139 C 
ATOM     14  N   UNL     1      -1.124   4.261 -23.972  0.00  0.00    +0.241 N 
ATOM     15  H   UNL     1      -0.430   4.738 -24.548  0.00  0.00    +0.204 HD
ATOM     16  C   UNL     1      -2.014   3.860 -23.513  0.00  0.00    +0.132 C 
ATOM     17  C   UNL     1      -1.649   3.230 -22.643  0.00  0.00    +0.055 C 
ATOM     18  C   UNL     1      -0.456   3.607 -23.044  0.00  0.00    +0.111 C 
ATOM     19  C   UNL     1      -1.117   2.884 -22.137  0.00  0.00    +0.063 C 
ATOM     20  C   UNL     1      -2.433   2.824 -22.170  0.00  0.00    +0.011 C 
BRANCH  12  22
ATOM     21  C   UNL     1      -5.120   3.325 -22.012  0.00  0.00    +0.004 C 
ATOM     22  C   UNL     1      -4.438   3.422 -23.137  0.00  0.00    -0.026 C 
ENDBRANCH  12  22
ENDBRANCH   1  18
BRANCH   1  23
ATOM     23  O   UNL     1       1.463   4.721 -22.493  0.00  0.00    -0.447 OA
BRANCH  23  24
ATOM     24  C   UNL     1       2.239   5.475 -23.247  0.00  0.00    +0.340 C 
ATOM     25  O   UNL     1       1.775   5.982 -24.373  0.00  0.00    -0.245 OA
BRANCH  24  26
ATOM     26  C   UNL     1       3.480   5.721 -22.874  0.00  0.00    +0.059 A 
ATOM     27  C   UNL     1       4.422   4.814 -23.075  0.00  0.00    +0.015 A 
ATOM     28  C   UNL     1       5.663   5.062 -22.702  0.00  0.00    +0.001 A 
ATOM     29  C   UNL     1       5.967   6.210 -22.129  0.00  0.00    +0.000 A 
ATOM     30  C   UNL     1       5.025   7.117 -21.928  0.00  0.00    +0.001 A 
ATOM     31  C   UNL     1       3.784   6.869 -22.301  0.00  0.00    +0.015 A 
ENDBRANCH  24  26
ENDBRANCH  23  24
ENDBRANCH   1  23
TORSDOF 6
ENDMDL
MODEL 3
REMARK VINA RESULT:    -9.516      2.260      4.618
REMARK INTER + INTRA:         -12.566
REMARK INTER:                 -12.388
REMARK INTRA:                  -0.178
REMARK UNBOUND:                 0.289
REMARK  Name = ZINC000003998738
REMARK  6 active torsions:
REMARK  status: ('A' for Active; 'I' for Inactive)
REMARK    1  A    between atoms: C_2  and  C_3
REMARK    2  A    between atoms: C_10  and  C_11
REMARK    3  A    between atoms: C_11  and  O_12
REMARK    4  A    between atoms: C_11  and  C_21
REMARK    5  A    between atoms: O_12  and  C_13
REMARK    6  A    between atoms: C_13  and  C_15
REMARK                            x       y       z     vdW  Elec       q    Type
REMARK                         _______ _______ _______ _____ _____    ______ ____
ROOT
ATOM      1  C   UNL     1       0.162   4.016 -23.468  0.00  0.00    +0.255 C 
ENDROOT
BRANCH   1   2
ATOM      2  C   UNL     1      -0.358   3.065 -22.709  0.00  0.00    +0.009 A 
ATOM      3  C   UNL     1       0.110   1.835 -22.778  0.00  0.00    +0.028 A 
ATOM      4  C   UNL     1      -0.408   0.884 -22.021  0.00  0.00    +0.112 A 
ATOM      5  N   UNL     1      -1.398   1.172 -21.194  0.00  0.00    -0.255 NA
ATOM      6  C   UNL     1      -1.866   2.401 -21.124  0.00  0.00    +0.071 A 
ATOM      7  C   UNL     1      -2.855   2.688 -20.297  0.00  0.00    +0.028 A 
ATOM      8  C   UNL     1      -3.323   3.918 -20.228  0.00  0.00    +0.002 A 
ATOM      9  C   UNL     1      -2.805   4.868 -20.985  0.00  0.00    +0.001 A 
ATOM     10  C   UNL     1      -1.816   4.581 -21.812  0.00  0.00    +0.010 A 
ATOM     11  C   UNL     1      -1.347   3.351 -21.882  0.00  0.00    +0.007 A 
ENDBRANCH   1   2
BRANCH   1  18
ATOM     12  C   UNL     1       4.000   5.009 -23.061  0.00  0.00    +0.060 C 
ATOM     13  C   UNL     1       3.045   5.941 -22.912  0.00  0.00    +0.139 C 
ATOM     14  N   UNL     1       1.767   5.588 -23.052  0.00  0.00    +0.241 N 
ATOM     15  H   UNL     1       0.896   6.115 -22.984  0.00  0.00    +0.204 HD
ATOM     16  C   UNL     1       2.789   5.243 -23.073  0.00  0.00    +0.132 C 
ATOM     17  C   UNL     1       2.730   4.135 -23.311  0.00  0.00    +0.055 C 
ATOM     18  C   UNL     1       1.433   4.345 -23.333  0.00  0.00    +0.111 C 
ATOM     19  C   UNL     1       2.385   3.421 -23.481  0.00  0.00    +0.063 C 
ATOM     20  C   UNL     1       3.654   3.750 -23.346  0.00  0.00    +0.011 C 
BRANCH  12  22
ATOM     21  C   UNL     1       6.215   4.443 -23.177  0.00  0.00    +0.004 C 
ATOM     22  C   UNL     1       5.275   5.334 -22.927  0.00  0.00    -0.026 C 
ENDBRANCH  12  22
ENDBRANCH   1  18
BRANCH   1  23
ATOM     23  O   UNL     1      -0.589   4.634 -24.358  0.00  0.00    -0.447 OA
BRANCH  23  24
ATOM     24  C   UNL     1      -1.167   3.947 -25.325  0.00  0.00    +0.340 C 
ATOM     25  O   UNL     1      -0.430   3.351 -26.242  0.00  0.00    -0.245 OA
BRANCH  24  26
ATOM     26  C   UNL     1      -2.482   3.856 -25.372  0.00  0.00    +0.059 A 
ATOM     27  C   UNL     1      -3.053   2.939 -26.136  0.00  0.00    +0.015 A 
ATOM     28  C   UNL     1      -4.368   2.850 -26.183  0.00  0.00    +0.001 A 
ATOM     29  C   UNL     1      -5.115   3.671 -25.471  0.00  0.00    +0.000 A 
ATOM     30  C   UNL     1      -4.544   4.588 -24.708  0.00  0.00    +0.001 A 
ATOM     31  C   UNL     1      -3.229   4.678 -24.661  0.00  0.00    +0.015 A 
ENDBRANCH  24  26
ENDBRANCH  23  24
ENDBRANCH   1  23
TORSDOF 6
ENDMDL
MODEL 4
REMARK VINA RESULT:    -9.464      1.645      5.995
REMARK INTER + INTRA:         -12.495
REMARK INTER:                 -12.047
REMARK INTRA:                  -0.448
REMARK UNBOUND:                 0.289
REMARK  Name = ZINC000003998738
REMARK  6 active torsions:
REMARK  status: ('A' for Active; 'I' for Inactive)
REMARK    1  A    between atoms: C_2  and  C_3
REMARK    2  A    between atoms: C_10  and  C_11
REMARK    3  A    between atoms: C_11  and  O_12
REMARK    4  A    between atoms: C_11  and  C_21
REMARK    5  A    between atoms: O_12  and  C_13
REMARK    6  A    between atoms: C_13  and  C_15
REMARK                            x       y       z     vdW  Elec       q    Type
REMARK                         _______ _______ _______ _____ _____    ______ ____
ROOT
ATOM      1  C   UNL     1       0.281   3.373 -22.633  0.00  0.00    +0.255 C 
ENDROOT
BRANCH   1   2
ATOM      2  C   UNL     1       1.513   3.782 -22.884  0.00  0.00    +0.009 A 
ATOM      3  C   UNL     1       1.763   5.066 -23.041  0.00  0.00    +0.028 A 
ATOM      4  C   UNL     1       2.993   5.477 -23.292  0.00  0.00    +0.112 A 
ATOM      5  N   UNL     1       3.972   4.595 -23.385  0.00  0.00    -0.255 NA
ATOM      6  C   UNL     1       3.723   3.311 -23.228  0.00  0.00    +0.071 A 
ATOM      7  C   UNL     1       4.702   2.428 -23.321  0.00  0.00    +0.028 A 
ATOM      8  C   UNL     1       4.452   1.145 -23.163  0.00  0.00    +0.002 A 
ATOM      9  C   UNL     1       3.222   0.734 -22.912  0.00  0.00    +0.001 A 
ATOM     10  C   UNL     1       2.243   1.616 -22.820  0.00  0.00    +0.010 A 
ATOM     11  C   UNL     1       2.493   2.901 -22.977  0.00  0.00    +0.007 A 
ENDBRANCH   1   2
BRANCH   1  18
ATOM     12  C   UNL     1      -2.564   3.820 -25.387  0.00  0.00    +0.060 C 
ATOM     13  C   UNL     1      -1.765   2.742 -25.416  0.00  0.00    +0.139 C 
ATOM     14  N   UNL     1      -0.819   2.611 -24.485  0.00  0.00    +0.241 N 
ATOM     15  H   UNL     1      -0.115   1.893 -24.316  0.00  0.00    +0.204 HD
ATOM     16  C   UNL     1      -1.624   3.230 -24.849  0.00  0.00    +0.132 C 
ATOM     17  C   UNL     1      -1.666   4.119 -24.146  0.00  0.00    +0.055 C 
ATOM     18  C   UNL     1      -0.662   3.521 -23.545  0.00  0.00    +0.111 C 
ATOM     19  C   UNL     1      -1.459   4.592 -23.520  0.00  0.00    +0.063 C 
ATOM     20  C   UNL     1      -2.399   4.739 -24.430  0.00  0.00    +0.011 C 
BRANCH  12  22
ATOM     21  C   UNL     1      -4.759   3.654 -26.017  0.00  0.00    +0.004 C 
ATOM     22  C   UNL     1      -3.510   3.972 -26.299  0.00  0.00    -0.026 C 
ENDBRANCH  12  22
ENDBRANCH   1  18
BRANCH   1  23
ATOM     23  O   UNL     1      -0.007   2.817 -21.471  0.00  0.00    -0.447 OA
BRANCH  23  24
ATOM     24  C   UNL     1      -1.057   2.027 -21.360  0.00  0.00    +0.340 C 
ATOM     25  O   UNL     1      -0.915   0.720 -21.470  0.00  0.00    -0.245 OA
BRANCH  24  26
ATOM     26  C   UNL     1      -2.249   2.545 -21.139  0.00  0.00    +0.059 A 
ATOM     27  C   UNL     1      -2.384   3.557 -20.297  0.00  0.00    +0.015 A 
ATOM     28  C   UNL     1      -3.577   4.074 -20.077  0.00  0.00    +0.001 A 
ATOM     29  C   UNL     1      -4.636   3.587 -20.693  0.00  0.00    +0.000 A 
ATOM     30  C   UNL     1      -4.502   2.575 -21.535  0.00  0.00    +0.001 A 
ATOM     31  C   UNL     1      -3.309   2.058 -21.755  0.00  0.00    +0.015 A 
ENDBRANCH  24  26
ENDBRANCH  23  24
ENDBRANCH   1  23
TORSDOF 6
ENDMDL
MODEL 5
REMARK VINA RESULT:    -9.346      1.784      6.368
REMARK INTER + INTRA:         -12.335
REMARK INTER:                 -11.125
REMARK INTRA:                  -1.210
REMARK UNBOUND:                 0.289
REMARK  Name = ZINC000003998738
REMARK  6 active torsions:
REMARK  status: ('A' for Active; 'I' for Inactive)
REMARK    1  A    between atoms: C_2  and  C_3
REMARK    2  A    between atoms: C_10  and  C_11
REMARK    3  A    between atoms: C_11  and  O_12
REMARK    4  A    between atoms: C_11  and  C_21
REMARK    5  A    between atoms: O_12  and  C_13
REMARK    6  A    between atoms: C_13  and  C_15
REMARK                            x       y       z     vdW  Elec       q    Type
REMARK                         _______ _______ _______ _____ _____    ______ ____
ROOT
ATOM      1  C   UNL     1       0.310   3.179 -23.568  0.00  0.00    +0.255 C 
ENDROOT
BRANCH   1   2
ATOM      2  C   UNL     1       1.529   3.562 -23.225  0.00  0.00    +0.009 A 
ATOM      3  C   UNL     1       1.874   4.830 -23.322  0.00  0.00    +0.028 A 
ATOM      4  C   UNL     1       3.091   5.214 -22.981  0.00  0.00    +0.112 A 
ATOM      5  N   UNL     1       3.961   4.322 -22.542  0.00  0.00    -0.255 NA
ATOM      6  C   UNL     1       3.617   3.054 -22.444  0.00  0.00    +0.071 A 
ATOM      7  C   UNL     1       4.486   2.162 -22.005  0.00  0.00    +0.028 A 
ATOM      8  C   UNL     1       4.141   0.894 -21.908  0.00  0.00    +0.002 A 
ATOM      9  C   UNL     1       2.924   0.510 -22.249  0.00  0.00    +0.001 A 
ATOM     10  C   UNL     1       2.054   1.402 -22.689  0.00  0.00    +0.010 A 
ATOM     11  C   UNL     1       2.399   2.671 -22.786  0.00  0.00    +0.007 A 
ENDBRANCH   1   2
BRANCH   1  18
ATOM     12  C   UNL     1      -2.618   3.212 -20.864  0.00  0.00    +0.060 C 
ATOM     13  C   UNL     1      -2.112   4.368 -21.320  0.00  0.00    +0.139 C 
ATOM     14  N   UNL     1      -1.132   4.336 -22.225  0.00  0.00    +0.241 N 
ATOM     15  H   UNL     1      -0.610   5.071 -22.700  0.00  0.00    +0.204 HD
ATOM     16  C   UNL     1      -1.797   3.742 -21.617  0.00  0.00    +0.132 C 
ATOM     17  C   UNL     1      -1.547   2.662 -21.858  0.00  0.00    +0.055 C 
ATOM     18  C   UNL     1      -0.660   3.190 -22.672  0.00  0.00    +0.111 C 
ATOM     19  C   UNL     1      -1.166   2.041 -22.216  0.00  0.00    +0.063 C 
ATOM     20  C   UNL     1      -2.134   2.053 -21.322  0.00  0.00    +0.011 C 
BRANCH  12  22
ATOM     21  C   UNL     1      -4.664   2.475 -20.151  0.00  0.00    +0.004 C 
ATOM     22  C   UNL     1      -3.590   3.218 -19.967  0.00  0.00    -0.026 C 
ENDBRANCH  12  22
ENDBRANCH   1  18
BRANCH   1  23
ATOM     23  O   UNL     1       0.064   2.787 -24.803  0.00  0.00    -0.447 OA
BRANCH  23  24
ATOM     24  C   UNL     1      -0.678   3.535 -25.596  0.00  0.00    +0.340 C 
ATOM     25  O   UNL     1      -0.117   4.209 -26.582  0.00  0.00    -0.245 OA
BRANCH  24  26
ATOM     26  C   UNL     1      -1.980   3.609 -25.403  0.00  0.00    +0.059 A 
ATOM     27  C   UNL     1      -2.534   4.763 -25.069  0.00  0.00    +0.015 A 
ATOM     28  C   UNL     1      -3.837   4.836 -24.876  0.00  0.00    +0.001 A 
ATOM     29  C   UNL     1      -4.589   3.762 -25.016  0.00  0.00    +0.000 A 
ATOM     30  C   UNL     1      -4.036   2.608 -25.350  0.00  0.00    +0.001 A 
ATOM     31  C   UNL     1      -2.733   2.535 -25.543  0.00  0.00    +0.015 A 
ENDBRANCH  24  26
ENDBRANCH  23  24
ENDBRANCH   1  23
TORSDOF 6
ENDMDL
MODEL 6
REMARK VINA RESULT:    -8.564      1.870      6.061
REMARK INTER + INTRA:         -11.279
REMARK INTER:                 -11.455
REMARK INTRA:                   0.176
REMARK UNBOUND:                 0.289
REMARK  Name = ZINC000003998738
REMARK  6 active torsions:
REMARK  status: ('A' for Active; 'I' for Inactive)
REMARK    1  A    between atoms: C_2  and  C_3
REMARK    2  A    between atoms: C_10  and  C_11
REMARK    3  A    between atoms: C_11  and  O_12
REMARK    4  A    between atoms: C_11  and  C_21
REMARK    5  A    between atoms: O_12  and  C_13
REMARK    6  A    between atoms: C_13  and  C_15
REMARK                            x       y       z     vdW  Elec       q    Type
REMARK                         _______ _______ _______ _____ _____    ______ ____
ROOT
ATOM      1  C   UNL     1       0.511   2.848 -23.088  0.00  0.00    +0.255 C 
ENDROOT
BRANCH   1   2
ATOM      2  C   UNL     1       1.737   2.442 -23.379  0.00  0.00    +0.009 A 
ATOM      3  C   UNL     1       1.948   1.195 -23.748  0.00  0.00    +0.028 A 
ATOM      4  C   UNL     1       3.171   0.788 -24.038  0.00  0.00    +0.112 A 
ATOM      5  N   UNL     1       4.181   1.635 -23.957  0.00  0.00    -0.255 NA
ATOM      6  C   UNL     1       3.970   2.883 -23.588  0.00  0.00    +0.071 A 
ATOM      7  C   UNL     1       4.980   3.731 -23.506  0.00  0.00    +0.028 A 
ATOM      8  C   UNL     1       4.768   4.977 -23.137  0.00  0.00    +0.002 A 
ATOM      9  C   UNL     1       3.545   5.384 -22.847  0.00  0.00    +0.001 A 
ATOM     10  C   UNL     1       2.535   4.536 -22.928  0.00  0.00    +0.010 A 
ATOM     11  C   UNL     1       2.747   3.289 -23.298  0.00  0.00    +0.007 A 
ENDBRANCH   1   2
BRANCH   1  18
ATOM     12  C   UNL     1      -2.137   3.426 -26.009  0.00  0.00    +0.060 C 
ATOM     13  C   UNL     1      -0.879   3.874 -26.145  0.00  0.00    +0.139 C 
ATOM     14  N   UNL     1      -0.008   3.671 -25.156  0.00  0.00    +0.241 N 
ATOM     15  H   UNL     1       0.975   3.917 -25.043  0.00  0.00    +0.204 HD
ATOM     16  C   UNL     1      -1.023   3.518 -25.487  0.00  0.00    +0.132 C 
ATOM     17  C   UNL     1      -1.538   2.962 -24.645  0.00  0.00    +0.055 C 
ATOM     18  C   UNL     1      -0.366   3.040 -24.056  0.00  0.00    +0.111 C 
ATOM     19  C   UNL     1      -1.618   2.596 -23.925  0.00  0.00    +0.063 C 
ATOM     20  C   UNL     1      -2.493   2.787 -24.891  0.00  0.00    +0.011 C 
BRANCH  12  22
ATOM     21  C   UNL     1      -4.224   3.088 -26.885  0.00  0.00    +0.004 C 
ATOM     22  C   UNL     1      -3.019   3.616 -26.976  0.00  0.00    -0.026 C 
ENDBRANCH  12  22
ENDBRANCH   1  18
BRANCH   1  23
ATOM     23  O   UNL     1       0.167   3.061 -21.833  0.00  0.00    -0.447 OA
BRANCH  23  24
ATOM     24  C   UNL     1      -0.660   2.232 -21.226  0.00  0.00    +0.340 C 
ATOM     25  O   UNL     1      -0.236   1.044 -20.838  0.00  0.00    -0.245 OA
BRANCH  24  26
ATOM     26  C   UNL     1      -1.910   2.590 -21.008  0.00  0.00    +0.059 A 
ATOM     27  C   UNL     1      -2.880   1.697 -21.111  0.00  0.00    +0.015 A 
ATOM     28  C   UNL     1      -4.130   2.056 -20.893  0.00  0.00    +0.001 A 
ATOM     29  C   UNL     1      -4.416   3.303 -20.573  0.00  0.00    +0.000 A 
ATOM     30  C   UNL     1      -3.446   4.197 -20.471  0.00  0.00    +0.001 A 
ATOM     31  C   UNL     1      -2.196   3.837 -20.689  0.00  0.00    +0.015 A 
ENDBRANCH  24  26
ENDBRANCH  23  24
ENDBRANCH   1  23
TORSDOF 6
ENDMDL
MODEL 7
REMARK VINA RESULT:    -8.554      2.404      6.419
REMARK INTER + INTRA:         -11.266
REMARK INTER:                 -12.121
REMARK INTRA:                   0.855
REMARK UNBOUND:                 0.289
REMARK  Name = ZINC000003998738
REMARK  6 active torsions:
REMARK  status: ('A' for Active; 'I' for Inactive)
REMARK    1  A    between atoms: C_2  and  C_3
REMARK    2  A    between atoms: C_10  and  C_11
REMARK    3  A    between atoms: C_11  and  O_12
REMARK    4  A    between atoms: C_11  and  C_21
REMARK    5  A    between atoms: O_12  and  C_13
REMARK    6  A    between atoms: C_13  and  C_15
REMARK                            x       y       z     vdW  Elec       q    Type
REMARK                         _______ _______ _______ _____ _____    ______ ____
ROOT
ATOM      1  C   UNL     1       3.043   3.700 -23.948  0.00  0.00    +0.255 C 
ENDROOT
BRANCH   1   2
ATOM      2  C   UNL     1       3.666   4.694 -23.337  0.00  0.00    +0.009 A 
ATOM      3  C   UNL     1       2.980   5.726 -22.888  0.00  0.00    +0.028 A 
ATOM      4  C   UNL     1       3.600   6.719 -22.277  0.00  0.00    +0.112 A 
ATOM      5  N   UNL     1       4.910   6.675 -22.117  0.00  0.00    -0.255 NA
ATOM      6  C   UNL     1       5.597   5.643 -22.566  0.00  0.00    +0.071 A 
ATOM      7  C   UNL     1       6.908   5.599 -22.406  0.00  0.00    +0.028 A 
ATOM      8  C   UNL     1       7.593   4.567 -22.855  0.00  0.00    +0.002 A 
ATOM      9  C   UNL     1       6.973   3.574 -23.466  0.00  0.00    +0.001 A 
ATOM     10  C   UNL     1       5.663   3.618 -23.626  0.00  0.00    +0.010 A 
ATOM     11  C   UNL     1       4.976   4.650 -23.177  0.00  0.00    +0.007 A 
ENDBRANCH   1   2
BRANCH   1  18
ATOM     12  C   UNL     1      -0.902   3.854 -24.485  0.00  0.00    +0.060 C 
ATOM     13  C   UNL     1      -0.397   3.724 -23.248  0.00  0.00    +0.139 C 
ATOM     14  N   UNL     1       0.926   3.674 -23.090  0.00  0.00    +0.241 N 
ATOM     15  H   UNL     1       1.517   3.580 -22.264  0.00  0.00    +0.204 HD
ATOM     16  C   UNL     1       0.122   3.763 -23.803  0.00  0.00    +0.132 C 
ATOM     17  C   UNL     1       0.623   3.846 -24.817  0.00  0.00    +0.055 C 
ATOM     18  C   UNL     1       1.736   3.751 -24.126  0.00  0.00    +0.111 C 
ATOM     19  C   UNL     1       1.230   3.881 -25.355  0.00  0.00    +0.063 C 
ATOM     20  C   UNL     1      -0.074   3.932 -25.531  0.00  0.00    +0.011 C 
BRANCH  12  22
ATOM     21  C   UNL     1      -2.825   2.947 -25.334  0.00  0.00    +0.004 C 
ATOM     22  C   UNL     1      -2.211   3.906 -24.667  0.00  0.00    -0.026 C 
ENDBRANCH  12  22
ENDBRANCH   1  18
BRANCH   1  23
ATOM     23  O   UNL     1       3.728   2.658 -24.380  0.00  0.00    -0.447 OA
BRANCH  23  24
ATOM     24  C   UNL     1       3.395   1.443 -23.990  0.00  0.00    +0.340 C 
ATOM     25  O   UNL     1       2.813   0.615 -24.836  0.00  0.00    -0.245 OA
BRANCH  24  26
ATOM     26  C   UNL     1       3.645   1.057 -22.754  0.00  0.00    +0.059 A 
ATOM     27  C   UNL     1       4.874   0.716 -22.404  0.00  0.00    +0.015 A 
ATOM     28  C   UNL     1       5.122   0.330 -21.168  0.00  0.00    +0.001 A 
ATOM     29  C   UNL     1       4.150   0.283 -20.279  0.00  0.00    +0.000 A 
ATOM     30  C   UNL     1       2.920   0.624 -20.629  0.00  0.00    +0.001 A 
ATOM     31  C   UNL     1       2.672   1.010 -21.865  0.00  0.00    +0.015 A 
ENDBRANCH  24  26
ENDBRANCH  23  24
ENDBRANCH   1  23
TORSDOF 6
ENDMDL
MODEL 8
REMARK VINA RESULT:    -8.496      2.087      4.719
REMARK INTER + INTRA:         -11.187
REMARK INTER:                 -10.222
REMARK INTRA:                  -0.965
REMARK UNBOUND:                 0.289
REMARK  Name = ZINC000003998738
REMARK  6 active torsions:
REMARK  status: ('A' for Active; 'I' for Inactive)
REMARK    1  A    between atoms: C_2  and  C_3
REMARK    2  A    between atoms: C_10  and  C_11
REMARK    3  A    between atoms: C_11  and  O_12
REMARK    4  A    between atoms: C_11  and  C_21
REMARK    5  A    between atoms: O_12  and  C_13
REMARK    6  A    between atoms: C_13  and  C_15
REMARK                            x       y       z     vdW  Elec       q    Type
REMARK                         _______ _______ _______ _____ _____    ______ ____
ROOT
ATOM      1  C   UNL     1      -0.334   2.767 -23.274  0.00  0.00    +0.255 C 
ENDROOT
BRANCH   1   2
ATOM      2  C   UNL     1      -0.929   3.671 -22.513  0.00  0.00    +0.009 A 
ATOM      3  C   UNL     1      -0.485   4.912 -22.493  0.00  0.00    +0.028 A 
ATOM      4  C   UNL     1      -1.078   5.816 -21.733  0.00  0.00    +0.112 A 
ATOM      5  N   UNL     1      -2.118   5.471 -20.994  0.00  0.00    -0.255 NA
ATOM      6  C   UNL     1      -2.562   4.231 -21.014  0.00  0.00    +0.071 A 
ATOM      7  C   UNL     1      -3.601   3.886 -20.276  0.00  0.00    +0.028 A 
ATOM      8  C   UNL     1      -4.044   2.645 -20.296  0.00  0.00    +0.002 A 
ATOM      9  C   UNL     1      -3.451   1.742 -21.056  0.00  0.00    +0.001 A 
ATOM     10  C   UNL     1      -2.412   2.086 -21.795  0.00  0.00    +0.010 A 
ATOM     11  C   UNL     1      -1.968   3.327 -21.774  0.00  0.00    +0.007 A 
ENDBRANCH   1   2
BRANCH   1  18
ATOM     12  C   UNL     1       3.270   1.390 -22.278  0.00  0.00    +0.060 C 
ATOM     13  C   UNL     1       2.206   1.100 -21.513  0.00  0.00    +0.139 C 
ATOM     14  N   UNL     1       1.008   1.571 -21.864  0.00  0.00    +0.241 N 
ATOM     15  H   UNL     1       0.083   1.481 -21.444  0.00  0.00    +0.204 HD
ATOM     16  C   UNL     1       2.055   1.531 -22.122  0.00  0.00    +0.132 C 
ATOM     17  C   UNL     1       2.156   2.137 -23.075  0.00  0.00    +0.055 C 
ATOM     18  C   UNL     1       0.860   2.311 -22.944  0.00  0.00    +0.111 C 
ATOM     19  C   UNL     1       1.921   2.596 -23.702  0.00  0.00    +0.063 C 
ATOM     20  C   UNL     1       3.113   2.141 -23.372  0.00  0.00    +0.011 C 
BRANCH  12  22
ATOM     21  C   UNL     1       5.543   1.655 -22.208  0.00  0.00    +0.004 C 
ATOM     22  C   UNL     1       4.468   0.934 -21.951  0.00  0.00    -0.026 C 
ENDBRANCH  12  22
ENDBRANCH   1  18
BRANCH   1  23
ATOM     23  O   UNL     1      -0.933   2.323 -24.362  0.00  0.00    -0.447 OA
BRANCH  23  24
ATOM     24  C   UNL     1      -1.399   3.176 -25.253  0.00  0.00    +0.340 C 
ATOM     25  O   UNL     1      -0.571   3.781 -26.083  0.00  0.00    -0.245 OA
BRANCH  24  26
ATOM     26  C   UNL     1      -2.693   3.424 -25.314  0.00  0.00    +0.059 A 
ATOM     27  C   UNL     1      -3.187   4.500 -24.725  0.00  0.00    +0.015 A 
ATOM     28  C   UNL     1      -4.481   4.747 -24.787  0.00  0.00    +0.001 A 
ATOM     29  C   UNL     1      -5.284   3.924 -25.433  0.00  0.00    +0.000 A 
ATOM     30  C   UNL     1      -4.790   2.847 -26.021  0.00  0.00    +0.001 A 
ATOM     31  C   UNL     1      -3.496   2.601 -25.960  0.00  0.00    +0.015 A 
ENDBRANCH  24  26
ENDBRANCH  23  24
ENDBRANCH   1  23
TORSDOF 6
ENDMDL
MODEL 9
REMARK VINA RESULT:    -8.391      1.999      6.457
REMARK INTER + INTRA:         -11.046
REMARK INTER:                 -11.335
REMARK INTRA:                   0.289
REMARK UNBOUND:                 0.289
REMARK  Name = ZINC000003998738
REMARK  6 active torsions:
REMARK  status: ('A' for Active; 'I' for Inactive)
REMARK    1  A    between atoms: C_2  and  C_3
REMARK    2  A    between atoms: C_10  and  C_11
REMARK    3  A    between atoms: C_11  and  O_12
REMARK    4  A    between atoms: C_11  and  C_21
REMARK    5  A    between atoms: O_12  and  C_13
REMARK    6  A    between atoms: C_13  and  C_15
REMARK                            x       y       z     vdW  Elec       q    Type
REMARK                         _______ _______ _______ _____ _____    ______ ____
ROOT
ATOM      1  C   UNL     1       0.596   2.318 -23.433  0.00  0.00    +0.255 C 
ENDROOT
BRANCH   1   2
ATOM      2  C   UNL     1       1.783   2.012 -22.934  0.00  0.00    +0.009 A 
ATOM      3  C   UNL     1       2.016   0.797 -22.481  0.00  0.00    +0.028 A 
ATOM      4  C   UNL     1       3.200   0.490 -21.983  0.00  0.00    +0.112 A 
ATOM      5  N   UNL     1       4.150   1.406 -21.941  0.00  0.00    -0.255 NA
ATOM      6  C   UNL     1       3.919   2.622 -22.394  0.00  0.00    +0.071 A 
ATOM      7  C   UNL     1       4.869   3.538 -22.351  0.00  0.00    +0.028 A 
ATOM      8  C   UNL     1       4.637   4.753 -22.805  0.00  0.00    +0.002 A 
ATOM      9  C   UNL     1       3.452   5.060 -23.303  0.00  0.00    +0.001 A 
ATOM     10  C   UNL     1       2.502   4.143 -23.345  0.00  0.00    +0.010 A 
ATOM     11  C   UNL     1       2.734   2.928 -22.892  0.00  0.00    +0.007 A 
ENDBRANCH   1   2
BRANCH   1  18
ATOM     12  C   UNL     1      -2.474   2.998 -20.985  0.00  0.00    +0.060 C 
ATOM     13  C   UNL     1      -2.207   1.748 -21.397  0.00  0.00    +0.139 C 
ATOM     14  N   UNL     1      -1.175   1.542 -22.216  0.00  0.00    +0.241 N 
ATOM     15  H   UNL     1      -0.796   0.698 -22.646  0.00  0.00    +0.204 HD
ATOM     16  C   UNL     1      -1.736   2.282 -21.666  0.00  0.00    +0.132 C 
ATOM     17  C   UNL     1      -1.229   3.272 -21.886  0.00  0.00    +0.055 C 
ATOM     18  C   UNL     1      -0.421   2.543 -22.622  0.00  0.00    +0.111 C 
ATOM     19  C   UNL     1      -0.690   3.784 -22.210  0.00  0.00    +0.063 C 
ATOM     20  C   UNL     1      -1.705   4.008 -21.401  0.00  0.00    +0.011 C 
BRANCH  12  22
ATOM     21  C   UNL     1      -4.644   3.651 -20.659  0.00  0.00    +0.004 C 
ATOM     22  C   UNL     1      -3.492   3.227 -20.173  0.00  0.00    -0.026 C 
ENDBRANCH  12  22
ENDBRANCH   1  18
BRANCH   1  23
ATOM     23  O   UNL     1       0.430   2.397 -24.739  0.00  0.00    -0.447 OA
BRANCH  23  24
ATOM     24  C   UNL     1      -0.143   3.462 -25.267  0.00  0.00    +0.340 C 
ATOM     25  O   UNL     1       0.596   4.390 -25.843  0.00  0.00    -0.245 OA
BRANCH  24  26
ATOM     26  C   UNL     1      -1.453   3.597 -25.218  0.00  0.00    +0.059 A 
ATOM     27  C   UNL     1      -1.985   4.755 -24.862  0.00  0.00    +0.015 A 
ATOM     28  C   UNL     1      -3.296   4.889 -24.813  0.00  0.00    +0.001 A 
ATOM     29  C   UNL     1      -4.079   3.873 -25.119  0.00  0.00    +0.000 A 
ATOM     30  C   UNL     1      -3.548   2.715 -25.475  0.00  0.00    +0.001 A 
ATOM     31  C   UNL     1      -2.236   2.581 -25.523  0.00  0.00    +0.015 A 
ENDBRANCH  24  26
ENDBRANCH  23  24
ENDBRANCH   1  23
TORSDOF 6
ENDMDL
