MODEL 1
REMARK VINA RESULT:    -5.812      0.000      0.000
REMARK INTER + INTRA:          -7.205
REMARK INTER:                  -7.072
REMARK INTRA:                  -0.132
REMARK UNBOUND:                -0.203
REMARK  Name = ZINC000001529432
REMARK  5 active torsions:
REMARK  status: ('A' for Active; 'I' for Inactive)
REMARK    1  A    between atoms: C_1  and  N_2
REMARK    2  A    between atoms: N_2  and  C_3
REMARK    3  A    between atoms: C_3  and  C_4
REMARK    4  A    between atoms: C_4  and  C_5
REMARK    5  A    between atoms: C_8  and  O_9
REMARK                            x       y       z     vdW  Elec       q    Type
REMARK                         _______ _______ _______ _____ _____    ______ ____
ROOT
ATOM      1  C   UNL     1      -2.855   3.516 -24.760  0.00  0.00    -0.042 A 
ATOM      2  C   UNL     1      -3.969   4.058 -25.155  0.00  0.00    +0.007 A 
ATOM      3  C   UNL     1      -4.987   4.115 -24.349  0.00  0.00    +0.045 A 
ATOM      4  C   UNL     1      -4.891   3.631 -23.146  0.00  0.00    +0.117 A 
ATOM      5  C   UNL     1      -3.777   3.089 -22.750  0.00  0.00    +0.045 A 
ATOM      6  C   UNL     1      -2.760   3.032 -23.556  0.00  0.00    +0.007 A 
ENDROOT
BRANCH   4   7
ATOM      7  O   UNL     1      -5.909   3.688 -22.339  0.00  0.00    -0.507 OA
ATOM      8  H   UNL     1      -6.238   2.904 -21.944  0.00  0.00    +0.292 HD
ENDBRANCH   4   7
BRANCH   1   9
ATOM      9  C   UNL     1      -1.837   3.459 -25.566  0.00  0.00    +0.086 C 
BRANCH   9  10
ATOM     10  C   UNL     1      -0.630   3.577 -25.098  0.00  0.00    +0.134 C 
BRANCH  10  12
ATOM     11  C   UNL     1       1.534   2.966 -25.210  0.00  0.00    +0.188 C 
ATOM     12  N   UNL     1       0.380   3.130 -25.784  0.00  0.00    +0.225 N 
ATOM     13  H   UNL     1       0.556   3.878 -26.456  0.00  0.00    +0.201 HD
ATOM     14  H   UNL     1       0.104   2.221 -26.156  0.00  0.00    +0.201 HD
ENDBRANCH  10  12
ENDBRANCH   9  10
ENDBRANCH   1   9
TORSDOF 4
ENDMDL
MODEL 2
REMARK VINA RESULT:    -5.751      0.906      1.698
REMARK INTER + INTRA:          -7.130
REMARK INTER:                  -6.976
REMARK INTRA:                  -0.154
REMARK UNBOUND:                -0.203
REMARK  Name = ZINC000001529432
REMARK  5 active torsions:
REMARK  status: ('A' for Active; 'I' for Inactive)
REMARK    1  A    between atoms: C_1  and  N_2
REMARK    2  A    between atoms: N_2  and  C_3
REMARK    3  A    between atoms: C_3  and  C_4
REMARK    4  A    between atoms: C_4  and  C_5
REMARK    5  A    between atoms: C_8  and  O_9
REMARK                            x       y       z     vdW  Elec       q    Type
REMARK                         _______ _______ _______ _____ _____    ______ ____
ROOT
ATOM      1  C   UNL     1      -3.023   3.838 -23.699  0.00  0.00    -0.042 A 
ATOM      2  C   UNL     1      -3.033   3.427 -22.466  0.00  0.00    +0.007 A 
ATOM      3  C   UNL     1      -4.164   3.221 -21.858  0.00  0.00    +0.045 A 
ATOM      4  C   UNL     1      -5.284   3.426 -22.484  0.00  0.00    +0.117 A 
ATOM      5  C   UNL     1      -5.275   3.836 -23.717  0.00  0.00    +0.045 A 
ATOM      6  C   UNL     1      -4.145   4.042 -24.325  0.00  0.00    +0.007 A 
ENDROOT
BRANCH   4   7
ATOM      7  O   UNL     1      -6.415   3.219 -21.876  0.00  0.00    -0.507 OA
ATOM      8  H   UNL     1      -6.443   2.690 -21.104  0.00  0.00    +0.292 HD
ENDBRANCH   4   7
BRANCH   1   9
ATOM      9  C   UNL     1      -1.893   4.044 -24.307  0.00  0.00    +0.086 C 
BRANCH   9  10
ATOM     10  C   UNL     1      -1.656   3.473 -25.450  0.00  0.00    +0.134 C 
BRANCH  10  12
ATOM     11  C   UNL     1       0.552   3.838 -25.199  0.00  0.00    +0.188 C 
ATOM     12  N   UNL     1      -0.452   3.474 -25.941  0.00  0.00    +0.225 N 
ATOM     13  H   UNL     1      -0.492   4.201 -26.656  0.00  0.00    +0.201 HD
ATOM     14  H   UNL     1      -0.259   2.521 -26.250  0.00  0.00    +0.201 HD
ENDBRANCH  10  12
ENDBRANCH   9  10
ENDBRANCH   1   9
TORSDOF 4
ENDMDL
MODEL 3
REMARK VINA RESULT:    -5.690      1.945      2.582
REMARK INTER + INTRA:          -7.058
REMARK INTER:                  -6.917
REMARK INTRA:                  -0.140
REMARK UNBOUND:                -0.203
REMARK  Name = ZINC000001529432
REMARK  5 active torsions:
REMARK  status: ('A' for Active; 'I' for Inactive)
REMARK    1  A    between atoms: C_1  and  N_2
REMARK    2  A    between atoms: N_2  and  C_3
REMARK    3  A    between atoms: C_3  and  C_4
REMARK    4  A    between atoms: C_4  and  C_5
REMARK    5  A    between atoms: C_8  and  O_9
REMARK                            x       y       z     vdW  Elec       q    Type
REMARK                         _______ _______ _______ _____ _____    ______ ____
ROOT
ATOM      1  C   UNL     1      -2.271   3.914 -22.370  0.00  0.00    -0.042 A 
ATOM      2  C   UNL     1      -2.762   3.753 -21.177  0.00  0.00    +0.007 A 
ATOM      3  C   UNL     1      -4.022   3.474 -21.025  0.00  0.00    +0.045 A 
ATOM      4  C   UNL     1      -4.792   3.356 -22.065  0.00  0.00    +0.117 A 
ATOM      5  C   UNL     1      -4.302   3.516 -23.259  0.00  0.00    +0.045 A 
ATOM      6  C   UNL     1      -3.042   3.795 -23.411  0.00  0.00    +0.007 A 
ENDROOT
BRANCH   4   7
ATOM      7  O   UNL     1      -6.053   3.077 -21.913  0.00  0.00    -0.507 OA
ATOM      8  H   UNL     1      -6.412   2.986 -21.053  0.00  0.00    +0.292 HD
ENDBRANCH   4   7
BRANCH   1   9
ATOM      9  C   UNL     1      -1.011   4.193 -22.523  0.00  0.00    +0.086 C 
BRANCH   9  10
ATOM     10  C   UNL     1      -0.641   5.061 -23.417  0.00  0.00    +0.134 C 
BRANCH  10  12
ATOM     11  C   UNL     1       1.601   4.853 -23.461  0.00  0.00    +0.188 C 
ATOM     12  N   UNL     1       0.541   5.598 -23.352  0.00  0.00    +0.225 N 
ATOM     13  H   UNL     1       0.591   5.939 -22.392  0.00  0.00    +0.201 HD
ATOM     14  H   UNL     1       0.591   6.292 -24.099  0.00  0.00    +0.201 HD
ENDBRANCH  10  12
ENDBRANCH   9  10
ENDBRANCH   1   9
TORSDOF 4
ENDMDL
MODEL 4
REMARK VINA RESULT:    -5.607      2.433      3.134
REMARK INTER + INTRA:          -6.957
REMARK INTER:                  -6.804
REMARK INTRA:                  -0.153
REMARK UNBOUND:                -0.203
REMARK  Name = ZINC000001529432
REMARK  5 active torsions:
REMARK  status: ('A' for Active; 'I' for Inactive)
REMARK    1  A    between atoms: C_1  and  N_2
REMARK    2  A    between atoms: N_2  and  C_3
REMARK    3  A    between atoms: C_3  and  C_4
REMARK    4  A    between atoms: C_4  and  C_5
REMARK    5  A    between atoms: C_8  and  O_9
REMARK                            x       y       z     vdW  Elec       q    Type
REMARK                         _______ _______ _______ _____ _____    ______ ____
ROOT
ATOM      1  C   UNL     1      -2.240   2.636 -22.345  0.00  0.00    -0.042 A 
ATOM      2  C   UNL     1      -2.963   2.495 -21.274  0.00  0.00    +0.007 A 
ATOM      3  C   UNL     1      -4.216   2.839 -21.285  0.00  0.00    +0.045 A 
ATOM      4  C   UNL     1      -4.747   3.324 -22.368  0.00  0.00    +0.117 A 
ATOM      5  C   UNL     1      -4.025   3.465 -23.439  0.00  0.00    +0.045 A 
ATOM      6  C   UNL     1      -2.771   3.121 -23.428  0.00  0.00    +0.007 A 
ENDROOT
BRANCH   4   7
ATOM      7  O   UNL     1      -6.001   3.669 -22.380  0.00  0.00    -0.507 OA
ATOM      8  H   UNL     1      -6.627   3.143 -22.837  0.00  0.00    +0.292 HD
ENDBRANCH   4   7
BRANCH   1   9
ATOM      9  C   UNL     1      -0.987   2.292 -22.333  0.00  0.00    +0.086 C 
BRANCH   9  10
ATOM     10  C   UNL     1      -0.583   1.337 -21.549  0.00  0.00    +0.134 C 
BRANCH  10  12
ATOM     11  C   UNL     1       1.649   1.459 -21.827  0.00  0.00    +0.188 C 
ATOM     12  N   UNL     1       0.615   1.374 -21.044  0.00  0.00    +0.225 N 
ATOM     13  H   UNL     1       0.718   0.452 -20.618  0.00  0.00    +0.201 HD
ATOM     14  H   UNL     1       0.648   2.183 -20.423  0.00  0.00    +0.201 HD
ENDBRANCH  10  12
ENDBRANCH   9  10
ENDBRANCH   1   9
TORSDOF 4
ENDMDL
MODEL 5
REMARK VINA RESULT:    -5.505      2.137      2.591
REMARK INTER + INTRA:          -6.835
REMARK INTER:                  -6.640
REMARK INTRA:                  -0.195
REMARK UNBOUND:                -0.203
REMARK  Name = ZINC000001529432
REMARK  5 active torsions:
REMARK  status: ('A' for Active; 'I' for Inactive)
REMARK    1  A    between atoms: C_1  and  N_2
REMARK    2  A    between atoms: N_2  and  C_3
REMARK    3  A    between atoms: C_3  and  C_4
REMARK    4  A    between atoms: C_4  and  C_5
REMARK    5  A    between atoms: C_8  and  O_9
REMARK                            x       y       z     vdW  Elec       q    Type
REMARK                         _______ _______ _______ _____ _____    ______ ____
ROOT
ATOM      1  C   UNL     1      -1.830   3.752 -24.090  0.00  0.00    -0.042 A 
ATOM      2  C   UNL     1      -1.715   3.533 -25.366  0.00  0.00    +0.007 A 
ATOM      3  C   UNL     1      -2.777   3.371 -26.097  0.00  0.00    +0.045 A 
ATOM      4  C   UNL     1      -3.956   3.427 -25.551  0.00  0.00    +0.117 A 
ATOM      5  C   UNL     1      -4.072   3.647 -24.275  0.00  0.00    +0.045 A 
ATOM      6  C   UNL     1      -3.009   3.809 -23.544  0.00  0.00    +0.007 A 
ENDROOT
BRANCH   4   7
ATOM      7  O   UNL     1      -5.019   3.265 -26.282  0.00  0.00    -0.507 OA
ATOM      8  H   UNL     1      -5.261   2.408 -26.573  0.00  0.00    +0.292 HD
ENDBRANCH   4   7
BRANCH   1   9
ATOM      9  C   UNL     1      -0.768   3.914 -23.359  0.00  0.00    +0.086 C 
BRANCH   9  10
ATOM     10  C   UNL     1      -0.436   5.103 -22.950  0.00  0.00    +0.134 C 
BRANCH  10  12
ATOM     11  C   UNL     1       1.704   4.945 -23.633  0.00  0.00    +0.188 C 
ATOM     12  N   UNL     1       0.648   5.665 -23.397  0.00  0.00    +0.225 N 
ATOM     13  H   UNL     1       0.939   6.261 -22.621  0.00  0.00    +0.201 HD
ATOM     14  H   UNL     1       0.402   6.124 -24.274  0.00  0.00    +0.201 HD
ENDBRANCH  10  12
ENDBRANCH   9  10
ENDBRANCH   1   9
TORSDOF 4
ENDMDL
MODEL 6
REMARK VINA RESULT:    -5.202      2.895      4.145
REMARK INTER + INTRA:          -6.469
REMARK INTER:                  -6.292
REMARK INTRA:                  -0.177
REMARK UNBOUND:                -0.203
REMARK  Name = ZINC000001529432
REMARK  5 active torsions:
REMARK  status: ('A' for Active; 'I' for Inactive)
REMARK    1  A    between atoms: C_1  and  N_2
REMARK    2  A    between atoms: N_2  and  C_3
REMARK    3  A    between atoms: C_3  and  C_4
REMARK    4  A    between atoms: C_4  and  C_5
REMARK    5  A    between atoms: C_8  and  O_9
REMARK                            x       y       z     vdW  Elec       q    Type
REMARK                         _______ _______ _______ _____ _____    ______ ____
ROOT
ATOM      1  C   UNL     1      -2.800   3.803 -23.895  0.00  0.00    -0.042 A 
ATOM      2  C   UNL     1      -1.880   3.545 -24.776  0.00  0.00    +0.007 A 
ATOM      3  C   UNL     1      -2.199   3.406 -26.028  0.00  0.00    +0.045 A 
ATOM      4  C   UNL     1      -3.439   3.526 -26.400  0.00  0.00    +0.117 A 
ATOM      5  C   UNL     1      -4.359   3.784 -25.519  0.00  0.00    +0.045 A 
ATOM      6  C   UNL     1      -4.041   3.923 -24.267  0.00  0.00    +0.007 A 
ENDROOT
BRANCH   4   7
ATOM      7  O   UNL     1      -3.758   3.387 -27.652  0.00  0.00    -0.507 OA
ATOM      8  H   UNL     1      -3.669   4.109 -28.242  0.00  0.00    +0.292 HD
ENDBRANCH   4   7
BRANCH   1   9
ATOM      9  C   UNL     1      -2.481   3.942 -22.643  0.00  0.00    +0.086 C 
BRANCH   9  10
ATOM     10  C   UNL     1      -2.451   2.904 -21.861  0.00  0.00    +0.134 C 
BRANCH  10  12
ATOM     11  C   UNL     1      -4.421   2.309 -20.946  0.00  0.00    +0.188 C 
ATOM     12  N   UNL     1      -3.242   2.843 -20.830  0.00  0.00    +0.225 N 
ATOM     13  H   UNL     1      -3.446   3.823 -20.634  0.00  0.00    +0.201 HD
ATOM     14  H   UNL     1      -2.748   2.314 -20.111  0.00  0.00    +0.201 HD
ENDBRANCH  10  12
ENDBRANCH   9  10
ENDBRANCH   1   9
TORSDOF 4
ENDMDL
MODEL 7
REMARK VINA RESULT:    -5.080      3.373      4.947
REMARK INTER + INTRA:          -6.322
REMARK INTER:                  -6.176
REMARK INTRA:                  -0.145
REMARK UNBOUND:                -0.203
REMARK  Name = ZINC000001529432
REMARK  5 active torsions:
REMARK  status: ('A' for Active; 'I' for Inactive)
REMARK    1  A    between atoms: C_1  and  N_2
REMARK    2  A    between atoms: N_2  and  C_3
REMARK    3  A    between atoms: C_3  and  C_4
REMARK    4  A    between atoms: C_4  and  C_5
REMARK    5  A    between atoms: C_8  and  O_9
REMARK                            x       y       z     vdW  Elec       q    Type
REMARK                         _______ _______ _______ _____ _____    ______ ____
ROOT
ATOM      1  C   UNL     1      -1.354   3.654 -22.988  0.00  0.00    -0.042 A 
ATOM      2  C   UNL     1      -1.673   4.035 -24.189  0.00  0.00    +0.007 A 
ATOM      3  C   UNL     1      -0.881   3.774 -25.186  0.00  0.00    +0.045 A 
ATOM      4  C   UNL     1       0.231   3.132 -24.981  0.00  0.00    +0.117 A 
ATOM      5  C   UNL     1       0.550   2.751 -23.780  0.00  0.00    +0.045 A 
ATOM      6  C   UNL     1      -0.242   3.012 -22.784  0.00  0.00    +0.007 A 
ENDROOT
BRANCH   4   7
ATOM      7  O   UNL     1       1.024   2.870 -25.978  0.00  0.00    -0.507 OA
ATOM      8  H   UNL     1       1.952   2.861 -25.849  0.00  0.00    +0.292 HD
ENDBRANCH   4   7
BRANCH   1   9
ATOM      9  C   UNL     1      -2.146   3.916 -21.991  0.00  0.00    +0.086 C 
BRANCH   9  10
ATOM     10  C   UNL     1      -2.558   2.954 -21.219  0.00  0.00    +0.134 C 
BRANCH  10  12
ATOM     11  C   UNL     1      -4.686   3.354 -21.840  0.00  0.00    +0.188 C 
ATOM     12  N   UNL     1      -3.817   2.628 -21.202  0.00  0.00    +0.225 N 
ATOM     13  H   UNL     1      -4.078   2.755 -20.224  0.00  0.00    +0.201 HD
ATOM     14  H   UNL     1      -3.882   1.685 -21.586  0.00  0.00    +0.201 HD
ENDBRANCH  10  12
ENDBRANCH   9  10
ENDBRANCH   1   9
TORSDOF 4
ENDMDL
MODEL 8
REMARK VINA RESULT:    -5.016      3.731      5.381
REMARK INTER + INTRA:          -6.245
REMARK INTER:                  -6.087
REMARK INTRA:                  -0.157
REMARK UNBOUND:                -0.203
REMARK  Name = ZINC000001529432
REMARK  5 active torsions:
REMARK  status: ('A' for Active; 'I' for Inactive)
REMARK    1  A    between atoms: C_1  and  N_2
REMARK    2  A    between atoms: N_2  and  C_3
REMARK    3  A    between atoms: C_3  and  C_4
REMARK    4  A    between atoms: C_4  and  C_5
REMARK    5  A    between atoms: C_8  and  O_9
REMARK                            x       y       z     vdW  Elec       q    Type
REMARK                         _______ _______ _______ _____ _____    ______ ____
ROOT
ATOM      1  C   UNL     1      -1.625   2.470 -22.689  0.00  0.00    -0.042 A 
ATOM      2  C   UNL     1      -1.322   1.814 -21.609  0.00  0.00    +0.007 A 
ATOM      3  C   UNL     1      -0.081   1.531 -21.345  0.00  0.00    +0.045 A 
ATOM      4  C   UNL     1       0.858   1.904 -22.163  0.00  0.00    +0.117 A 
ATOM      5  C   UNL     1       0.556   2.561 -23.243  0.00  0.00    +0.045 A 
ATOM      6  C   UNL     1      -0.685   2.843 -23.507  0.00  0.00    +0.007 A 
ENDROOT
BRANCH   4   7
ATOM      7  O   UNL     1       2.099   1.622 -21.899  0.00  0.00    -0.507 OA
ATOM      8  H   UNL     1       2.697   1.439 -22.598  0.00  0.00    +0.292 HD
ENDBRANCH   4   7
BRANCH   1   9
ATOM      9  C   UNL     1      -2.866   2.753 -22.953  0.00  0.00    +0.086 C 
BRANCH   9  10
ATOM     10  C   UNL     1      -3.715   2.916 -21.982  0.00  0.00    +0.134 C 
BRANCH  10  12
ATOM     11  C   UNL     1      -5.236   3.739 -23.425  0.00  0.00    +0.188 C 
ATOM     12  N   UNL     1      -4.851   3.509 -22.205  0.00  0.00    +0.225 N 
ATOM     13  H   UNL     1      -4.705   4.444 -21.824  0.00  0.00    +0.201 HD
ATOM     14  H   UNL     1      -5.573   2.933 -21.772  0.00  0.00    +0.201 HD
ENDBRANCH  10  12
ENDBRANCH   9  10
ENDBRANCH   1   9
TORSDOF 4
ENDMDL
MODEL 9
REMARK VINA RESULT:    -4.889      3.783      4.976
REMARK INTER + INTRA:          -6.093
REMARK INTER:                  -5.890
REMARK INTRA:                  -0.203
REMARK UNBOUND:                -0.203
REMARK  Name = ZINC000001529432
REMARK  5 active torsions:
REMARK  status: ('A' for Active; 'I' for Inactive)
REMARK    1  A    between atoms: C_1  and  N_2
REMARK    2  A    between atoms: N_2  and  C_3
REMARK    3  A    between atoms: C_3  and  C_4
REMARK    4  A    between atoms: C_4  and  C_5
REMARK    5  A    between atoms: C_8  and  O_9
REMARK                            x       y       z     vdW  Elec       q    Type
REMARK                         _______ _______ _______ _____ _____    ______ ____
ROOT
ATOM      1  C   UNL     1       1.037   1.843 -22.155  0.00  0.00    -0.042 A 
ATOM      2  C   UNL     1       0.051   1.536 -21.365  0.00  0.00    +0.007 A 
ATOM      3  C   UNL     1      -1.080   2.169 -21.460  0.00  0.00    +0.045 A 
ATOM      4  C   UNL     1      -1.225   3.111 -22.345  0.00  0.00    +0.117 A 
ATOM      5  C   UNL     1      -0.239   3.419 -23.134  0.00  0.00    +0.045 A 
ATOM      6  C   UNL     1       0.892   2.785 -23.039  0.00  0.00    +0.007 A 
ENDROOT
BRANCH   4   7
ATOM      7  O   UNL     1      -2.356   3.745 -22.440  0.00  0.00    -0.507 OA
ATOM      8  H   UNL     1      -2.711   3.945 -23.283  0.00  0.00    +0.292 HD
ENDBRANCH   4   7
BRANCH   1   9
ATOM      9  C   UNL     1       2.168   1.210 -22.060  0.00  0.00    +0.086 C 
BRANCH   9  10
ATOM     10  C   UNL     1       2.853   1.265 -20.957  0.00  0.00    +0.134 C 
BRANCH  10  12
ATOM     11  C   UNL     1       4.820   2.181 -21.561  0.00  0.00    +0.188 C 
ATOM     12  N   UNL     1       3.765   2.180 -20.802  0.00  0.00    +0.225 N 
ATOM     13  H   UNL     1       4.142   1.981 -19.876  0.00  0.00    +0.201 HD
ATOM     14  H   UNL     1       3.304   3.080 -20.937  0.00  0.00    +0.201 HD
ENDBRANCH  10  12
ENDBRANCH   9  10
ENDBRANCH   1   9
TORSDOF 4
ENDMDL
