MODEL 1
REMARK VINA RESULT:    -9.013      0.000      0.000
REMARK INTER + INTRA:         -10.261
REMARK INTER:                 -10.066
REMARK INTRA:                  -0.194
REMARK UNBOUND:                -0.194
REMARK  Name = ZINC000005497791
REMARK  4 active torsions:
REMARK  status: ('A' for Active; 'I' for Inactive)
REMARK    1  A    between atoms: C_1  and  O_2
REMARK    2  A    between atoms: O_2  and  C_3
REMARK    3  A    between atoms: C_3  and  C_5
REMARK    4  A    between atoms: C_16  and  C_17
REMARK                            x       y       z     vdW  Elec       q    Type
REMARK                         _______ _______ _______ _____ _____    ______ ____
ROOT
ATOM      1  C   UNL     1       0.356   1.969 -22.108  0.00  0.00    +0.218 C 
ATOM      2  C   UNL     1      -0.869   1.992 -21.668  0.00  0.00    +0.076 C 
ATOM      3  C   UNL     1      -1.798   2.578 -22.358  0.00  0.00    -0.011 A 
ATOM      4  C   UNL     1      -1.509   3.144 -23.490  0.00  0.00    +0.064 A 
ATOM      5  C   UNL     1      -0.284   3.124 -23.934  0.00  0.00    +0.057 C 
ATOM      6  C   UNL     1       0.005   3.691 -25.067  0.00  0.00    +0.067 C 
ATOM      7  N   UNL     1      -2.602   3.655 -23.979  0.00  0.00    -0.353 N 
ATOM      8  H   UNL     1      -2.683   4.144 -24.829  0.00  0.00    +0.166 HD
ATOM      9  C   UNL     1      -3.567   3.402 -23.147  0.00  0.00    +0.047 A 
ATOM     10  C   UNL     1      -4.834   3.692 -23.171  0.00  0.00    +0.026 A 
ATOM     11  C   UNL     1      -5.606   3.318 -22.195  0.00  0.00    +0.002 A 
ATOM     12  C   UNL     1      -5.110   2.652 -21.193  0.00  0.00    +0.001 A 
ATOM     13  C   UNL     1      -3.843   2.362 -21.168  0.00  0.00    +0.010 A 
ATOM     14  C   UNL     1      -3.072   2.737 -22.145  0.00  0.00    +0.004 A 
ATOM     15  N   UNL     1       0.644   2.537 -23.242  0.00  0.00    -0.272 NA
ENDROOT
BRANCH   1  16
ATOM     16  C   UNL     1       1.286   1.382 -21.418  0.00  0.00    +0.332 C 
ATOM     17  O   UNL     1       1.236   1.392 -20.119  0.00  0.00    -0.248 OA
BRANCH  16  19
ATOM     18  C   UNL     1       3.419   0.660 -21.432  0.00  0.00    +0.280 C 
ATOM     19  O   UNL     1       2.268   0.785 -22.025  0.00  0.00    -0.466 OA
ENDBRANCH  16  19
ENDBRANCH   1  16
TORSDOF 2
ENDMDL
MODEL 2
REMARK VINA RESULT:    -8.427      1.770      2.904
REMARK INTER + INTRA:          -9.606
REMARK INTER:                  -9.402
REMARK INTRA:                  -0.204
REMARK UNBOUND:                -0.194
REMARK  Name = ZINC000005497791
REMARK  4 active torsions:
REMARK  status: ('A' for Active; 'I' for Inactive)
REMARK    1  A    between atoms: C_1  and  O_2
REMARK    2  A    between atoms: O_2  and  C_3
REMARK    3  A    between atoms: C_3  and  C_5
REMARK    4  A    between atoms: C_16  and  C_17
REMARK                            x       y       z     vdW  Elec       q    Type
REMARK                         _______ _______ _______ _____ _____    ______ ____
ROOT
ATOM      1  C   UNL     1      -0.618   2.071 -21.891  0.00  0.00    +0.218 C 
ATOM      2  C   UNL     1      -1.101   2.227 -23.090  0.00  0.00    +0.076 C 
ATOM      3  C   UNL     1      -2.261   2.782 -23.257  0.00  0.00    -0.011 A 
ATOM      4  C   UNL     1      -2.945   3.184 -22.230  0.00  0.00    +0.064 A 
ATOM      5  C   UNL     1      -2.466   3.030 -21.028  0.00  0.00    +0.057 C 
ATOM      6  C   UNL     1      -3.150   3.431 -20.000  0.00  0.00    +0.067 C 
ATOM      7  N   UNL     1      -4.060   3.699 -22.661  0.00  0.00    -0.353 N 
ATOM      8  H   UNL     1      -4.773   4.084 -22.104  0.00  0.00    +0.166 HD
ATOM      9  C   UNL     1      -4.063   3.615 -23.957  0.00  0.00    +0.047 A 
ATOM     10  C   UNL     1      -4.934   3.981 -24.850  0.00  0.00    +0.026 A 
ATOM     11  C   UNL     1      -4.696   3.781 -26.112  0.00  0.00    +0.002 A 
ATOM     12  C   UNL     1      -3.585   3.215 -26.481  0.00  0.00    +0.001 A 
ATOM     13  C   UNL     1      -2.714   2.849 -25.590  0.00  0.00    +0.010 A 
ATOM     14  C   UNL     1      -2.952   3.049 -24.327  0.00  0.00    +0.004 A 
ATOM     15  N   UNL     1      -1.304   2.473 -20.863  0.00  0.00    -0.272 NA
ENDROOT
BRANCH   1  16
ATOM     16  C   UNL     1       0.544   1.515 -21.724  0.00  0.00    +0.332 C 
ATOM     17  O   UNL     1       1.006   1.323 -20.524  0.00  0.00    -0.248 OA
BRANCH  16  19
ATOM     18  C   UNL     1       2.438   0.659 -22.590  0.00  0.00    +0.280 C 
ATOM     19  O   UNL     1       1.245   1.151 -22.756  0.00  0.00    -0.466 OA
ENDBRANCH  16  19
ENDBRANCH   1  16
TORSDOF 2
ENDMDL
MODEL 3
REMARK VINA RESULT:    -8.396      1.969      3.039
REMARK INTER + INTRA:          -9.571
REMARK INTER:                  -9.516
REMARK INTRA:                  -0.056
REMARK UNBOUND:                -0.194
REMARK  Name = ZINC000005497791
REMARK  4 active torsions:
REMARK  status: ('A' for Active; 'I' for Inactive)
REMARK    1  A    between atoms: C_1  and  O_2
REMARK    2  A    between atoms: O_2  and  C_3
REMARK    3  A    between atoms: C_3  and  C_5
REMARK    4  A    between atoms: C_16  and  C_17
REMARK                            x       y       z     vdW  Elec       q    Type
REMARK                         _______ _______ _______ _____ _____    ______ ____
ROOT
ATOM      1  C   UNL     1       0.671   2.917 -24.048  0.00  0.00    +0.218 C 
ATOM      2  C   UNL     1      -0.477   3.348 -24.485  0.00  0.00    +0.076 C 
ATOM      3  C   UNL     1      -1.544   3.207 -23.762  0.00  0.00    -0.011 A 
ATOM      4  C   UNL     1      -1.472   2.636 -22.598  0.00  0.00    +0.064 A 
ATOM      5  C   UNL     1      -0.325   2.203 -22.156  0.00  0.00    +0.057 C 
ATOM      6  C   UNL     1      -0.252   1.631 -20.992  0.00  0.00    +0.067 C 
ATOM      7  N   UNL     1      -2.666   2.618 -22.080  0.00  0.00    -0.353 N 
ATOM      8  H   UNL     1      -2.911   2.246 -21.203  0.00  0.00    +0.166 HD
ATOM      9  C   UNL     1      -3.476   3.180 -22.926  0.00  0.00    +0.047 A 
ATOM     10  C   UNL     1      -4.755   3.407 -22.884  0.00  0.00    +0.026 A 
ATOM     11  C   UNL     1      -5.344   3.998 -23.881  0.00  0.00    +0.002 A 
ATOM     12  C   UNL     1      -4.652   4.362 -24.920  0.00  0.00    +0.001 A 
ATOM     13  C   UNL     1      -3.373   4.136 -24.963  0.00  0.00    +0.010 A 
ATOM     14  C   UNL     1      -2.785   3.545 -23.966  0.00  0.00    +0.004 A 
ATOM     15  N   UNL     1       0.742   2.345 -22.882  0.00  0.00    -0.272 NA
ENDROOT
BRANCH   1  16
ATOM     16  C   UNL     1       1.739   3.057 -24.772  0.00  0.00    +0.332 C 
ATOM     17  O   UNL     1       1.761   2.610 -25.992  0.00  0.00    -0.248 OA
BRANCH  16  19
ATOM     18  C   UNL     1       3.831   2.943 -23.945  0.00  0.00    +0.280 C 
ATOM     19  O   UNL     1       2.787   3.645 -24.277  0.00  0.00    -0.466 OA
ENDBRANCH  16  19
ENDBRANCH   1  16
TORSDOF 2
ENDMDL
MODEL 4
REMARK VINA RESULT:    -8.220      2.677      5.475
REMARK INTER + INTRA:          -9.375
REMARK INTER:                  -9.186
REMARK INTRA:                  -0.189
REMARK UNBOUND:                -0.194
REMARK  Name = ZINC000005497791
REMARK  4 active torsions:
REMARK  status: ('A' for Active; 'I' for Inactive)
REMARK    1  A    between atoms: C_1  and  O_2
REMARK    2  A    between atoms: O_2  and  C_3
REMARK    3  A    between atoms: C_3  and  C_5
REMARK    4  A    between atoms: C_16  and  C_17
REMARK                            x       y       z     vdW  Elec       q    Type
REMARK                         _______ _______ _______ _____ _____    ______ ____
ROOT
ATOM      1  C   UNL     1      -3.425   3.369 -22.919  0.00  0.00    +0.218 C 
ATOM      2  C   UNL     1      -2.145   3.226 -22.732  0.00  0.00    +0.076 C 
ATOM      3  C   UNL     1      -1.335   3.226 -23.744  0.00  0.00    -0.011 A 
ATOM      4  C   UNL     1      -1.798   3.368 -24.949  0.00  0.00    +0.064 A 
ATOM      5  C   UNL     1      -3.078   3.512 -25.141  0.00  0.00    +0.057 C 
ATOM      6  C   UNL     1      -3.542   3.655 -26.346  0.00  0.00    +0.067 C 
ATOM      7  N   UNL     1      -0.794   3.334 -25.776  0.00  0.00    -0.353 N 
ATOM      8  H   UNL     1      -0.846   3.418 -26.755  0.00  0.00    +0.166 HD
ATOM      9  C   UNL     1       0.291   3.170 -25.080  0.00  0.00    +0.047 A 
ATOM     10  C   UNL     1       1.540   3.073 -25.427  0.00  0.00    +0.026 A 
ATOM     11  C   UNL     1       2.456   2.909 -24.521  0.00  0.00    +0.002 A 
ATOM     12  C   UNL     1       2.123   2.842 -23.265  0.00  0.00    +0.001 A 
ATOM     13  C   UNL     1       0.875   2.939 -22.917  0.00  0.00    +0.010 A 
ATOM     14  C   UNL     1      -0.042   3.103 -23.825  0.00  0.00    +0.004 A 
ATOM     15  N   UNL     1      -3.888   3.512 -24.126  0.00  0.00    -0.272 NA
ENDROOT
BRANCH   1  16
ATOM     16  C   UNL     1      -4.237   3.369 -21.905  0.00  0.00    +0.332 C 
ATOM     17  O   UNL     1      -3.776   3.183 -20.704  0.00  0.00    -0.248 OA
BRANCH  16  19
ATOM     18  C   UNL     1      -6.363   2.662 -21.684  0.00  0.00    +0.280 C 
ATOM     19  O   UNL     1      -5.510   3.555 -22.092  0.00  0.00    -0.466 OA
ENDBRANCH  16  19
ENDBRANCH   1  16
TORSDOF 2
ENDMDL
MODEL 5
REMARK VINA RESULT:    -8.124      2.348      2.742
REMARK INTER + INTRA:          -9.268
REMARK INTER:                  -9.105
REMARK INTRA:                  -0.163
REMARK UNBOUND:                -0.194
REMARK  Name = ZINC000005497791
REMARK  4 active torsions:
REMARK  status: ('A' for Active; 'I' for Inactive)
REMARK    1  A    between atoms: C_1  and  O_2
REMARK    2  A    between atoms: O_2  and  C_3
REMARK    3  A    between atoms: C_3  and  C_5
REMARK    4  A    between atoms: C_16  and  C_17
REMARK                            x       y       z     vdW  Elec       q    Type
REMARK                         _______ _______ _______ _____ _____    ______ ____
ROOT
ATOM      1  C   UNL     1      -0.011   3.983 -24.423  0.00  0.00    +0.218 C 
ATOM      2  C   UNL     1      -0.604   3.869 -23.270  0.00  0.00    +0.076 C 
ATOM      3  C   UNL     1      -1.875   3.616 -23.213  0.00  0.00    -0.011 A 
ATOM      4  C   UNL     1      -2.561   3.475 -24.307  0.00  0.00    +0.064 A 
ATOM      5  C   UNL     1      -1.972   3.588 -25.463  0.00  0.00    +0.057 C 
ATOM      6  C   UNL     1      -2.657   3.448 -26.557  0.00  0.00    +0.067 C 
ATOM      7  N   UNL     1      -3.797   3.230 -23.982  0.00  0.00    -0.353 N 
ATOM      8  H   UNL     1      -4.541   3.080 -24.607  0.00  0.00    +0.166 HD
ATOM      9  C   UNL     1      -3.873   3.220 -22.685  0.00  0.00    +0.047 A 
ATOM     10  C   UNL     1      -4.871   3.024 -21.875  0.00  0.00    +0.026 A 
ATOM     11  C   UNL     1      -4.684   3.066 -20.589  0.00  0.00    +0.002 A 
ATOM     12  C   UNL     1      -3.497   3.304 -20.114  0.00  0.00    +0.001 A 
ATOM     13  C   UNL     1      -2.499   3.500 -20.923  0.00  0.00    +0.010 A 
ATOM     14  C   UNL     1      -2.687   3.458 -22.208  0.00  0.00    +0.004 A 
ATOM     15  N   UNL     1      -0.699   3.842 -25.518  0.00  0.00    -0.272 NA
ENDROOT
BRANCH   1  16
ATOM     16  C   UNL     1       1.261   4.236 -24.481  0.00  0.00    +0.332 C 
ATOM     17  O   UNL     1       1.728   5.338 -23.974  0.00  0.00    -0.248 OA
BRANCH  16  19
ATOM     18  C   UNL     1       2.369   2.275 -24.439  0.00  0.00    +0.280 C 
ATOM     19  O   UNL     1       2.068   3.387 -25.044  0.00  0.00    -0.466 OA
ENDBRANCH  16  19
ENDBRANCH   1  16
TORSDOF 2
ENDMDL
MODEL 6
REMARK VINA RESULT:    -7.963      3.114      5.782
REMARK INTER + INTRA:          -9.088
REMARK INTER:                  -8.957
REMARK INTRA:                  -0.131
REMARK UNBOUND:                -0.194
REMARK  Name = ZINC000005497791
REMARK  4 active torsions:
REMARK  status: ('A' for Active; 'I' for Inactive)
REMARK    1  A    between atoms: C_1  and  O_2
REMARK    2  A    between atoms: O_2  and  C_3
REMARK    3  A    between atoms: C_3  and  C_5
REMARK    4  A    between atoms: C_16  and  C_17
REMARK                            x       y       z     vdW  Elec       q    Type
REMARK                         _______ _______ _______ _____ _____    ______ ____
ROOT
ATOM      1  C   UNL     1      -3.144   3.376 -24.188  0.00  0.00    +0.218 C 
ATOM      2  C   UNL     1      -1.868   3.119 -24.221  0.00  0.00    +0.076 C 
ATOM      3  C   UNL     1      -1.272   2.645 -23.171  0.00  0.00    -0.011 A 
ATOM      4  C   UNL     1      -1.946   2.424 -22.083  0.00  0.00    +0.064 A 
ATOM      5  C   UNL     1      -3.223   2.680 -22.046  0.00  0.00    +0.057 C 
ATOM      6  C   UNL     1      -3.897   2.459 -20.958  0.00  0.00    +0.067 C 
ATOM      7  N   UNL     1      -1.127   1.955 -21.187  0.00  0.00    -0.353 N 
ATOM      8  H   UNL     1      -1.361   1.698 -20.267  0.00  0.00    +0.166 HD
ATOM      9  C   UNL     1       0.053   1.885 -21.724  0.00  0.00    +0.047 A 
ATOM     10  C   UNL     1       1.200   1.489 -21.255  0.00  0.00    +0.026 A 
ATOM     11  C   UNL     1       2.257   1.518 -22.009  0.00  0.00    +0.002 A 
ATOM     12  C   UNL     1       2.169   1.945 -23.235  0.00  0.00    +0.001 A 
ATOM     13  C   UNL     1       1.024   2.341 -23.705  0.00  0.00    +0.010 A 
ATOM     14  C   UNL     1      -0.034   2.312 -22.949  0.00  0.00    +0.004 A 
ATOM     15  N   UNL     1      -3.818   3.155 -23.098  0.00  0.00    -0.272 NA
ENDROOT
BRANCH   1  16
ATOM     16  C   UNL     1      -3.741   3.851 -25.239  0.00  0.00    +0.332 C 
ATOM     17  O   UNL     1      -4.161   5.081 -25.248  0.00  0.00    -0.248 OA
BRANCH  16  19
ATOM     18  C   UNL     1      -3.372   3.417 -27.418  0.00  0.00    +0.280 C 
ATOM     19  O   UNL     1      -3.919   3.096 -26.282  0.00  0.00    -0.466 OA
ENDBRANCH  16  19
ENDBRANCH   1  16
TORSDOF 2
ENDMDL
MODEL 7
REMARK VINA RESULT:    -7.946      2.221      5.347
REMARK INTER + INTRA:          -9.069
REMARK INTER:                  -8.971
REMARK INTRA:                  -0.098
REMARK UNBOUND:                -0.194
REMARK  Name = ZINC000005497791
REMARK  4 active torsions:
REMARK  status: ('A' for Active; 'I' for Inactive)
REMARK    1  A    between atoms: C_1  and  O_2
REMARK    2  A    between atoms: O_2  and  C_3
REMARK    3  A    between atoms: C_3  and  C_5
REMARK    4  A    between atoms: C_16  and  C_17
REMARK                            x       y       z     vdW  Elec       q    Type
REMARK                         _______ _______ _______ _____ _____    ______ ____
ROOT
ATOM      1  C   UNL     1      -2.449   3.077 -22.138  0.00  0.00    +0.218 C 
ATOM      2  C   UNL     1      -1.308   2.587 -21.747  0.00  0.00    +0.076 C 
ATOM      3  C   UNL     1      -0.341   2.428 -22.597  0.00  0.00    -0.011 A 
ATOM      4  C   UNL     1      -0.508   2.758 -23.842  0.00  0.00    +0.064 A 
ATOM      5  C   UNL     1      -1.649   3.248 -24.238  0.00  0.00    +0.057 C 
ATOM      6  C   UNL     1      -1.816   3.578 -25.483  0.00  0.00    +0.067 C 
ATOM      7  N   UNL     1       0.597   2.504 -24.481  0.00  0.00    -0.353 N 
ATOM      8  H   UNL     1       0.759   2.654 -25.439  0.00  0.00    +0.166 HD
ATOM      9  C   UNL     1       1.447   2.017 -23.628  0.00  0.00    +0.047 A 
ATOM     10  C   UNL     1       2.675   1.610 -23.760  0.00  0.00    +0.026 A 
ATOM     11  C   UNL     1       3.325   1.156 -22.731  0.00  0.00    +0.002 A 
ATOM     12  C   UNL     1       2.746   1.109 -21.567  0.00  0.00    +0.001 A 
ATOM     13  C   UNL     1       1.519   1.516 -21.433  0.00  0.00    +0.010 A 
ATOM     14  C   UNL     1       0.869   1.970 -22.464  0.00  0.00    +0.004 A 
ATOM     15  N   UNL     1      -2.615   3.406 -23.385  0.00  0.00    -0.272 NA
ENDROOT
BRANCH   1  16
ATOM     16  C   UNL     1      -3.416   3.235 -21.287  0.00  0.00    +0.332 C 
ATOM     17  O   UNL     1      -3.315   4.127 -20.346  0.00  0.00    -0.248 OA
BRANCH  16  19
ATOM     18  C   UNL     1      -5.595   3.022 -21.814  0.00  0.00    +0.280 C 
ATOM     19  O   UNL     1      -4.486   2.502 -21.375  0.00  0.00    -0.466 OA
ENDBRANCH  16  19
ENDBRANCH   1  16
TORSDOF 2
ENDMDL
MODEL 8
REMARK VINA RESULT:    -7.351      2.192      5.783
REMARK INTER + INTRA:          -8.404
REMARK INTER:                  -8.202
REMARK INTRA:                  -0.202
REMARK UNBOUND:                -0.194
REMARK  Name = ZINC000005497791
REMARK  4 active torsions:
REMARK  status: ('A' for Active; 'I' for Inactive)
REMARK    1  A    between atoms: C_1  and  O_2
REMARK    2  A    between atoms: O_2  and  C_3
REMARK    3  A    between atoms: C_3  and  C_5
REMARK    4  A    between atoms: C_16  and  C_17
REMARK                            x       y       z     vdW  Elec       q    Type
REMARK                         _______ _______ _______ _____ _____    ______ ____
ROOT
ATOM      1  C   UNL     1      -0.849   2.809 -22.739  0.00  0.00    +0.218 C 
ATOM      2  C   UNL     1       0.116   2.192 -22.120  0.00  0.00    +0.076 C 
ATOM      3  C   UNL     1       1.310   2.180 -22.625  0.00  0.00    -0.011 A 
ATOM      4  C   UNL     1       1.549   2.783 -23.749  0.00  0.00    +0.064 A 
ATOM      5  C   UNL     1       0.586   3.402 -24.373  0.00  0.00    +0.057 C 
ATOM      6  C   UNL     1       0.824   4.006 -25.498  0.00  0.00    +0.067 C 
ATOM      7  N   UNL     1       2.809   2.625 -24.036  0.00  0.00    -0.353 N 
ATOM      8  H   UNL     1       3.270   2.976 -24.831  0.00  0.00    +0.166 HD
ATOM      9  C   UNL     1       3.348   1.923 -23.085  0.00  0.00    +0.047 A 
ATOM     10  C   UNL     1       4.563   1.498 -22.901  0.00  0.00    +0.026 A 
ATOM     11  C   UNL     1       4.854   0.798 -21.845  0.00  0.00    +0.002 A 
ATOM     12  C   UNL     1       3.930   0.523 -20.973  0.00  0.00    +0.001 A 
ATOM     13  C   UNL     1       2.715   0.947 -21.157  0.00  0.00    +0.010 A 
ATOM     14  C   UNL     1       2.424   1.647 -22.213  0.00  0.00    +0.004 A 
ATOM     15  N   UNL     1      -0.609   3.413 -23.865  0.00  0.00    -0.272 NA
ENDROOT
BRANCH   1  16
ATOM     16  C   UNL     1      -2.045   2.821 -22.234  0.00  0.00    +0.332 C 
ATOM     17  O   UNL     1      -3.080   2.681 -23.009  0.00  0.00    -0.248 OA
BRANCH  16  19
ATOM     18  C   UNL     1      -3.134   3.771 -20.507  0.00  0.00    +0.280 C 
ATOM     19  O   UNL     1      -2.209   2.973 -20.954  0.00  0.00    -0.466 OA
ENDBRANCH  16  19
ENDBRANCH   1  16
TORSDOF 2
ENDMDL
MODEL 9
REMARK VINA RESULT:    -7.289      3.066      4.556
REMARK INTER + INTRA:          -8.335
REMARK INTER:                  -8.141
REMARK INTRA:                  -0.194
REMARK UNBOUND:                -0.194
REMARK  Name = ZINC000005497791
REMARK  4 active torsions:
REMARK  status: ('A' for Active; 'I' for Inactive)
REMARK    1  A    between atoms: C_1  and  O_2
REMARK    2  A    between atoms: O_2  and  C_3
REMARK    3  A    between atoms: C_3  and  C_5
REMARK    4  A    between atoms: C_16  and  C_17
REMARK                            x       y       z     vdW  Elec       q    Type
REMARK                         _______ _______ _______ _____ _____    ______ ____
ROOT
ATOM      1  C   UNL     1       3.996   3.592 -22.935  0.00  0.00    +0.218 C 
ATOM      2  C   UNL     1       2.840   4.149 -23.152  0.00  0.00    +0.076 C 
ATOM      3  C   UNL     1       1.749   3.462 -23.008  0.00  0.00    -0.011 A 
ATOM      4  C   UNL     1       1.806   2.216 -22.647  0.00  0.00    +0.064 A 
ATOM      5  C   UNL     1       2.961   1.655 -22.429  0.00  0.00    +0.057 C 
ATOM      6  C   UNL     1       3.019   0.408 -22.068  0.00  0.00    +0.067 C 
ATOM      7  N   UNL     1       0.590   1.759 -22.576  0.00  0.00    -0.353 N 
ATOM      8  H   UNL     1       0.329   0.844 -22.325  0.00  0.00    +0.166 HD
ATOM      9  C   UNL     1      -0.219   2.724 -22.893  0.00  0.00    +0.047 A 
ATOM     10  C   UNL     1      -1.515   2.782 -22.974  0.00  0.00    +0.026 A 
ATOM     11  C   UNL     1      -2.098   3.890 -23.321  0.00  0.00    +0.002 A 
ATOM     12  C   UNL     1      -1.382   4.943 -23.589  0.00  0.00    +0.001 A 
ATOM     13  C   UNL     1      -0.086   4.887 -23.509  0.00  0.00    +0.010 A 
ATOM     14  C   UNL     1       0.496   3.778 -23.161  0.00  0.00    +0.004 A 
ATOM     15  N   UNL     1       4.052   2.344 -22.573  0.00  0.00    -0.272 NA
ENDROOT
BRANCH   1  16
ATOM     16  C   UNL     1       5.088   4.279 -23.078  0.00  0.00    +0.332 C 
ATOM     17  O   UNL     1       6.081   3.787 -23.759  0.00  0.00    -0.248 OA
BRANCH  16  19
ATOM     18  C   UNL     1       6.350   5.897 -22.151  0.00  0.00    +0.280 C 
ATOM     19  O   UNL     1       5.190   5.458 -22.542  0.00  0.00    -0.466 OA
ENDBRANCH  16  19
ENDBRANCH   1  16
TORSDOF 2
ENDMDL
