MODEL 1
REMARK VINA RESULT:    -9.780      0.000      0.000
REMARK INTER + INTRA:          -9.780
REMARK INTER:                  -9.780
REMARK INTRA:                   0.000
REMARK UNBOUND:                 0.000
REMARK  Name = ZINC000004104810
REMARK  3 active torsions:
REMARK  status: ('A' for Active; 'I' for Inactive)
REMARK    1  A    between atoms: C_1  and  C_2
REMARK    2  A    between atoms: C_6  and  C_7
REMARK    3  A    between atoms: C_14  and  C_15
REMARK                            x       y       z     vdW  Elec       q    Type
REMARK                         _______ _______ _______ _____ _____    ______ ____
ROOT
ATOM      1  C   UNL     1      -3.249   3.763 -27.080  0.00  0.00    +0.007 C 
ATOM      2  C   UNL     1      -3.450   3.595 -25.806  0.00  0.00    -0.014 C 
ATOM      3  C   UNL     1      -4.639   3.759 -25.308  0.00  0.00    +0.003 C 
ATOM      4  C   UNL     1      -4.839   3.591 -24.035  0.00  0.00    +0.003 C 
ATOM      5  C   UNL     1      -3.850   3.259 -23.259  0.00  0.00    +0.037 C 
ATOM      6  C   UNL     1      -4.050   3.092 -21.986  0.00  0.00    +0.097 C 
ATOM      7  O   UNL     1      -4.250   2.924 -20.712  0.00  0.00    -0.361 OA
ATOM      8  C   UNL     1      -5.308   3.378 -22.146  0.00  0.00    +0.044 C 
ATOM      9  C   UNL     1      -3.061   2.760 -21.211  0.00  0.00    +0.191 C 
ATOM     10  C   UNL     1      -1.871   2.596 -21.709  0.00  0.00    +0.212 C 
ATOM     11  O   UNL     1      -0.737   2.272 -21.163  0.00  0.00    -0.458 OA
ATOM     12  C   UNL     1       0.164   2.240 -22.099  0.00  0.00    +0.311 C 
ATOM     13  C   UNL     1      -0.413   2.544 -23.224  0.00  0.00    +0.101 C 
ATOM     14  C   UNL     1       0.166   2.615 -24.386  0.00  0.00    +0.019 C 
ATOM     15  O   UNL     1       1.422   1.954 -21.939  0.00  0.00    -0.251 OA
ATOM     16  C   UNL     1      -1.671   2.764 -22.982  0.00  0.00    +0.046 C 
ATOM     17  C   UNL     1      -2.660   3.095 -23.757  0.00  0.00    +0.008 C 
ATOM     18  C   UNL     1      -2.460   3.263 -25.031  0.00  0.00    +0.004 C 
ENDROOT
TORSDOF 0
ENDMDL
MODEL 2
REMARK VINA RESULT:    -9.748      1.930      3.500
REMARK INTER + INTRA:          -9.748
REMARK INTER:                  -9.748
REMARK INTRA:                   0.000
REMARK UNBOUND:                 0.000
REMARK  Name = ZINC000004104810
REMARK  3 active torsions:
REMARK  status: ('A' for Active; 'I' for Inactive)
REMARK    1  A    between atoms: C_1  and  C_2
REMARK    2  A    between atoms: C_6  and  C_7
REMARK    3  A    between atoms: C_14  and  C_15
REMARK                            x       y       z     vdW  Elec       q    Type
REMARK                         _______ _______ _______ _____ _____    ______ ____
ROOT
ATOM      1  C   UNL     1      -4.089   2.239 -19.988  0.00  0.00    +0.007 C 
ATOM      2  C   UNL     1      -4.059   2.695 -21.205  0.00  0.00    -0.014 C 
ATOM      3  C   UNL     1      -5.142   3.162 -21.752  0.00  0.00    +0.003 C 
ATOM      4  C   UNL     1      -5.112   3.618 -22.969  0.00  0.00    +0.003 C 
ATOM      5  C   UNL     1      -3.998   3.607 -23.640  0.00  0.00    +0.037 C 
ATOM      6  C   UNL     1      -3.968   4.063 -24.856  0.00  0.00    +0.097 C 
ATOM      7  O   UNL     1      -3.937   4.519 -26.073  0.00  0.00    -0.361 OA
ATOM      8  C   UNL     1      -5.236   4.339 -24.785  0.00  0.00    +0.044 C 
ATOM      9  C   UNL     1      -2.854   4.053 -25.527  0.00  0.00    +0.191 C 
ATOM     10  C   UNL     1      -1.771   3.586 -24.980  0.00  0.00    +0.212 C 
ATOM     11  O   UNL     1      -0.555   3.465 -25.424  0.00  0.00    -0.458 OA
ATOM     12  C   UNL     1       0.166   2.934 -24.481  0.00  0.00    +0.311 C 
ATOM     13  C   UNL     1      -0.605   2.727 -23.455  0.00  0.00    +0.101 C 
ATOM     14  C   UNL     1      -0.242   2.208 -22.319  0.00  0.00    +0.019 C 
ATOM     15  O   UNL     1       1.434   2.658 -24.553  0.00  0.00    -0.251 OA
ATOM     16  C   UNL     1      -1.801   3.130 -23.763  0.00  0.00    +0.046 C 
ATOM     17  C   UNL     1      -2.915   3.140 -23.093  0.00  0.00    +0.008 C 
ATOM     18  C   UNL     1      -2.946   2.684 -21.875  0.00  0.00    +0.004 C 
ENDROOT
TORSDOF 0
ENDMDL
MODEL 3
REMARK VINA RESULT:    -9.619      2.134      4.981
REMARK INTER + INTRA:          -9.619
REMARK INTER:                  -9.619
REMARK INTRA:                   0.000
REMARK UNBOUND:                 0.000
REMARK  Name = ZINC000004104810
REMARK  3 active torsions:
REMARK  status: ('A' for Active; 'I' for Inactive)
REMARK    1  A    between atoms: C_1  and  C_2
REMARK    2  A    between atoms: C_6  and  C_7
REMARK    3  A    between atoms: C_14  and  C_15
REMARK                            x       y       z     vdW  Elec       q    Type
REMARK                         _______ _______ _______ _____ _____    ______ ____
ROOT
ATOM      1  C   UNL     1       0.418   1.499 -20.664  0.00  0.00    +0.007 C 
ATOM      2  C   UNL     1      -0.137   1.983 -21.735  0.00  0.00    -0.014 C 
ATOM      3  C   UNL     1       0.581   2.204 -22.796  0.00  0.00    +0.003 C 
ATOM      4  C   UNL     1       0.026   2.688 -23.867  0.00  0.00    +0.003 C 
ATOM      5  C   UNL     1      -1.248   2.950 -23.878  0.00  0.00    +0.037 C 
ATOM      6  C   UNL     1      -1.803   3.434 -24.949  0.00  0.00    +0.097 C 
ATOM      7  O   UNL     1      -2.358   3.917 -26.021  0.00  0.00    -0.361 OA
ATOM      8  C   UNL     1      -0.654   3.410 -25.556  0.00  0.00    +0.044 C 
ATOM      9  C   UNL     1      -3.076   3.696 -24.960  0.00  0.00    +0.191 C 
ATOM     10  C   UNL     1      -3.794   3.474 -23.899  0.00  0.00    +0.212 C 
ATOM     11  O   UNL     1      -5.059   3.646 -23.653  0.00  0.00    -0.458 OA
ATOM     12  C   UNL     1      -5.285   3.269 -22.430  0.00  0.00    +0.311 C 
ATOM     13  C   UNL     1      -4.160   2.864 -21.920  0.00  0.00    +0.101 C 
ATOM     14  C   UNL     1      -3.987   2.411 -20.713  0.00  0.00    +0.019 C 
ATOM     15  O   UNL     1      -6.435   3.293 -21.823  0.00  0.00    -0.251 OA
ATOM     16  C   UNL     1      -3.239   2.991 -22.827  0.00  0.00    +0.046 C 
ATOM     17  C   UNL     1      -1.966   2.729 -22.817  0.00  0.00    +0.008 C 
ATOM     18  C   UNL     1      -1.410   2.245 -21.745  0.00  0.00    +0.004 C 
ENDROOT
TORSDOF 0
ENDMDL
MODEL 4
REMARK VINA RESULT:    -9.178      2.246      4.400
REMARK INTER + INTRA:          -9.178
REMARK INTER:                  -9.178
REMARK INTRA:                   0.000
REMARK UNBOUND:                 0.000
REMARK  Name = ZINC000004104810
REMARK  3 active torsions:
REMARK  status: ('A' for Active; 'I' for Inactive)
REMARK    1  A    between atoms: C_1  and  C_2
REMARK    2  A    between atoms: C_6  and  C_7
REMARK    3  A    between atoms: C_14  and  C_15
REMARK                            x       y       z     vdW  Elec       q    Type
REMARK                         _______ _______ _______ _____ _____    ______ ____
ROOT
ATOM      1  C   UNL     1      -6.218   2.850 -21.408  0.00  0.00    +0.007 C 
ATOM      2  C   UNL     1      -4.956   2.827 -21.715  0.00  0.00    -0.014 C 
ATOM      3  C   UNL     1      -4.065   2.618 -20.792  0.00  0.00    +0.003 C 
ATOM      4  C   UNL     1      -2.802   2.595 -21.099  0.00  0.00    +0.003 C 
ATOM      5  C   UNL     1      -2.430   2.781 -22.331  0.00  0.00    +0.037 C 
ATOM      6  C   UNL     1      -1.167   2.758 -22.638  0.00  0.00    +0.097 C 
ATOM      7  O   UNL     1       0.096   2.735 -22.946  0.00  0.00    -0.361 OA
ATOM      8  C   UNL     1      -0.868   2.530 -21.394  0.00  0.00    +0.044 C 
ATOM      9  C   UNL     1      -0.795   2.944 -23.870  0.00  0.00    +0.191 C 
ATOM     10  C   UNL     1      -1.685   3.153 -24.794  0.00  0.00    +0.212 C 
ATOM     11  O   UNL     1      -1.579   3.362 -26.072  0.00  0.00    -0.458 OA
ATOM     12  C   UNL     1      -2.777   3.515 -26.555  0.00  0.00    +0.311 C 
ATOM     13  C   UNL     1      -3.623   3.400 -25.574  0.00  0.00    +0.101 C 
ATOM     14  C   UNL     1      -4.916   3.492 -25.666  0.00  0.00    +0.019 C 
ATOM     15  O   UNL     1      -3.076   3.743 -27.799  0.00  0.00    -0.251 OA
ATOM     16  C   UNL     1      -2.948   3.176 -24.486  0.00  0.00    +0.046 C 
ATOM     17  C   UNL     1      -3.320   2.990 -23.255  0.00  0.00    +0.008 C 
ATOM     18  C   UNL     1      -4.583   3.013 -22.947  0.00  0.00    +0.004 C 
ENDROOT
TORSDOF 0
ENDMDL
MODEL 5
REMARK VINA RESULT:    -9.071      2.384      4.133
REMARK INTER + INTRA:          -9.071
REMARK INTER:                  -9.071
REMARK INTRA:                   0.000
REMARK UNBOUND:                 0.000
REMARK  Name = ZINC000004104810
REMARK  3 active torsions:
REMARK  status: ('A' for Active; 'I' for Inactive)
REMARK    1  A    between atoms: C_1  and  C_2
REMARK    2  A    between atoms: C_6  and  C_7
REMARK    3  A    between atoms: C_14  and  C_15
REMARK                            x       y       z     vdW  Elec       q    Type
REMARK                         _______ _______ _______ _____ _____    ______ ____
ROOT
ATOM      1  C   UNL     1       0.419   2.007 -22.096  0.00  0.00    +0.007 C 
ATOM      2  C   UNL     1      -0.843   2.319 -22.083  0.00  0.00    -0.014 C 
ATOM      3  C   UNL     1      -1.528   2.212 -20.984  0.00  0.00    +0.003 C 
ATOM      4  C   UNL     1      -2.790   2.525 -20.971  0.00  0.00    +0.003 C 
ATOM      5  C   UNL     1      -3.367   2.945 -22.059  0.00  0.00    +0.037 C 
ATOM      6  C   UNL     1      -4.628   3.258 -22.046  0.00  0.00    +0.097 C 
ATOM      7  O   UNL     1      -5.890   3.570 -22.033  0.00  0.00    -0.361 OA
ATOM      8  C   UNL     1      -4.691   2.954 -20.784  0.00  0.00    +0.044 C 
ATOM      9  C   UNL     1      -5.204   3.677 -23.133  0.00  0.00    +0.191 C 
ATOM     10  C   UNL     1      -4.519   3.785 -24.232  0.00  0.00    +0.212 C 
ATOM     11  O   UNL     1      -4.849   4.171 -25.429  0.00  0.00    -0.458 OA
ATOM     12  C   UNL     1      -3.791   4.096 -26.181  0.00  0.00    +0.311 C 
ATOM     13  C   UNL     1      -2.807   3.664 -25.449  0.00  0.00    +0.101 C 
ATOM     14  C   UNL     1      -1.588   3.461 -25.851  0.00  0.00    +0.019 C 
ATOM     15  O   UNL     1      -3.728   4.400 -27.443  0.00  0.00    -0.251 OA
ATOM     16  C   UNL     1      -3.257   3.472 -24.245  0.00  0.00    +0.046 C 
ATOM     17  C   UNL     1      -2.681   3.052 -23.158  0.00  0.00    +0.008 C 
ATOM     18  C   UNL     1      -1.419   2.739 -23.170  0.00  0.00    +0.004 C 
ENDROOT
TORSDOF 0
ENDMDL
MODEL 6
REMARK VINA RESULT:    -8.994      1.955      3.570
REMARK INTER + INTRA:          -8.994
REMARK INTER:                  -8.994
REMARK INTRA:                   0.000
REMARK UNBOUND:                 0.000
REMARK  Name = ZINC000004104810
REMARK  3 active torsions:
REMARK  status: ('A' for Active; 'I' for Inactive)
REMARK    1  A    between atoms: C_1  and  C_2
REMARK    2  A    between atoms: C_6  and  C_7
REMARK    3  A    between atoms: C_14  and  C_15
REMARK                            x       y       z     vdW  Elec       q    Type
REMARK                         _______ _______ _______ _____ _____    ______ ____
ROOT
ATOM      1  C   UNL     1      -4.322   2.390 -20.715  0.00  0.00    +0.007 C 
ATOM      2  C   UNL     1      -3.609   2.645 -21.771  0.00  0.00    -0.014 C 
ATOM      3  C   UNL     1      -4.167   3.171 -22.821  0.00  0.00    +0.003 C 
ATOM      4  C   UNL     1      -3.453   3.426 -23.877  0.00  0.00    +0.003 C 
ATOM      5  C   UNL     1      -2.181   3.156 -23.884  0.00  0.00    +0.037 C 
ATOM      6  C   UNL     1      -1.468   3.411 -24.940  0.00  0.00    +0.097 C 
ATOM      7  O   UNL     1      -0.754   3.666 -25.996  0.00  0.00    -0.361 OA
ATOM      8  C   UNL     1      -2.524   3.871 -25.542  0.00  0.00    +0.044 C 
ATOM      9  C   UNL     1      -0.197   3.140 -24.946  0.00  0.00    +0.191 C 
ATOM     10  C   UNL     1       0.361   2.614 -23.896  0.00  0.00    +0.212 C 
ATOM     11  O   UNL     1       1.586   2.255 -23.650  0.00  0.00    -0.458 OA
ATOM     12  C   UNL     1       1.629   1.778 -22.441  0.00  0.00    +0.311 C 
ATOM     13  C   UNL     1       0.431   1.842 -21.941  0.00  0.00    +0.101 C 
ATOM     14  C   UNL     1       0.079   1.457 -20.750  0.00  0.00    +0.019 C 
ATOM     15  O   UNL     1       2.685   1.318 -21.839  0.00  0.00    -0.251 OA
ATOM     16  C   UNL     1      -0.352   2.359 -22.840  0.00  0.00    +0.046 C 
ATOM     17  C   UNL     1      -1.624   2.629 -22.834  0.00  0.00    +0.008 C 
ATOM     18  C   UNL     1      -2.338   2.374 -21.777  0.00  0.00    +0.004 C 
ENDROOT
TORSDOF 0
ENDMDL
MODEL 7
REMARK VINA RESULT:    -8.624      1.458      4.414
REMARK INTER + INTRA:          -8.624
REMARK INTER:                  -8.624
REMARK INTRA:                   0.000
REMARK UNBOUND:                 0.000
REMARK  Name = ZINC000004104810
REMARK  3 active torsions:
REMARK  status: ('A' for Active; 'I' for Inactive)
REMARK    1  A    between atoms: C_1  and  C_2
REMARK    2  A    between atoms: C_6  and  C_7
REMARK    3  A    between atoms: C_14  and  C_15
REMARK                            x       y       z     vdW  Elec       q    Type
REMARK                         _______ _______ _______ _____ _____    ______ ____
ROOT
ATOM      1  C   UNL     1       1.191   4.475 -26.056  0.00  0.00    +0.007 C 
ATOM      2  C   UNL     1       1.002   3.793 -24.966  0.00  0.00    -0.014 C 
ATOM      3  C   UNL     1       2.005   3.207 -24.383  0.00  0.00    +0.003 C 
ATOM      4  C   UNL     1       1.816   2.524 -23.294  0.00  0.00    +0.003 C 
ATOM      5  C   UNL     1       0.623   2.427 -22.786  0.00  0.00    +0.037 C 
ATOM      6  C   UNL     1       0.434   1.744 -21.696  0.00  0.00    +0.097 C 
ATOM      7  O   UNL     1       0.245   1.062 -20.606  0.00  0.00    -0.361 OA
ATOM      8  C   UNL     1       1.702   1.462 -21.653  0.00  0.00    +0.044 C 
ATOM      9  C   UNL     1      -0.759   1.647 -21.189  0.00  0.00    +0.191 C 
ATOM     10  C   UNL     1      -1.762   2.233 -21.772  0.00  0.00    +0.212 C 
ATOM     11  O   UNL     1      -3.027   2.291 -21.476  0.00  0.00    -0.458 OA
ATOM     12  C   UNL     1      -3.619   3.009 -22.383  0.00  0.00    +0.311 C 
ATOM     13  C   UNL     1      -2.721   3.396 -23.240  0.00  0.00    +0.101 C 
ATOM     14  C   UNL     1      -2.933   4.132 -24.290  0.00  0.00    +0.019 C 
ATOM     15  O   UNL     1      -4.887   3.291 -22.427  0.00  0.00    -0.251 OA
ATOM     16  C   UNL     1      -1.573   2.916 -22.861  0.00  0.00    +0.046 C 
ATOM     17  C   UNL     1      -0.381   3.013 -23.369  0.00  0.00    +0.008 C 
ATOM     18  C   UNL     1      -0.191   3.696 -24.459  0.00  0.00    +0.004 C 
ENDROOT
TORSDOF 0
ENDMDL
MODEL 8
REMARK VINA RESULT:    -8.114      2.943      5.762
REMARK INTER + INTRA:          -8.114
REMARK INTER:                  -8.114
REMARK INTRA:                   0.000
REMARK UNBOUND:                 0.000
REMARK  Name = ZINC000004104810
REMARK  3 active torsions:
REMARK  status: ('A' for Active; 'I' for Inactive)
REMARK    1  A    between atoms: C_1  and  C_2
REMARK    2  A    between atoms: C_6  and  C_7
REMARK    3  A    between atoms: C_14  and  C_15
REMARK                            x       y       z     vdW  Elec       q    Type
REMARK                         _______ _______ _______ _____ _____    ______ ____
ROOT
ATOM      1  C   UNL     1       5.268   3.703 -23.638  0.00  0.00    +0.007 C 
ATOM      2  C   UNL     1       4.225   3.185 -23.060  0.00  0.00    -0.014 C 
ATOM      3  C   UNL     1       4.352   2.564 -21.925  0.00  0.00    +0.003 C 
ATOM      4  C   UNL     1       3.309   2.046 -21.347  0.00  0.00    +0.003 C 
ATOM      5  C   UNL     1       2.139   2.150 -21.903  0.00  0.00    +0.037 C 
ATOM      6  C   UNL     1       1.096   1.633 -21.325  0.00  0.00    +0.097 C 
ATOM      7  O   UNL     1       0.053   1.115 -20.747  0.00  0.00    -0.361 OA
ATOM      8  C   UNL     1       1.845   1.214 -20.349  0.00  0.00    +0.044 C 
ATOM      9  C   UNL     1      -0.074   1.737 -21.882  0.00  0.00    +0.191 C 
ATOM     10  C   UNL     1      -0.201   2.358 -23.017  0.00  0.00    +0.212 C 
ATOM     11  O   UNL     1      -1.236   2.596 -23.767  0.00  0.00    -0.458 OA
ATOM     12  C   UNL     1      -0.832   3.261 -24.808  0.00  0.00    +0.311 C 
ATOM     13  C   UNL     1       0.452   3.434 -24.702  0.00  0.00    +0.101 C 
ATOM     14  C   UNL     1       1.213   4.055 -25.554  0.00  0.00    +0.019 C 
ATOM     15  O   UNL     1      -1.581   3.680 -25.785  0.00  0.00    -0.251 OA
ATOM     16  C   UNL     1       0.842   2.876 -23.595  0.00  0.00    +0.046 C 
ATOM     17  C   UNL     1       2.012   2.772 -23.038  0.00  0.00    +0.008 C 
ATOM     18  C   UNL     1       3.055   3.289 -23.616  0.00  0.00    +0.004 C 
ENDROOT
TORSDOF 0
ENDMDL
MODEL 9
REMARK VINA RESULT:    -8.094      1.707      4.181
REMARK INTER + INTRA:          -8.094
REMARK INTER:                  -8.094
REMARK INTRA:                   0.000
REMARK UNBOUND:                 0.000
REMARK  Name = ZINC000004104810
REMARK  3 active torsions:
REMARK  status: ('A' for Active; 'I' for Inactive)
REMARK    1  A    between atoms: C_1  and  C_2
REMARK    2  A    between atoms: C_6  and  C_7
REMARK    3  A    between atoms: C_14  and  C_15
REMARK                            x       y       z     vdW  Elec       q    Type
REMARK                         _______ _______ _______ _____ _____    ______ ____
ROOT
ATOM      1  C   UNL     1       1.609   2.750 -25.503  0.00  0.00    +0.007 C 
ATOM      2  C   UNL     1       0.717   2.717 -24.558  0.00  0.00    -0.014 C 
ATOM      3  C   UNL     1       1.064   2.395 -23.348  0.00  0.00    +0.003 C 
ATOM      4  C   UNL     1       0.172   2.362 -22.403  0.00  0.00    +0.003 C 
ATOM      5  C   UNL     1      -1.068   2.651 -22.668  0.00  0.00    +0.037 C 
ATOM      6  C   UNL     1      -1.960   2.618 -21.723  0.00  0.00    +0.097 C 
ATOM      7  O   UNL     1      -2.852   2.585 -20.778  0.00  0.00    -0.361 OA
ATOM      8  C   UNL     1      -1.044   2.266 -20.871  0.00  0.00    +0.044 C 
ATOM      9  C   UNL     1      -3.199   2.907 -21.989  0.00  0.00    +0.191 C 
ATOM     10  C   UNL     1      -3.546   3.229 -23.200  0.00  0.00    +0.212 C 
ATOM     11  O   UNL     1      -4.693   3.554 -23.718  0.00  0.00    -0.458 OA
ATOM     12  C   UNL     1      -4.509   3.788 -24.984  0.00  0.00    +0.311 C 
ATOM     13  C   UNL     1      -3.249   3.607 -25.247  0.00  0.00    +0.101 C 
ATOM     14  C   UNL     1      -2.684   3.748 -26.409  0.00  0.00    +0.019 C 
ATOM     15  O   UNL     1      -5.425   4.140 -25.836  0.00  0.00    -0.251 OA
ATOM     16  C   UNL     1      -2.654   3.262 -24.145  0.00  0.00    +0.046 C 
ATOM     17  C   UNL     1      -1.415   2.973 -23.879  0.00  0.00    +0.008 C 
ATOM     18  C   UNL     1      -0.522   3.006 -24.824  0.00  0.00    +0.004 C 
ENDROOT
TORSDOF 0
ENDMDL
