MODEL 1
REMARK VINA RESULT:    -9.319      0.000      0.000
REMARK INTER + INTRA:         -13.416
REMARK INTER:                 -12.786
REMARK INTRA:                  -0.630
REMARK UNBOUND:                -0.829
REMARK  Name = C=C[C@@H]1CN2CC[C@H]1C[C@@H]2[C@@H](OC(=O)c1ccccc1)c1ccnc2ccccc12    ZINC000138747593
REMARK  6 active torsions:
REMARK  status: ('A' for Active; 'I' for Inactive)
REMARK    1  A    between atoms: C_2  and  C_3
REMARK    2  A    between atoms: C_10  and  C_11
REMARK    3  A    between atoms: C_11  and  O_12
REMARK    4  A    between atoms: C_11  and  C_21
REMARK    5  A    between atoms: O_12  and  C_13
REMARK    6  A    between atoms: C_13  and  C_15
REMARK                            x       y       z     vdW  Elec       q    Type
REMARK                         _______ _______ _______ _____ _____    ______ ____
ROOT
ATOM      1  C   UNL     1      -1.006   2.677 -23.832  0.00  0.00    +0.255 C 
ENDROOT
BRANCH   1   2
ATOM      2  C   UNL     1      -2.105   3.074 -24.454  0.00  0.00    +0.009 A 
ATOM      3  C   UNL     1      -2.081   3.311 -25.750  0.00  0.00    +0.028 A 
ATOM      4  C   UNL     1      -3.177   3.707 -26.372  0.00  0.00    +0.112 A 
ATOM      5  N   UNL     1      -4.297   3.865 -25.690  0.00  0.00    -0.255 NA
ATOM      6  C   UNL     1      -4.322   3.628 -24.394  0.00  0.00    +0.071 A 
ATOM      7  C   UNL     1      -5.442   3.785 -23.712  0.00  0.00    +0.028 A 
ATOM      8  C   UNL     1      -5.466   3.548 -22.416  0.00  0.00    +0.002 A 
ATOM      9  C   UNL     1      -4.370   3.152 -21.794  0.00  0.00    +0.001 A 
ATOM     10  C   UNL     1      -3.250   2.995 -22.476  0.00  0.00    +0.010 A 
ATOM     11  C   UNL     1      -3.226   3.232 -23.773  0.00  0.00    +0.007 A 
ENDBRANCH   1   2
BRANCH   1  18
ATOM     12  C   UNL     1       2.019   5.220 -23.323  0.00  0.00    +0.060 C 
ATOM     13  C   UNL     1       0.875   5.394 -22.645  0.00  0.00    +0.139 C 
ATOM     14  N   UNL     1      -0.126   4.532 -22.829  0.00  0.00    +0.241 N 
ATOM     15  H   UNL     1      -1.063   4.469 -22.431  0.00  0.00    +0.204 HD
ATOM     16  C   UNL     1       0.882   4.792 -23.110  0.00  0.00    +0.132 C 
ATOM     17  C   UNL     1       1.200   4.006 -23.864  0.00  0.00    +0.055 C 
ATOM     18  C   UNL     1      -0.004   3.519 -23.663  0.00  0.00    +0.111 C 
ATOM     19  C   UNL     1       1.136   3.350 -24.337  0.00  0.00    +0.063 C 
ATOM     20  C   UNL     1       2.136   4.191 -24.168  0.00  0.00    +0.011 C 
BRANCH  12  22
ATOM     21  C   UNL     1       4.216   5.609 -22.812  0.00  0.00    +0.004 C 
ATOM     22  C   UNL     1       3.026   6.062 -23.157  0.00  0.00    -0.026 C 
ENDBRANCH  12  22
ENDBRANCH   1  18
BRANCH   1  23
ATOM     23  O   UNL     1      -0.913   1.441 -23.381  0.00  0.00    -0.447 OA
BRANCH  23  24
ATOM     24  C   UNL     1      -0.471   1.217 -22.159  0.00  0.00    +0.340 C 
ATOM     25  O   UNL     1      -1.325   1.075 -21.164  0.00  0.00    -0.245 OA
BRANCH  24  26
ATOM     26  C   UNL     1       0.826   1.134 -21.933  0.00  0.00    +0.059 A 
ATOM     27  C   UNL     1       1.348   1.714 -20.864  0.00  0.00    +0.015 A 
ATOM     28  C   UNL     1       2.645   1.631 -20.639  0.00  0.00    +0.001 A 
ATOM     29  C   UNL     1       3.423   0.972 -21.476  0.00  0.00    +0.000 A 
ATOM     30  C   UNL     1       2.901   0.392 -22.544  0.00  0.00    +0.001 A 
ATOM     31  C   UNL     1       1.604   0.475 -22.769  0.00  0.00    +0.015 A 
ENDBRANCH  24  26
ENDBRANCH  23  24
ENDBRANCH   1  23
TORSDOF 6
ENDMDL
MODEL 2
REMARK VINA RESULT:    -8.806      1.970      5.994
REMARK INTER + INTRA:         -12.724
REMARK INTER:                 -11.375
REMARK INTRA:                  -1.349
REMARK UNBOUND:                -0.829
REMARK  Name = C=C[C@@H]1CN2CC[C@H]1C[C@@H]2[C@@H](OC(=O)c1ccccc1)c1ccnc2ccccc12    ZINC000138747593
REMARK  6 active torsions:
REMARK  status: ('A' for Active; 'I' for Inactive)
REMARK    1  A    between atoms: C_2  and  C_3
REMARK    2  A    between atoms: C_10  and  C_11
REMARK    3  A    between atoms: C_11  and  O_12
REMARK    4  A    between atoms: C_11  and  C_21
REMARK    5  A    between atoms: O_12  and  C_13
REMARK    6  A    between atoms: C_13  and  C_15
REMARK                            x       y       z     vdW  Elec       q    Type
REMARK                         _______ _______ _______ _____ _____    ______ ____
ROOT
ATOM      1  C   UNL     1       0.873   3.666 -23.011  0.00  0.00    +0.255 C 
ENDROOT
BRANCH   1   2
ATOM      2  C   UNL     1       1.595   2.675 -23.509  0.00  0.00    +0.009 A 
ATOM      3  C   UNL     1       1.592   2.443 -24.806  0.00  0.00    +0.028 A 
ATOM      4  C   UNL     1       2.313   1.455 -25.305  0.00  0.00    +0.112 A 
ATOM      5  N   UNL     1       3.037   0.700 -24.498  0.00  0.00    -0.255 NA
ATOM      6  C   UNL     1       3.041   0.931 -23.201  0.00  0.00    +0.071 A 
ATOM      7  C   UNL     1       3.765   0.177 -22.394  0.00  0.00    +0.028 A 
ATOM      8  C   UNL     1       3.767   0.409 -21.097  0.00  0.00    +0.002 A 
ATOM      9  C   UNL     1       3.047   1.398 -20.599  0.00  0.00    +0.001 A 
ATOM     10  C   UNL     1       2.323   2.153 -21.406  0.00  0.00    +0.010 A 
ATOM     11  C   UNL     1       2.320   1.920 -22.703  0.00  0.00    +0.007 A 
ENDBRANCH   1   2
BRANCH   1  18
ATOM     12  C   UNL     1      -3.106   3.470 -23.110  0.00  0.00    +0.060 C 
ATOM     13  C   UNL     1      -2.449   4.228 -24.001  0.00  0.00    +0.139 C 
ATOM     14  N   UNL     1      -1.117   4.281 -23.951  0.00  0.00    +0.241 N 
ATOM     15  H   UNL     1      -0.426   4.778 -24.513  0.00  0.00    +0.204 HD
ATOM     16  C   UNL     1      -2.005   3.861 -23.504  0.00  0.00    +0.132 C 
ATOM     17  C   UNL     1      -1.637   3.206 -22.654  0.00  0.00    +0.055 C 
ATOM     18  C   UNL     1      -0.445   3.601 -23.044  0.00  0.00    +0.111 C 
ATOM     19  C   UNL     1      -1.103   2.847 -22.159  0.00  0.00    +0.063 C 
ATOM     20  C   UNL     1      -2.418   2.783 -22.192  0.00  0.00    +0.011 C 
BRANCH  12  22
ATOM     21  C   UNL     1      -5.113   3.381 -22.013  0.00  0.00    +0.004 C 
ATOM     22  C   UNL     1      -4.427   3.402 -23.139  0.00  0.00    -0.026 C 
ENDBRANCH  12  22
ENDBRANCH   1  18
BRANCH   1  23
ATOM     23  O   UNL     1       1.469   4.717 -22.484  0.00  0.00    -0.447 OA
BRANCH  23  24
ATOM     24  C   UNL     1       2.240   5.483 -23.232  0.00  0.00    +0.340 C 
ATOM     25  O   UNL     1       1.775   5.985 -24.360  0.00  0.00    -0.245 OA
BRANCH  24  26
ATOM     26  C   UNL     1       3.475   5.745 -22.852  0.00  0.00    +0.059 A 
ATOM     27  C   UNL     1       4.430   4.852 -23.050  0.00  0.00    +0.015 A 
ATOM     28  C   UNL     1       5.665   5.116 -22.669  0.00  0.00    +0.001 A 
ATOM     29  C   UNL     1       5.951   6.267 -22.092  0.00  0.00    +0.000 A 
ATOM     30  C   UNL     1       4.995   7.160 -21.894  0.00  0.00    +0.001 A 
ATOM     31  C   UNL     1       3.760   6.896 -22.274  0.00  0.00    +0.015 A 
ENDBRANCH  24  26
ENDBRANCH  23  24
ENDBRANCH   1  23
TORSDOF 6
ENDMDL
MODEL 3
REMARK VINA RESULT:    -8.692      2.258      4.551
REMARK INTER + INTRA:         -12.569
REMARK INTER:                 -12.396
REMARK INTRA:                  -0.173
REMARK UNBOUND:                -0.829
REMARK  Name = C=C[C@@H]1CN2CC[C@H]1C[C@@H]2[C@@H](OC(=O)c1ccccc1)c1ccnc2ccccc12    ZINC000138747593
REMARK  6 active torsions:
REMARK  status: ('A' for Active; 'I' for Inactive)
REMARK    1  A    between atoms: C_2  and  C_3
REMARK    2  A    between atoms: C_10  and  C_11
REMARK    3  A    between atoms: C_11  and  O_12
REMARK    4  A    between atoms: C_11  and  C_21
REMARK    5  A    between atoms: O_12  and  C_13
REMARK    6  A    between atoms: C_13  and  C_15
REMARK                            x       y       z     vdW  Elec       q    Type
REMARK                         _______ _______ _______ _____ _____    ______ ____
ROOT
ATOM      1  C   UNL     1       0.189   4.025 -23.458  0.00  0.00    +0.255 C 
ENDROOT
BRANCH   1   2
ATOM      2  C   UNL     1      -0.337   3.079 -22.698  0.00  0.00    +0.009 A 
ATOM      3  C   UNL     1       0.128   1.847 -22.762  0.00  0.00    +0.028 A 
ATOM      4  C   UNL     1      -0.396   0.900 -22.004  0.00  0.00    +0.112 A 
ATOM      5  N   UNL     1      -1.387   1.193 -21.181  0.00  0.00    -0.255 NA
ATOM      6  C   UNL     1      -1.852   2.424 -21.116  0.00  0.00    +0.071 A 
ATOM      7  C   UNL     1      -2.843   2.717 -20.293  0.00  0.00    +0.028 A 
ATOM      8  C   UNL     1      -3.306   3.949 -20.229  0.00  0.00    +0.002 A 
ATOM      9  C   UNL     1      -2.782   4.895 -20.988  0.00  0.00    +0.001 A 
ATOM     10  C   UNL     1      -1.792   4.602 -21.811  0.00  0.00    +0.010 A 
ATOM     11  C   UNL     1      -1.327   3.370 -21.875  0.00  0.00    +0.007 A 
ENDBRANCH   1   2
BRANCH   1  18
ATOM     12  C   UNL     1       4.030   5.004 -23.045  0.00  0.00    +0.060 C 
ATOM     13  C   UNL     1       3.079   5.940 -22.901  0.00  0.00    +0.139 C 
ATOM     14  N   UNL     1       1.800   5.592 -23.043  0.00  0.00    +0.241 N 
ATOM     15  H   UNL     1       0.931   6.123 -22.980  0.00  0.00    +0.204 HD
ATOM     16  C   UNL     1       2.820   5.242 -23.061  0.00  0.00    +0.132 C 
ATOM     17  C   UNL     1       2.758   4.135 -23.295  0.00  0.00    +0.055 C 
ATOM     18  C   UNL     1       1.462   4.349 -23.321  0.00  0.00    +0.111 C 
ATOM     19  C   UNL     1       2.410   3.421 -23.463  0.00  0.00    +0.063 C 
ATOM     20  C   UNL     1       3.680   3.745 -23.327  0.00  0.00    +0.011 C 
BRANCH  12  22
ATOM     21  C   UNL     1       6.245   4.483 -23.299  0.00  0.00    +0.004 C 
ATOM     22  C   UNL     1       5.306   5.324 -22.908  0.00  0.00    -0.026 C 
ENDBRANCH  12  22
ENDBRANCH   1  18
BRANCH   1  23
ATOM     23  O   UNL     1      -0.557   4.645 -24.352  0.00  0.00    -0.447 OA
BRANCH  23  24
ATOM     24  C   UNL     1      -1.132   3.958 -25.321  0.00  0.00    +0.340 C 
ATOM     25  O   UNL     1      -0.391   3.361 -26.235  0.00  0.00    -0.245 OA
BRANCH  24  26
ATOM     26  C   UNL     1      -2.446   3.869 -25.374  0.00  0.00    +0.059 A 
ATOM     27  C   UNL     1      -3.194   4.700 -24.667  0.00  0.00    +0.015 A 
ATOM     28  C   UNL     1      -4.508   4.610 -24.721  0.00  0.00    +0.001 A 
ATOM     29  C   UNL     1      -5.080   3.694 -25.478  0.00  0.00    +0.000 A 
ATOM     30  C   UNL     1      -4.333   2.863 -26.186  0.00  0.00    +0.001 A 
ATOM     31  C   UNL     1      -3.018   2.953 -26.131  0.00  0.00    +0.015 A 
ENDBRANCH  24  26
ENDBRANCH  23  24
ENDBRANCH   1  23
TORSDOF 6
ENDMDL
MODEL 4
REMARK VINA RESULT:    -8.649      1.643      6.047
REMARK INTER + INTRA:         -12.512
REMARK INTER:                 -12.125
REMARK INTRA:                  -0.387
REMARK UNBOUND:                -0.829
REMARK  Name = C=C[C@@H]1CN2CC[C@H]1C[C@@H]2[C@@H](OC(=O)c1ccccc1)c1ccnc2ccccc12    ZINC000138747593
REMARK  6 active torsions:
REMARK  status: ('A' for Active; 'I' for Inactive)
REMARK    1  A    between atoms: C_2  and  C_3
REMARK    2  A    between atoms: C_10  and  C_11
REMARK    3  A    between atoms: C_11  and  O_12
REMARK    4  A    between atoms: C_11  and  C_21
REMARK    5  A    between atoms: O_12  and  C_13
REMARK    6  A    between atoms: C_13  and  C_15
REMARK                            x       y       z     vdW  Elec       q    Type
REMARK                         _______ _______ _______ _____ _____    ______ ____
ROOT
ATOM      1  C   UNL     1       0.224   3.382 -22.656  0.00  0.00    +0.255 C 
ENDROOT
BRANCH   1   2
ATOM      2  C   UNL     1       1.456   3.791 -22.908  0.00  0.00    +0.009 A 
ATOM      3  C   UNL     1       1.704   5.075 -23.074  0.00  0.00    +0.028 A 
ATOM      4  C   UNL     1       2.934   5.486 -23.326  0.00  0.00    +0.112 A 
ATOM      5  N   UNL     1       3.915   4.605 -23.411  0.00  0.00    -0.255 NA
ATOM      6  C   UNL     1       3.668   3.321 -23.245  0.00  0.00    +0.071 A 
ATOM      7  C   UNL     1       4.649   2.440 -23.330  0.00  0.00    +0.028 A 
ATOM      8  C   UNL     1       4.400   1.157 -23.164  0.00  0.00    +0.002 A 
ATOM      9  C   UNL     1       3.170   0.746 -22.912  0.00  0.00    +0.001 A 
ATOM     10  C   UNL     1       2.190   1.627 -22.828  0.00  0.00    +0.010 A 
ATOM     11  C   UNL     1       2.438   2.911 -22.993  0.00  0.00    +0.007 A 
ENDBRANCH   1   2
BRANCH   1  18
ATOM     12  C   UNL     1      -2.612   3.784 -25.427  0.00  0.00    +0.060 C 
ATOM     13  C   UNL     1      -1.808   2.709 -25.440  0.00  0.00    +0.139 C 
ATOM     14  N   UNL     1      -0.865   2.593 -24.504  0.00  0.00    +0.241 N 
ATOM     15  H   UNL     1      -0.159   1.880 -24.323  0.00  0.00    +0.204 HD
ATOM     16  C   UNL     1      -1.671   3.204 -24.878  0.00  0.00    +0.132 C 
ATOM     17  C   UNL     1      -1.719   4.101 -24.186  0.00  0.00    +0.055 C 
ATOM     18  C   UNL     1      -0.716   3.515 -23.574  0.00  0.00    +0.111 C 
ATOM     19  C   UNL     1      -1.517   4.583 -23.565  0.00  0.00    +0.063 C 
ATOM     20  C   UNL     1      -2.454   4.715 -24.481  0.00  0.00    +0.011 C 
BRANCH  12  22
ATOM     21  C   UNL     1      -4.782   3.508 -26.099  0.00  0.00    +0.004 C 
ATOM     22  C   UNL     1      -3.554   3.921 -26.345  0.00  0.00    -0.026 C 
ENDBRANCH  12  22
ENDBRANCH   1  18
BRANCH   1  23
ATOM     23  O   UNL     1      -0.066   2.841 -21.489  0.00  0.00    -0.447 OA
BRANCH  23  24
ATOM     24  C   UNL     1      -1.122   2.060 -21.368  0.00  0.00    +0.340 C 
ATOM     25  O   UNL     1      -0.988   0.750 -21.459  0.00  0.00    -0.245 OA
BRANCH  24  26
ATOM     26  C   UNL     1      -2.311   2.589 -21.157  0.00  0.00    +0.059 A 
ATOM     27  C   UNL     1      -3.374   2.087 -21.764  0.00  0.00    +0.015 A 
ATOM     28  C   UNL     1      -4.563   2.617 -21.553  0.00  0.00    +0.001 A 
ATOM     29  C   UNL     1      -4.696   3.646 -20.738  0.00  0.00    +0.000 A 
ATOM     30  C   UNL     1      -3.633   4.147 -20.131  0.00  0.00    +0.001 A 
ATOM     31  C   UNL     1      -2.444   3.617 -20.342  0.00  0.00    +0.015 A 
ENDBRANCH  24  26
ENDBRANCH  23  24
ENDBRANCH   1  23
TORSDOF 6
ENDMDL
MODEL 5
REMARK VINA RESULT:    -8.511      1.783      6.368
REMARK INTER + INTRA:         -12.325
REMARK INTER:                 -11.188
REMARK INTRA:                  -1.137
REMARK UNBOUND:                -0.829
REMARK  Name = C=C[C@@H]1CN2CC[C@H]1C[C@@H]2[C@@H](OC(=O)c1ccccc1)c1ccnc2ccccc12    ZINC000138747593
REMARK  6 active torsions:
REMARK  status: ('A' for Active; 'I' for Inactive)
REMARK    1  A    between atoms: C_2  and  C_3
REMARK    2  A    between atoms: C_10  and  C_11
REMARK    3  A    between atoms: C_11  and  O_12
REMARK    4  A    between atoms: C_11  and  C_21
REMARK    5  A    between atoms: O_12  and  C_13
REMARK    6  A    between atoms: C_13  and  C_15
REMARK                            x       y       z     vdW  Elec       q    Type
REMARK                         _______ _______ _______ _____ _____    ______ ____
ROOT
ATOM      1  C   UNL     1       0.293   3.160 -23.577  0.00  0.00    +0.255 C 
ENDROOT
BRANCH   1   2
ATOM      2  C   UNL     1       1.510   3.548 -23.232  0.00  0.00    +0.009 A 
ATOM      3  C   UNL     1       1.858   4.814 -23.353  0.00  0.00    +0.028 A 
ATOM      4  C   UNL     1       3.073   5.203 -23.009  0.00  0.00    +0.112 A 
ATOM      5  N   UNL     1       3.937   4.319 -22.544  0.00  0.00    -0.255 NA
ATOM      6  C   UNL     1       3.589   3.054 -22.422  0.00  0.00    +0.071 A 
ATOM      7  C   UNL     1       4.454   2.170 -21.957  0.00  0.00    +0.028 A 
ATOM      8  C   UNL     1       4.105   0.906 -21.836  0.00  0.00    +0.002 A 
ATOM      9  C   UNL     1       2.891   0.516 -22.180  0.00  0.00    +0.001 A 
ATOM     10  C   UNL     1       2.026   1.400 -22.646  0.00  0.00    +0.010 A 
ATOM     11  C   UNL     1       2.375   2.666 -22.767  0.00  0.00    +0.007 A 
ENDBRANCH   1   2
BRANCH   1  18
ATOM     12  C   UNL     1      -2.635   3.156 -20.874  0.00  0.00    +0.060 C 
ATOM     13  C   UNL     1      -2.128   4.318 -21.314  0.00  0.00    +0.139 C 
ATOM     14  N   UNL     1      -1.149   4.298 -22.219  0.00  0.00    +0.241 N 
ATOM     15  H   UNL     1      -0.626   5.040 -22.684  0.00  0.00    +0.204 HD
ATOM     16  C   UNL     1      -1.814   3.696 -21.619  0.00  0.00    +0.132 C 
ATOM     17  C   UNL     1      -1.564   2.620 -21.876  0.00  0.00    +0.055 C 
ATOM     18  C   UNL     1      -0.677   3.159 -22.682  0.00  0.00    +0.111 C 
ATOM     19  C   UNL     1      -1.183   2.004 -22.242  0.00  0.00    +0.063 C 
ATOM     20  C   UNL     1      -2.151   2.003 -21.348  0.00  0.00    +0.011 C 
BRANCH  12  22
ATOM     21  C   UNL     1      -4.730   2.503 -20.222  0.00  0.00    +0.004 C 
ATOM     22  C   UNL     1      -3.607   3.150 -19.977  0.00  0.00    -0.026 C 
ENDBRANCH  12  22
ENDBRANCH   1  18
BRANCH   1  23
ATOM     23  O   UNL     1       0.049   2.775 -24.815  0.00  0.00    -0.447 OA
BRANCH  23  24
ATOM     24  C   UNL     1      -0.668   3.541 -25.615  0.00  0.00    +0.340 C 
ATOM     25  O   UNL     1      -0.079   4.218 -26.582  0.00  0.00    -0.245 OA
BRANCH  24  26
ATOM     26  C   UNL     1      -1.972   3.629 -25.446  0.00  0.00    +0.059 A 
ATOM     27  C   UNL     1      -2.512   4.771 -25.054  0.00  0.00    +0.015 A 
ATOM     28  C   UNL     1      -3.817   4.858 -24.886  0.00  0.00    +0.001 A 
ATOM     29  C   UNL     1      -4.587   3.810 -25.108  0.00  0.00    +0.000 A 
ATOM     30  C   UNL     1      -4.047   2.668 -25.501  0.00  0.00    +0.001 A 
ATOM     31  C   UNL     1      -2.742   2.581 -25.669  0.00  0.00    +0.015 A 
ENDBRANCH  24  26
ENDBRANCH  23  24
ENDBRANCH   1  23
TORSDOF 6
ENDMDL
MODEL 6
REMARK VINA RESULT:    -8.266      1.909      6.651
REMARK INTER + INTRA:         -11.994
REMARK INTER:                 -12.248
REMARK INTRA:                   0.254
REMARK UNBOUND:                -0.829
REMARK  Name = C=C[C@@H]1CN2CC[C@H]1C[C@@H]2[C@@H](OC(=O)c1ccccc1)c1ccnc2ccccc12    ZINC000138747593
REMARK  6 active torsions:
REMARK  status: ('A' for Active; 'I' for Inactive)
REMARK    1  A    between atoms: C_2  and  C_3
REMARK    2  A    between atoms: C_10  and  C_11
REMARK    3  A    between atoms: C_11  and  O_12
REMARK    4  A    between atoms: C_11  and  C_21
REMARK    5  A    between atoms: O_12  and  C_13
REMARK    6  A    between atoms: C_13  and  C_15
REMARK                            x       y       z     vdW  Elec       q    Type
REMARK                         _______ _______ _______ _____ _____    ______ ____
ROOT
ATOM      1  C   UNL     1       0.070   3.421 -23.043  0.00  0.00    +0.255 C 
ENDROOT
BRANCH   1   2
ATOM      2  C   UNL     1       1.172   2.770 -22.708  0.00  0.00    +0.009 A 
ATOM      3  C   UNL     1       1.104   1.511 -22.325  0.00  0.00    +0.028 A 
ATOM      4  C   UNL     1       2.203   0.859 -21.990  0.00  0.00    +0.112 A 
ATOM      5  N   UNL     1       3.371   1.475 -22.040  0.00  0.00    -0.255 NA
ATOM      6  C   UNL     1       3.439   2.734 -22.423  0.00  0.00    +0.071 A 
ATOM      7  C   UNL     1       4.607   3.349 -22.474  0.00  0.00    +0.028 A 
ATOM      8  C   UNL     1       4.675   4.608 -22.857  0.00  0.00    +0.002 A 
ATOM      9  C   UNL     1       3.575   5.259 -23.192  0.00  0.00    +0.001 A 
ATOM     10  C   UNL     1       2.408   4.644 -23.141  0.00  0.00    +0.010 A 
ATOM     11  C   UNL     1       2.340   3.384 -22.758  0.00  0.00    +0.007 A 
ENDBRANCH   1   2
BRANCH   1  18
ATOM     12  C   UNL     1      -3.326   2.727 -21.077  0.00  0.00    +0.060 C 
ATOM     13  C   UNL     1      -2.760   1.752 -21.804  0.00  0.00    +0.139 C 
ATOM     14  N   UNL     1      -1.624   2.004 -22.455  0.00  0.00    +0.241 N 
ATOM     15  H   UNL     1      -1.031   1.429 -23.053  0.00  0.00    +0.204 HD
ATOM     16  C   UNL     1      -2.384   2.413 -21.808  0.00  0.00    +0.132 C 
ATOM     17  C   UNL     1      -2.074   3.487 -21.617  0.00  0.00    +0.055 C 
ATOM     18  C   UNL     1      -1.055   3.191 -22.391  0.00  0.00    +0.111 C 
ATOM     19  C   UNL     1      -1.622   4.159 -21.667  0.00  0.00    +0.063 C 
ATOM     20  C   UNL     1      -2.744   3.929 -21.017  0.00  0.00    +0.011 C 
BRANCH  12  22
ATOM     21  C   UNL     1      -5.611   2.593 -21.048  0.00  0.00    +0.004 C 
ATOM     22  C   UNL     1      -4.453   2.501 -20.422  0.00  0.00    -0.026 C 
ENDBRANCH  12  22
ENDBRANCH   1  18
BRANCH   1  23
ATOM     23  O   UNL     1       0.095   4.299 -24.027  0.00  0.00    -0.447 OA
BRANCH  23  24
ATOM     24  C   UNL     1      -0.474   4.011 -25.182  0.00  0.00    +0.340 C 
ATOM     25  O   UNL     1       0.271   3.772 -26.244  0.00  0.00    -0.245 OA
BRANCH  24  26
ATOM     26  C   UNL     1      -1.789   3.963 -25.273  0.00  0.00    +0.059 A 
ATOM     27  C   UNL     1      -2.371   2.950 -25.893  0.00  0.00    +0.015 A 
ATOM     28  C   UNL     1      -3.686   2.903 -25.985  0.00  0.00    +0.001 A 
ATOM     29  C   UNL     1      -4.422   3.863 -25.460  0.00  0.00    +0.000 A 
ATOM     30  C   UNL     1      -3.840   4.876 -24.840  0.00  0.00    +0.001 A 
ATOM     31  C   UNL     1      -2.525   4.923 -24.749  0.00  0.00    +0.015 A 
ENDBRANCH  24  26
ENDBRANCH  23  24
ENDBRANCH   1  23
TORSDOF 6
ENDMDL
MODEL 7
REMARK VINA RESULT:    -7.280      2.094      6.013
REMARK INTER + INTRA:         -10.662
REMARK INTER:                  -9.962
REMARK INTRA:                  -0.700
REMARK UNBOUND:                -0.829
REMARK  Name = C=C[C@@H]1CN2CC[C@H]1C[C@@H]2[C@@H](OC(=O)c1ccccc1)c1ccnc2ccccc12    ZINC000138747593
REMARK  6 active torsions:
REMARK  status: ('A' for Active; 'I' for Inactive)
REMARK    1  A    between atoms: C_2  and  C_3
REMARK    2  A    between atoms: C_10  and  C_11
REMARK    3  A    between atoms: C_11  and  O_12
REMARK    4  A    between atoms: C_11  and  C_21
REMARK    5  A    between atoms: O_12  and  C_13
REMARK    6  A    between atoms: C_13  and  C_15
REMARK                            x       y       z     vdW  Elec       q    Type
REMARK                         _______ _______ _______ _____ _____    ______ ____
ROOT
ATOM      1  C   UNL     1       0.889   3.671 -22.541  0.00  0.00    +0.255 C 
ENDROOT
BRANCH   1   2
ATOM      2  C   UNL     1       1.619   2.568 -22.514  0.00  0.00    +0.009 A 
ATOM      3  C   UNL     1       1.975   2.041 -21.360  0.00  0.00    +0.028 A 
ATOM      4  C   UNL     1       2.703   0.939 -21.330  0.00  0.00    +0.112 A 
ATOM      5  N   UNL     1       3.073   0.367 -22.463  0.00  0.00    -0.255 NA
ATOM      6  C   UNL     1       2.717   0.894 -23.617  0.00  0.00    +0.071 A 
ATOM      7  C   UNL     1       3.086   0.322 -24.749  0.00  0.00    +0.028 A 
ATOM      8  C   UNL     1       2.729   0.850 -25.903  0.00  0.00    +0.002 A 
ATOM      9  C   UNL     1       2.001   1.951 -25.932  0.00  0.00    +0.001 A 
ATOM     10  C   UNL     1       1.632   2.523 -24.799  0.00  0.00    +0.010 A 
ATOM     11  C   UNL     1       1.988   1.996 -23.645  0.00  0.00    +0.007 A 
ENDBRANCH   1   2
BRANCH   1  18
ATOM     12  C   UNL     1      -3.023   3.453 -23.265  0.00  0.00    +0.060 C 
ATOM     13  C   UNL     1      -2.216   4.093 -24.124  0.00  0.00    +0.139 C 
ATOM     14  N   UNL     1      -0.910   4.155 -23.864  0.00  0.00    +0.241 N 
ATOM     15  H   UNL     1      -0.128   4.578 -24.364  0.00  0.00    +0.204 HD
ATOM     16  C   UNL     1      -1.866   3.794 -23.519  0.00  0.00    +0.132 C 
ATOM     17  C   UNL     1      -1.653   3.254 -22.544  0.00  0.00    +0.055 C 
ATOM     18  C   UNL     1      -0.407   3.599 -22.781  0.00  0.00    +0.111 C 
ATOM     19  C   UNL     1      -1.213   2.963 -21.927  0.00  0.00    +0.063 C 
ATOM     20  C   UNL     1      -2.507   2.891 -22.167  0.00  0.00    +0.011 C 
BRANCH  12  22
ATOM     21  C   UNL     1      -5.181   3.425 -22.500  0.00  0.00    +0.004 C 
ATOM     22  C   UNL     1      -4.323   3.378 -23.501  0.00  0.00    -0.026 C 
ENDBRANCH  12  22
ENDBRANCH   1  18
BRANCH   1  23
ATOM     23  O   UNL     1       1.457   4.843 -22.329  0.00  0.00    -0.447 OA
BRANCH  23  24
ATOM     24  C   UNL     1       2.283   5.347 -23.225  0.00  0.00    +0.340 C 
ATOM     25  O   UNL     1       1.859   5.588 -24.451  0.00  0.00    -0.245 OA
BRANCH  24  26
ATOM     26  C   UNL     1       3.532   5.610 -22.894  0.00  0.00    +0.059 A 
ATOM     27  C   UNL     1       3.836   6.768 -22.330  0.00  0.00    +0.015 A 
ATOM     28  C   UNL     1       5.085   7.030 -22.000  0.00  0.00    +0.001 A 
ATOM     29  C   UNL     1       6.033   6.142 -22.230  0.00  0.00    +0.000 A 
ATOM     30  C   UNL     1       5.729   4.985 -22.794  0.00  0.00    +0.001 A 
ATOM     31  C   UNL     1       4.479   4.723 -23.125  0.00  0.00    +0.015 A 
ENDBRANCH  24  26
ENDBRANCH  23  24
ENDBRANCH   1  23
TORSDOF 6
ENDMDL
MODEL 8
REMARK VINA RESULT:    -7.217      0.853      2.268
REMARK INTER + INTRA:         -10.577
REMARK INTER:                  -9.748
REMARK INTRA:                  -0.829
REMARK UNBOUND:                -0.829
REMARK  Name = C=C[C@@H]1CN2CC[C@H]1C[C@@H]2[C@@H](OC(=O)c1ccccc1)c1ccnc2ccccc12    ZINC000138747593
REMARK  6 active torsions:
REMARK  status: ('A' for Active; 'I' for Inactive)
REMARK    1  A    between atoms: C_2  and  C_3
REMARK    2  A    between atoms: C_10  and  C_11
REMARK    3  A    between atoms: C_11  and  O_12
REMARK    4  A    between atoms: C_11  and  C_21
REMARK    5  A    between atoms: O_12  and  C_13
REMARK    6  A    between atoms: C_13  and  C_15
REMARK                            x       y       z     vdW  Elec       q    Type
REMARK                         _______ _______ _______ _____ _____    ______ ____
ROOT
ATOM      1  C   UNL     1      -1.186   2.603 -23.107  0.00  0.00    +0.255 C 
ENDROOT
BRANCH   1   2
ATOM      2  C   UNL     1      -2.450   2.972 -23.234  0.00  0.00    +0.009 A 
ATOM      3  C   UNL     1      -3.222   3.060 -22.169  0.00  0.00    +0.028 A 
ATOM      4  C   UNL     1      -4.485   3.429 -22.294  0.00  0.00    +0.112 A 
ATOM      5  N   UNL     1      -4.971   3.709 -23.490  0.00  0.00    -0.255 NA
ATOM      6  C   UNL     1      -4.200   3.621 -24.555  0.00  0.00    +0.071 A 
ATOM      7  C   UNL     1      -4.685   3.901 -25.751  0.00  0.00    +0.028 A 
ATOM      8  C   UNL     1      -3.913   3.814 -26.815  0.00  0.00    +0.002 A 
ATOM      9  C   UNL     1      -2.651   3.445 -26.690  0.00  0.00    +0.001 A 
ATOM     10  C   UNL     1      -2.165   3.165 -25.494  0.00  0.00    +0.010 A 
ATOM     11  C   UNL     1      -2.937   3.253 -24.429  0.00  0.00    +0.007 A 
ENDBRANCH   1   2
BRANCH   1  18
ATOM     12  C   UNL     1       1.721   5.304 -23.476  0.00  0.00    +0.060 C 
ATOM     13  C   UNL     1       1.745   4.185 -24.217  0.00  0.00    +0.139 C 
ATOM     14  N   UNL     1       0.763   3.294 -24.079  0.00  0.00    +0.241 N 
ATOM     15  H   UNL     1       0.580   2.396 -24.527  0.00  0.00    +0.204 HD
ATOM     16  C   UNL     1       1.150   4.244 -23.746  0.00  0.00    +0.132 C 
ATOM     17  C   UNL     1       0.414   4.617 -22.969  0.00  0.00    +0.055 C 
ATOM     18  C   UNL     1      -0.223   3.498 -23.230  0.00  0.00    +0.111 C 
ATOM     19  C   UNL     1      -0.244   4.612 -22.494  0.00  0.00    +0.063 C 
ATOM     20  C   UNL     1       0.718   5.504 -22.616  0.00  0.00    +0.011 C 
BRANCH  12  22
ATOM     21  C   UNL     1       3.432   6.512 -22.555  0.00  0.00    +0.004 C 
ATOM     22  C   UNL     1       2.684   6.202 -23.596  0.00  0.00    -0.026 C 
ENDBRANCH  12  22
ENDBRANCH   1  18
BRANCH   1  23
ATOM     23  O   UNL     1      -0.889   1.343 -22.859  0.00  0.00    -0.447 OA
BRANCH  23  24
ATOM     24  C   UNL     1      -0.166   1.032 -21.800  0.00  0.00    +0.340 C 
ATOM     25  O   UNL     1      -0.759   0.683 -20.675  0.00  0.00    -0.245 OA
BRANCH  24  26
ATOM     26  C   UNL     1       1.151   1.071 -21.868  0.00  0.00    +0.059 A 
ATOM     27  C   UNL     1       1.781   0.429 -22.837  0.00  0.00    +0.015 A 
ATOM     28  C   UNL     1       3.098   0.468 -22.903  0.00  0.00    +0.001 A 
ATOM     29  C   UNL     1       3.788   1.146 -22.007  0.00  0.00    +0.000 A 
ATOM     30  C   UNL     1       3.157   1.789 -21.038  0.00  0.00    +0.001 A 
ATOM     31  C   UNL     1       1.841   1.749 -20.972  0.00  0.00    +0.015 A 
ENDBRANCH  24  26
ENDBRANCH  23  24
ENDBRANCH   1  23
TORSDOF 6
ENDMDL
MODEL 9
REMARK VINA RESULT:    -7.154      1.651      4.031
REMARK INTER + INTRA:         -10.491
REMARK INTER:                 -11.473
REMARK INTRA:                   0.982
REMARK UNBOUND:                -0.829
REMARK  Name = C=C[C@@H]1CN2CC[C@H]1C[C@@H]2[C@@H](OC(=O)c1ccccc1)c1ccnc2ccccc12    ZINC000138747593
REMARK  6 active torsions:
REMARK  status: ('A' for Active; 'I' for Inactive)
REMARK    1  A    between atoms: C_2  and  C_3
REMARK    2  A    between atoms: C_10  and  C_11
REMARK    3  A    between atoms: C_11  and  O_12
REMARK    4  A    between atoms: C_11  and  C_21
REMARK    5  A    between atoms: O_12  and  C_13
REMARK    6  A    between atoms: C_13  and  C_15
REMARK                            x       y       z     vdW  Elec       q    Type
REMARK                         _______ _______ _______ _____ _____    ______ ____
ROOT
ATOM      1  C   UNL     1       0.182   2.971 -23.014  0.00  0.00    +0.255 C 
ENDROOT
BRANCH   1   2
ATOM      2  C   UNL     1      -1.075   2.847 -22.619  0.00  0.00    +0.009 A 
ATOM      3  C   UNL     1      -1.345   2.418 -21.402  0.00  0.00    +0.028 A 
ATOM      4  C   UNL     1      -2.599   2.295 -21.006  0.00  0.00    +0.112 A 
ATOM      5  N   UNL     1      -3.581   2.603 -21.834  0.00  0.00    -0.255 NA
ATOM      6  C   UNL     1      -3.312   3.032 -23.050  0.00  0.00    +0.071 A 
ATOM      7  C   UNL     1      -4.294   3.341 -23.878  0.00  0.00    +0.028 A 
ATOM      8  C   UNL     1      -4.024   3.769 -25.094  0.00  0.00    +0.002 A 
ATOM      9  C   UNL     1      -2.770   3.893 -25.490  0.00  0.00    +0.001 A 
ATOM     10  C   UNL     1      -1.787   3.585 -24.662  0.00  0.00    +0.010 A 
ATOM     11  C   UNL     1      -2.058   3.155 -23.445  0.00  0.00    +0.007 A 
ENDBRANCH   1   2
BRANCH   1  18
ATOM     12  C   UNL     1       3.025   0.751 -21.321  0.00  0.00    +0.060 C 
ATOM     13  C   UNL     1       2.605   1.875 -20.722  0.00  0.00    +0.139 C 
ATOM     14  N   UNL     1       1.653   2.604 -21.304  0.00  0.00    +0.241 N 
ATOM     15  H   UNL     1       1.191   3.474 -21.037  0.00  0.00    +0.204 HD
ATOM     16  C   UNL     1       2.261   1.717 -21.382  0.00  0.00    +0.132 C 
ATOM     17  C   UNL     1       1.952   1.220 -22.353  0.00  0.00    +0.055 C 
ATOM     18  C   UNL     1       1.124   2.235 -22.453  0.00  0.00    +0.111 C 
ATOM     19  C   UNL     1       1.544   1.116 -23.047  0.00  0.00    +0.063 C 
ATOM     20  C   UNL     1       2.484   0.382 -22.487  0.00  0.00    +0.011 C 
BRANCH  12  22
ATOM     21  C   UNL     1       5.240   0.259 -21.016  0.00  0.00    +0.004 C 
ATOM     22  C   UNL     1       3.969   0.011 -20.763  0.00  0.00    -0.026 C 
ENDBRANCH  12  22
ENDBRANCH   1  18
BRANCH   1  23
ATOM     23  O   UNL     1       0.493   3.827 -23.967  0.00  0.00    -0.447 OA
BRANCH  23  24
ATOM     24  C   UNL     1       1.710   3.835 -24.475  0.00  0.00    +0.340 C 
ATOM     25  O   UNL     1       1.950   3.233 -25.624  0.00  0.00    -0.245 OA
BRANCH  24  26
ATOM     26  C   UNL     1       2.687   4.446 -23.833  0.00  0.00    +0.059 A 
ATOM     27  C   UNL     1       2.471   5.621 -23.266  0.00  0.00    +0.015 A 
ATOM     28  C   UNL     1       3.449   6.231 -22.624  0.00  0.00    +0.001 A 
ATOM     29  C   UNL     1       4.641   5.673 -22.545  0.00  0.00    +0.000 A 
ATOM     30  C   UNL     1       4.857   4.497 -23.112  0.00  0.00    +0.001 A 
ATOM     31  C   UNL     1       3.879   3.887 -23.754  0.00  0.00    +0.015 A 
ENDBRANCH  24  26
ENDBRANCH  23  24
ENDBRANCH   1  23
TORSDOF 6
ENDMDL
