MODEL 1
REMARK VINA RESULT:    -6.709      0.000      0.000
REMARK INTER + INTRA:          -8.919
REMARK INTER:                  -8.446
REMARK INTRA:                  -0.473
REMARK UNBOUND:                -0.445
REMARK  Name = ZINC000014817799
REMARK  8 active torsions:
REMARK  status: ('A' for Active; 'I' for Inactive)
REMARK    1  A    between atoms: C_1  and  C_2
REMARK    2  A    between atoms: C_3  and  C_4
REMARK    3  A    between atoms: C_4  and  C_6
REMARK    4  A    between atoms: C_7  and  O_8
REMARK    5  A    between atoms: C_10  and  O_11
REMARK    6  A    between atoms: O_11  and  C_12
REMARK    7  A    between atoms: C_14  and  O_15
REMARK    8  A    between atoms: O_15  and  C_16
REMARK                            x       y       z     vdW  Elec       q    Type
REMARK                         _______ _______ _______ _____ _____    ______ ____
ROOT
ATOM      1  C   UNL     1       0.604   3.558 -23.137  0.00  0.00    +0.105 A 
ATOM      2  C   UNL     1       0.856   4.819 -23.331  0.00  0.00    +0.135 A 
ATOM      3  C   UNL     1       2.086   5.240 -23.359  0.00  0.00    +0.092 A 
ATOM      4  C   UNL     1       3.064   4.400 -23.194  0.00  0.00    +0.127 A 
ATOM      5  C   UNL     1       2.813   3.139 -23.001  0.00  0.00    +0.092 A 
ATOM      6  C   UNL     1       1.583   2.718 -22.972  0.00  0.00    +0.138 A 
ENDROOT
BRANCH   1   7
ATOM      7  C   UNL     1      -0.625   3.138 -23.108  0.00  0.00    +0.193 C 
ATOM      8  O   UNL     1      -1.252   2.887 -24.219  0.00  0.00    -0.287 OA
BRANCH   7  11
ATOM      9  C   UNL     1      -2.879   3.509 -20.535  0.00  0.00    +0.035 C 
ATOM     10  C   UNL     1      -2.276   3.678 -21.674  0.00  0.00    -0.026 C 
ATOM     11  C   UNL     1      -1.228   2.967 -21.968  0.00  0.00    +0.047 C 
ENDBRANCH   7  11
ENDBRANCH   1   7
BRANCH   4  12
ATOM     12  O   UNL     1       4.293   4.820 -23.223  0.00  0.00    -0.495 OA
ATOM     13  C   UNL     1       5.274   3.967 -23.183  0.00  0.00    +0.277 C 
ENDBRANCH   4  12
BRANCH   2  14
ATOM     14  O   UNL     1      -0.123   5.659 -23.495  0.00  0.00    -0.506 OA
ATOM     15  H   UNL     1       0.055   6.546 -23.737  0.00  0.00    +0.292 HD
ENDBRANCH   2  14
BRANCH   6  16
ATOM     16  O   UNL     1       1.332   1.458 -22.778  0.00  0.00    -0.494 OA
ATOM     17  C   UNL     1       2.283   0.656 -22.402  0.00  0.00    +0.277 C 
ENDBRANCH   6  16
TORSDOF 5
ENDMDL
MODEL 2
REMARK VINA RESULT:    -6.606      1.871      5.537
REMARK INTER + INTRA:          -8.788
REMARK INTER:                  -8.334
REMARK INTRA:                  -0.454
REMARK UNBOUND:                -0.445
REMARK  Name = ZINC000014817799
REMARK  8 active torsions:
REMARK  status: ('A' for Active; 'I' for Inactive)
REMARK    1  A    between atoms: C_1  and  C_2
REMARK    2  A    between atoms: C_3  and  C_4
REMARK    3  A    between atoms: C_4  and  C_6
REMARK    4  A    between atoms: C_7  and  O_8
REMARK    5  A    between atoms: C_10  and  O_11
REMARK    6  A    between atoms: O_11  and  C_12
REMARK    7  A    between atoms: C_14  and  O_15
REMARK    8  A    between atoms: O_15  and  C_16
REMARK                            x       y       z     vdW  Elec       q    Type
REMARK                         _______ _______ _______ _____ _____    ______ ____
ROOT
ATOM      1  C   UNL     1      -0.660   2.628 -22.991  0.00  0.00    +0.105 A 
ATOM      2  C   UNL     1      -0.937   2.220 -21.788  0.00  0.00    +0.135 A 
ATOM      3  C   UNL     1      -2.167   2.223 -21.367  0.00  0.00    +0.092 A 
ATOM      4  C   UNL     1      -3.121   2.634 -22.150  0.00  0.00    +0.127 A 
ATOM      5  C   UNL     1      -2.844   3.041 -23.353  0.00  0.00    +0.092 A 
ATOM      6  C   UNL     1      -1.614   3.038 -23.774  0.00  0.00    +0.138 A 
ENDROOT
BRANCH   1   7
ATOM      7  C   UNL     1       0.569   2.625 -23.412  0.00  0.00    +0.193 C 
ATOM      8  O   UNL     1       1.142   1.504 -23.738  0.00  0.00    -0.287 OA
BRANCH   7  11
ATOM      9  C   UNL     1       3.117   4.927 -23.189  0.00  0.00    +0.035 C 
ATOM     10  C   UNL     1       2.459   3.809 -23.095  0.00  0.00    -0.026 C 
ATOM     11  C   UNL     1       1.227   3.743 -23.506  0.00  0.00    +0.047 C 
ENDBRANCH   7  11
ENDBRANCH   1   7
BRANCH   4  12
ATOM     12  O   UNL     1      -4.350   2.637 -21.729  0.00  0.00    -0.495 OA
ATOM     13  C   UNL     1      -5.239   3.377 -22.324  0.00  0.00    +0.277 C 
ENDBRANCH   4  12
BRANCH   2  14
ATOM     14  O   UNL     1       0.017   1.810 -21.006  0.00  0.00    -0.506 OA
ATOM     15  H   UNL     1      -0.061   1.909 -20.078  0.00  0.00    +0.292 HD
ENDBRANCH   2  14
BRANCH   6  16
ATOM     16  O   UNL     1      -1.338   3.446 -24.977  0.00  0.00    -0.494 OA
ATOM     17  C   UNL     1      -2.259   3.439 -25.893  0.00  0.00    +0.277 C 
ENDBRANCH   6  16
TORSDOF 5
ENDMDL
MODEL 3
REMARK VINA RESULT:    -6.512      2.060      5.138
REMARK INTER + INTRA:          -8.670
REMARK INTER:                  -8.274
REMARK INTRA:                  -0.396
REMARK UNBOUND:                -0.445
REMARK  Name = ZINC000014817799
REMARK  8 active torsions:
REMARK  status: ('A' for Active; 'I' for Inactive)
REMARK    1  A    between atoms: C_1  and  C_2
REMARK    2  A    between atoms: C_3  and  C_4
REMARK    3  A    between atoms: C_4  and  C_6
REMARK    4  A    between atoms: C_7  and  O_8
REMARK    5  A    between atoms: C_10  and  O_11
REMARK    6  A    between atoms: O_11  and  C_12
REMARK    7  A    between atoms: C_14  and  O_15
REMARK    8  A    between atoms: O_15  and  C_16
REMARK                            x       y       z     vdW  Elec       q    Type
REMARK                         _______ _______ _______ _____ _____    ______ ____
ROOT
ATOM      1  C   UNL     1      -0.652   3.092 -23.917  0.00  0.00    +0.105 A 
ATOM      2  C   UNL     1      -1.466   3.330 -24.903  0.00  0.00    +0.135 A 
ATOM      3  C   UNL     1      -2.745   3.409 -24.685  0.00  0.00    +0.092 A 
ATOM      4  C   UNL     1      -3.210   3.249 -23.481  0.00  0.00    +0.127 A 
ATOM      5  C   UNL     1      -2.397   3.011 -22.496  0.00  0.00    +0.092 A 
ATOM      6  C   UNL     1      -1.117   2.932 -22.714  0.00  0.00    +0.138 A 
ENDROOT
BRANCH   1   7
ATOM      7  C   UNL     1       0.627   3.013 -24.135  0.00  0.00    +0.193 C 
ATOM      8  O   UNL     1       1.153   1.888 -24.517  0.00  0.00    -0.287 OA
BRANCH   7  11
ATOM      9  C   UNL     1       3.231   5.017 -23.113  0.00  0.00    +0.035 C 
ATOM     10  C   UNL     1       2.477   3.971 -23.278  0.00  0.00    -0.026 C 
ATOM     11  C   UNL     1       1.381   4.061 -23.970  0.00  0.00    +0.047 C 
ENDBRANCH   7  11
ENDBRANCH   1   7
BRANCH   4  12
ATOM     12  O   UNL     1      -4.489   3.327 -23.263  0.00  0.00    -0.495 OA
ATOM     13  C   UNL     1      -4.959   3.120 -22.069  0.00  0.00    +0.277 C 
ENDBRANCH   4  12
BRANCH   2  14
ATOM     14  O   UNL     1      -1.000   3.490 -26.106  0.00  0.00    -0.506 OA
ATOM     15  H   UNL     1      -1.496   3.198 -26.844  0.00  0.00    +0.292 HD
ENDBRANCH   2  14
BRANCH   6  16
ATOM     16  O   UNL     1      -0.303   2.694 -21.728  0.00  0.00    -0.494 OA
ATOM     17  C   UNL     1      -0.326   1.540 -21.131  0.00  0.00    +0.277 C 
ENDBRANCH   6  16
TORSDOF 5
ENDMDL
MODEL 4
REMARK VINA RESULT:    -6.447      2.340      3.572
REMARK INTER + INTRA:          -8.588
REMARK INTER:                  -8.116
REMARK INTRA:                  -0.472
REMARK UNBOUND:                -0.445
REMARK  Name = ZINC000014817799
REMARK  8 active torsions:
REMARK  status: ('A' for Active; 'I' for Inactive)
REMARK    1  A    between atoms: C_1  and  C_2
REMARK    2  A    between atoms: C_3  and  C_4
REMARK    3  A    between atoms: C_4  and  C_6
REMARK    4  A    between atoms: C_7  and  O_8
REMARK    5  A    between atoms: C_10  and  O_11
REMARK    6  A    between atoms: O_11  and  C_12
REMARK    7  A    between atoms: C_14  and  O_15
REMARK    8  A    between atoms: O_15  and  C_16
REMARK                            x       y       z     vdW  Elec       q    Type
REMARK                         _______ _______ _______ _____ _____    ______ ____
ROOT
ATOM      1  C   UNL     1      -0.777   2.810 -23.011  0.00  0.00    +0.105 A 
ATOM      2  C   UNL     1      -0.991   2.250 -21.857  0.00  0.00    +0.135 A 
ATOM      3  C   UNL     1      -0.036   1.599 -21.263  0.00  0.00    +0.092 A 
ATOM      4  C   UNL     1       1.134   1.508 -21.822  0.00  0.00    +0.127 A 
ATOM      5  C   UNL     1       1.349   2.068 -22.975  0.00  0.00    +0.092 A 
ATOM      6  C   UNL     1       0.393   2.719 -23.570  0.00  0.00    +0.138 A 
ENDROOT
BRANCH   1   7
ATOM      7  C   UNL     1      -1.732   3.460 -23.605  0.00  0.00    +0.193 C 
ATOM      8  O   UNL     1      -1.982   4.693 -23.275  0.00  0.00    -0.287 OA
BRANCH   7  11
ATOM      9  C   UNL     1      -3.835   3.013 -26.291  0.00  0.00    +0.035 C 
ATOM     10  C   UNL     1      -3.129   3.594 -25.366  0.00  0.00    -0.026 C 
ATOM     11  C   UNL     1      -2.439   2.879 -24.530  0.00  0.00    +0.047 C 
ENDBRANCH   7  11
ENDBRANCH   1   7
BRANCH   4  12
ATOM     12  O   UNL     1       2.090   0.857 -21.228  0.00  0.00    -0.495 OA
ATOM     13  C   UNL     1       3.139   0.486 -21.900  0.00  0.00    +0.277 C 
ENDBRANCH   4  12
BRANCH   2  14
ATOM     14  O   UNL     1      -2.162   2.341 -21.298  0.00  0.00    -0.506 OA
ATOM     15  H   UNL     1      -2.930   2.414 -21.828  0.00  0.00    +0.292 HD
ENDBRANCH   2  14
BRANCH   6  16
ATOM     16  O   UNL     1       0.608   3.279 -24.723  0.00  0.00    -0.494 OA
ATOM     17  C   UNL     1       1.553   2.833 -25.496  0.00  0.00    +0.277 C 
ENDBRANCH   6  16
TORSDOF 5
ENDMDL
MODEL 5
REMARK VINA RESULT:    -6.408      2.206      5.379
REMARK INTER + INTRA:          -8.539
REMARK INTER:                  -8.162
REMARK INTRA:                  -0.376
REMARK UNBOUND:                -0.445
REMARK  Name = ZINC000014817799
REMARK  8 active torsions:
REMARK  status: ('A' for Active; 'I' for Inactive)
REMARK    1  A    between atoms: C_1  and  C_2
REMARK    2  A    between atoms: C_3  and  C_4
REMARK    3  A    between atoms: C_4  and  C_6
REMARK    4  A    between atoms: C_7  and  O_8
REMARK    5  A    between atoms: C_10  and  O_11
REMARK    6  A    between atoms: O_11  and  C_12
REMARK    7  A    between atoms: C_14  and  O_15
REMARK    8  A    between atoms: O_15  and  C_16
REMARK                            x       y       z     vdW  Elec       q    Type
REMARK                         _______ _______ _______ _____ _____    ______ ____
ROOT
ATOM      1  C   UNL     1      -1.609   3.589 -23.363  0.00  0.00    +0.105 A 
ATOM      2  C   UNL     1      -2.775   3.943 -23.818  0.00  0.00    +0.135 A 
ATOM      3  C   UNL     1      -3.853   3.615 -23.169  0.00  0.00    +0.092 A 
ATOM      4  C   UNL     1      -3.765   2.932 -22.066  0.00  0.00    +0.127 A 
ATOM      5  C   UNL     1      -2.600   2.578 -21.612  0.00  0.00    +0.092 A 
ATOM      6  C   UNL     1      -1.522   2.906 -22.260  0.00  0.00    +0.138 A 
ENDROOT
BRANCH   1   7
ATOM      7  C   UNL     1      -0.532   3.917 -24.011  0.00  0.00    +0.193 C 
ATOM      8  O   UNL     1      -0.250   3.336 -25.139  0.00  0.00    -0.287 OA
BRANCH   7  11
ATOM      9  C   UNL     1       2.348   5.604 -23.175  0.00  0.00    +0.035 C 
ATOM     10  C   UNL     1       1.551   4.695 -23.654  0.00  0.00    -0.026 C 
ATOM     11  C   UNL     1       0.264   4.827 -23.531  0.00  0.00    +0.047 C 
ENDBRANCH   7  11
ENDBRANCH   1   7
BRANCH   4  12
ATOM     12  O   UNL     1      -4.843   2.604 -21.418  0.00  0.00    -0.495 OA
ATOM     13  C   UNL     1      -6.010   2.938 -21.884  0.00  0.00    +0.277 C 
ENDBRANCH   4  12
BRANCH   2  14
ATOM     14  O   UNL     1      -2.862   4.625 -24.921  0.00  0.00    -0.506 OA
ATOM     15  H   UNL     1      -2.109   5.069 -25.259  0.00  0.00    +0.292 HD
ENDBRANCH   2  14
BRANCH   6  16
ATOM     16  O   UNL     1      -0.357   2.552 -21.806  0.00  0.00    -0.494 OA
ATOM     17  C   UNL     1      -0.108   1.300 -21.562  0.00  0.00    +0.277 C 
ENDBRANCH   6  16
TORSDOF 5
ENDMDL
MODEL 6
REMARK VINA RESULT:    -6.401      1.439      4.644
REMARK INTER + INTRA:          -8.529
REMARK INTER:                  -8.091
REMARK INTRA:                  -0.439
REMARK UNBOUND:                -0.445
REMARK  Name = ZINC000014817799
REMARK  8 active torsions:
REMARK  status: ('A' for Active; 'I' for Inactive)
REMARK    1  A    between atoms: C_1  and  C_2
REMARK    2  A    between atoms: C_3  and  C_4
REMARK    3  A    between atoms: C_4  and  C_6
REMARK    4  A    between atoms: C_7  and  O_8
REMARK    5  A    between atoms: C_10  and  O_11
REMARK    6  A    between atoms: O_11  and  C_12
REMARK    7  A    between atoms: C_14  and  O_15
REMARK    8  A    between atoms: O_15  and  C_16
REMARK                            x       y       z     vdW  Elec       q    Type
REMARK                         _______ _______ _______ _____ _____    ______ ____
ROOT
ATOM      1  C   UNL     1       0.433   3.732 -23.283  0.00  0.00    +0.105 A 
ATOM      2  C   UNL     1      -0.515   4.580 -23.012  0.00  0.00    +0.135 A 
ATOM      3  C   UNL     1      -1.576   4.187 -22.372  0.00  0.00    +0.092 A 
ATOM      4  C   UNL     1      -1.690   2.946 -22.003  0.00  0.00    +0.127 A 
ATOM      5  C   UNL     1      -0.743   2.098 -22.273  0.00  0.00    +0.092 A 
ATOM      6  C   UNL     1       0.319   2.491 -22.913  0.00  0.00    +0.138 A 
ENDROOT
BRANCH   1   7
ATOM      7  C   UNL     1       1.494   4.125 -23.922  0.00  0.00    +0.193 C 
ATOM      8  O   UNL     1       1.495   4.156 -25.222  0.00  0.00    -0.287 OA
BRANCH   7  11
ATOM      9  C   UNL     1       4.775   4.357 -22.916  0.00  0.00    +0.035 C 
ATOM     10  C   UNL     1       3.715   3.995 -23.575  0.00  0.00    -0.026 C 
ATOM     11  C   UNL     1       2.554   4.488 -23.262  0.00  0.00    +0.047 C 
ENDBRANCH   7  11
ENDBRANCH   1   7
BRANCH   4  12
ATOM     12  O   UNL     1      -2.751   2.553 -21.363  0.00  0.00    -0.495 OA
ATOM     13  C   UNL     1      -3.899   3.116 -21.600  0.00  0.00    +0.277 C 
ENDBRANCH   4  12
BRANCH   2  14
ATOM     14  O   UNL     1      -0.401   5.821 -23.382  0.00  0.00    -0.506 OA
ATOM     15  H   UNL     1       0.305   6.344 -23.059  0.00  0.00    +0.292 HD
ENDBRANCH   2  14
BRANCH   6  16
ATOM     16  O   UNL     1       1.266   1.643 -23.183  0.00  0.00    -0.494 OA
ATOM     17  C   UNL     1       1.860   1.003 -22.220  0.00  0.00    +0.277 C 
ENDBRANCH   6  16
TORSDOF 5
ENDMDL
MODEL 7
REMARK VINA RESULT:    -6.321      1.517      2.622
REMARK INTER + INTRA:          -8.429
REMARK INTER:                  -7.985
REMARK INTRA:                  -0.444
REMARK UNBOUND:                -0.445
REMARK  Name = ZINC000014817799
REMARK  8 active torsions:
REMARK  status: ('A' for Active; 'I' for Inactive)
REMARK    1  A    between atoms: C_1  and  C_2
REMARK    2  A    between atoms: C_3  and  C_4
REMARK    3  A    between atoms: C_4  and  C_6
REMARK    4  A    between atoms: C_7  and  O_8
REMARK    5  A    between atoms: C_10  and  O_11
REMARK    6  A    between atoms: O_11  and  C_12
REMARK    7  A    between atoms: C_14  and  O_15
REMARK    8  A    between atoms: O_15  and  C_16
REMARK                            x       y       z     vdW  Elec       q    Type
REMARK                         _______ _______ _______ _____ _____    ______ ____
ROOT
ATOM      1  C   UNL     1       0.579   2.594 -22.612  0.00  0.00    +0.105 A 
ATOM      2  C   UNL     1       1.149   1.805 -21.750  0.00  0.00    +0.135 A 
ATOM      3  C   UNL     1       2.444   1.785 -21.644  0.00  0.00    +0.092 A 
ATOM      4  C   UNL     1       3.170   2.553 -22.401  0.00  0.00    +0.127 A 
ATOM      5  C   UNL     1       2.601   3.342 -23.263  0.00  0.00    +0.092 A 
ATOM      6  C   UNL     1       1.305   3.363 -23.369  0.00  0.00    +0.138 A 
ENDROOT
BRANCH   1   7
ATOM      7  C   UNL     1      -0.716   2.615 -22.718  0.00  0.00    +0.193 C 
ATOM      8  O   UNL     1      -1.316   1.784 -23.518  0.00  0.00    -0.287 OA
BRANCH   7  11
ATOM      9  C   UNL     1      -3.106   3.903 -20.605  0.00  0.00    +0.035 C 
ATOM     10  C   UNL     1      -2.410   3.053 -21.300  0.00  0.00    -0.026 C 
ATOM     11  C   UNL     1      -1.412   3.466 -22.023  0.00  0.00    +0.047 C 
ENDBRANCH   7  11
ENDBRANCH   1   7
BRANCH   4  12
ATOM     12  O   UNL     1       4.465   2.533 -22.295  0.00  0.00    -0.495 OA
ATOM     13  C   UNL     1       5.022   2.099 -21.202  0.00  0.00    +0.277 C 
ENDBRANCH   4  12
BRANCH   2  14
ATOM     14  O   UNL     1       0.422   1.037 -20.994  0.00  0.00    -0.506 OA
ATOM     15  H   UNL     1      -0.116   0.374 -21.378  0.00  0.00    +0.292 HD
ENDBRANCH   2  14
BRANCH   6  16
ATOM     16  O   UNL     1       0.736   4.152 -24.231  0.00  0.00    -0.494 OA
ATOM     17  C   UNL     1       1.097   4.119 -25.479  0.00  0.00    +0.277 C 
ENDBRANCH   6  16
TORSDOF 5
ENDMDL
MODEL 8
REMARK VINA RESULT:    -6.310      2.288      2.889
REMARK INTER + INTRA:          -8.415
REMARK INTER:                  -8.017
REMARK INTRA:                  -0.398
REMARK UNBOUND:                -0.445
REMARK  Name = ZINC000014817799
REMARK  8 active torsions:
REMARK  status: ('A' for Active; 'I' for Inactive)
REMARK    1  A    between atoms: C_1  and  C_2
REMARK    2  A    between atoms: C_3  and  C_4
REMARK    3  A    between atoms: C_4  and  C_6
REMARK    4  A    between atoms: C_7  and  O_8
REMARK    5  A    between atoms: C_10  and  O_11
REMARK    6  A    between atoms: O_11  and  C_12
REMARK    7  A    between atoms: C_14  and  O_15
REMARK    8  A    between atoms: O_15  and  C_16
REMARK                            x       y       z     vdW  Elec       q    Type
REMARK                         _______ _______ _______ _____ _____    ______ ____
ROOT
ATOM      1  C   UNL     1       0.234   3.374 -24.151  0.00  0.00    +0.105 A 
ATOM      2  C   UNL     1       1.112   3.374 -25.111  0.00  0.00    +0.135 A 
ATOM      3  C   UNL     1       2.172   2.628 -25.022  0.00  0.00    +0.092 A 
ATOM      4  C   UNL     1       2.357   1.882 -23.974  0.00  0.00    +0.127 A 
ATOM      5  C   UNL     1       1.480   1.882 -23.014  0.00  0.00    +0.092 A 
ATOM      6  C   UNL     1       0.419   2.628 -23.102  0.00  0.00    +0.138 A 
ENDROOT
BRANCH   1   7
ATOM      7  C   UNL     1      -0.826   4.120 -24.240  0.00  0.00    +0.193 C 
ATOM      8  O   UNL     1      -0.811   5.330 -23.767  0.00  0.00    -0.287 OA
BRANCH   7  11
ATOM      9  C   UNL     1      -4.089   3.865 -25.301  0.00  0.00    +0.035 C 
ATOM     10  C   UNL     1      -3.012   4.329 -24.739  0.00  0.00    -0.026 C 
ATOM     11  C   UNL     1      -1.903   3.654 -24.802  0.00  0.00    +0.047 C 
ENDBRANCH   7  11
ENDBRANCH   1   7
BRANCH   4  12
ATOM     12  O   UNL     1       3.417   1.137 -23.885  0.00  0.00    -0.495 OA
ATOM     13  C   UNL     1       3.851   0.759 -22.718  0.00  0.00    +0.277 C 
ENDBRANCH   4  12
BRANCH   2  14
ATOM     14  O   UNL     1       0.926   4.120 -26.159  0.00  0.00    -0.506 OA
ATOM     15  H   UNL     1       1.361   4.947 -26.230  0.00  0.00    +0.292 HD
ENDBRANCH   2  14
BRANCH   6  16
ATOM     16  O   UNL     1      -0.458   2.628 -22.142  0.00  0.00    -0.494 OA
ATOM     17  C   UNL     1      -0.596   1.578 -21.389  0.00  0.00    +0.277 C 
ENDBRANCH   6  16
TORSDOF 5
ENDMDL
MODEL 9
REMARK VINA RESULT:    -6.002      1.979      5.076
REMARK INTER + INTRA:          -8.025
REMARK INTER:                  -7.580
REMARK INTRA:                  -0.445
REMARK UNBOUND:                -0.445
REMARK  Name = ZINC000014817799
REMARK  8 active torsions:
REMARK  status: ('A' for Active; 'I' for Inactive)
REMARK    1  A    between atoms: C_1  and  C_2
REMARK    2  A    between atoms: C_3  and  C_4
REMARK    3  A    between atoms: C_4  and  C_6
REMARK    4  A    between atoms: C_7  and  O_8
REMARK    5  A    between atoms: C_10  and  O_11
REMARK    6  A    between atoms: O_11  and  C_12
REMARK    7  A    between atoms: C_14  and  O_15
REMARK    8  A    between atoms: O_15  and  C_16
REMARK                            x       y       z     vdW  Elec       q    Type
REMARK                         _______ _______ _______ _____ _____    ______ ____
ROOT
ATOM      1  C   UNL     1       0.891   2.200 -22.470  0.00  0.00    +0.105 A 
ATOM      2  C   UNL     1      -0.017   1.909 -21.585  0.00  0.00    +0.135 A 
ATOM      3  C   UNL     1      -1.172   2.503 -21.619  0.00  0.00    +0.092 A 
ATOM      4  C   UNL     1      -1.421   3.388 -22.538  0.00  0.00    +0.127 A 
ATOM      5  C   UNL     1      -0.515   3.680 -23.422  0.00  0.00    +0.092 A 
ATOM      6  C   UNL     1       0.642   3.086 -23.389  0.00  0.00    +0.138 A 
ENDROOT
BRANCH   1   7
ATOM      7  C   UNL     1       2.046   1.607 -22.436  0.00  0.00    +0.193 C 
ATOM      8  O   UNL     1       2.173   0.405 -22.915  0.00  0.00    -0.287 OA
BRANCH   7  11
ATOM      9  C   UNL     1       5.148   2.139 -21.046  0.00  0.00    +0.035 C 
ATOM     10  C   UNL     1       4.119   1.532 -21.559  0.00  0.00    -0.026 C 
ATOM     11  C   UNL     1       3.075   2.215 -21.923  0.00  0.00    +0.047 C 
ENDBRANCH   7  11
ENDBRANCH   1   7
BRANCH   4  12
ATOM     12  O   UNL     1      -2.577   3.982 -22.572  0.00  0.00    -0.495 OA
ATOM     13  C   UNL     1      -3.514   3.538 -23.357  0.00  0.00    +0.277 C 
ENDBRANCH   4  12
BRANCH   2  14
ATOM     14  O   UNL     1       0.234   1.024 -20.666  0.00  0.00    -0.506 OA
ATOM     15  H   UNL     1       0.787   0.293 -20.857  0.00  0.00    +0.292 HD
ENDBRANCH   2  14
BRANCH   6  16
ATOM     16  O   UNL     1       1.548   3.377 -24.274  0.00  0.00    -0.494 OA
ATOM     17  C   UNL     1       1.194   3.755 -25.466  0.00  0.00    +0.277 C 
ENDBRANCH   6  16
TORSDOF 5
ENDMDL
