MODEL 1
REMARK VINA RESULT:   -10.352      0.000      0.000
REMARK INTER + INTRA:         -10.654
REMARK INTER:                 -10.654
REMARK INTRA:                   0.000
REMARK UNBOUND:                 0.000
REMARK  Name = CC1=C2CC[C@](C)(O)[C@@H]2[C@H]2OC(=O)[C@H](C)[C@@H]2CC1              ZINC000106803358
REMARK  4 active torsions:
REMARK  status: ('A' for Active; 'I' for Inactive)
REMARK    1  A    between atoms: C_1  and  C_2
REMARK    2  A    between atoms: C_6  and  C_7
REMARK    3  A    between atoms: C_6  and  O_8
REMARK    4  A    between atoms: C_14  and  C_15
REMARK                            x       y       z     vdW  Elec       q    Type
REMARK                         _______ _______ _______ _____ _____    ______ ____
ROOT
ATOM      1  C   UNL     1      -5.764   3.385 -22.136  0.00  0.00    +0.039 C 
ATOM      2  C   UNL     1      -4.517   3.113 -22.385  0.00  0.00    -0.073 C 
ATOM      3  C   UNL     1      -4.139   3.274 -23.618  0.00  0.00    -0.061 C 
ATOM      4  C   UNL     1      -4.934   3.680 -24.563  0.00  0.00    +0.034 C 
ATOM      5  C   UNL     1      -4.250   3.734 -25.668  0.00  0.00    +0.039 C 
ATOM      6  C   UNL     1      -3.033   3.363 -25.405  0.00  0.00    +0.073 C 
ATOM      7  C   UNL     1      -2.839   3.578 -26.672  0.00  0.00    +0.042 C 
ATOM      8  C   UNL     1      -2.964   3.078 -24.138  0.00  0.00    +0.087 C 
ATOM      9  C   UNL     1      -1.876   2.672 -23.553  0.00  0.00    +0.190 C 
ATOM     10  O   UNL     1      -0.746   2.509 -24.175  0.00  0.00    -0.460 OA
ATOM     11  C   UNL     1       0.133   2.099 -23.310  0.00  0.00    +0.311 C 
ATOM     12  C   UNL     1      -0.454   2.008 -22.153  0.00  0.00    +0.101 C 
ATOM     13  C   UNL     1       0.104   1.630 -21.042  0.00  0.00    +0.019 C 
ATOM     14  O   UNL     1       1.380   1.827 -23.558  0.00  0.00    -0.251 OA
ATOM     15  C   UNL     1      -1.695   2.363 -22.303  0.00  0.00    +0.044 C 
ATOM     16  C   UNL     1      -2.557   2.382 -21.330  0.00  0.00    +0.012 C 
ATOM     17  C   UNL     1      -3.812   2.716 -21.366  0.00  0.00    +0.031 C 
ENDROOT
BRANCH   6  18
ATOM     18  O   UNL     1      -1.774   3.036 -25.407  0.00  0.00    -0.388 OA
ATOM     19  H   UNL     1      -1.597   2.428 -24.673  0.00  0.00    +0.210 HD
ENDBRANCH   6  18
TORSDOF 1
ENDMDL
MODEL 2
REMARK VINA RESULT:    -9.864      1.612      3.167
REMARK INTER + INTRA:         -10.153
REMARK INTER:                 -10.153
REMARK INTRA:                   0.000
REMARK UNBOUND:                 0.000
REMARK  Name = CC1=C2CC[C@](C)(O)[C@@H]2[C@H]2OC(=O)[C@H](C)[C@@H]2CC1              ZINC000106803358
REMARK  4 active torsions:
REMARK  status: ('A' for Active; 'I' for Inactive)
REMARK    1  A    between atoms: C_1  and  C_2
REMARK    2  A    between atoms: C_6  and  C_7
REMARK    3  A    between atoms: C_6  and  O_8
REMARK    4  A    between atoms: C_14  and  C_15
REMARK                            x       y       z     vdW  Elec       q    Type
REMARK                         _______ _______ _______ _____ _____    ______ ____
ROOT
ATOM      1  C   UNL     1      -3.798   4.449 -25.872  0.00  0.00    +0.039 C 
ATOM      2  C   UNL     1      -3.057   3.896 -24.957  0.00  0.00    -0.073 C 
ATOM      3  C   UNL     1      -3.666   3.575 -23.855  0.00  0.00    -0.061 C 
ATOM      4  C   UNL     1      -4.933   3.781 -23.651  0.00  0.00    +0.034 C 
ATOM      5  C   UNL     1      -5.224   3.349 -22.460  0.00  0.00    +0.039 C 
ATOM      6  C   UNL     1      -4.137   2.876 -21.927  0.00  0.00    +0.073 C 
ATOM      7  C   UNL     1      -4.906   2.627 -20.909  0.00  0.00    +0.042 C 
ATOM      8  C   UNL     1      -3.173   3.016 -22.789  0.00  0.00    +0.087 C 
ATOM      9  C   UNL     1      -1.949   2.640 -22.563  0.00  0.00    +0.190 C 
ATOM     10  O   UNL     1      -1.564   2.087 -21.452  0.00  0.00    -0.460 OA
ATOM     11  C   UNL     1      -0.292   1.836 -21.549  0.00  0.00    +0.311 C 
ATOM     12  C   UNL     1       0.108   2.234 -22.720  0.00  0.00    +0.101 C 
ATOM     13  C   UNL     1       1.320   2.149 -23.183  0.00  0.00    +0.019 C 
ATOM     14  O   UNL     1       0.450   1.283 -20.635  0.00  0.00    -0.251 OA
ATOM     15  C   UNL     1      -0.916   2.731 -23.347  0.00  0.00    +0.044 C 
ATOM     16  C   UNL     1      -0.851   3.220 -24.550  0.00  0.00    +0.012 C 
ATOM     17  C   UNL     1      -1.804   3.738 -25.267  0.00  0.00    +0.031 C 
ENDROOT
BRANCH   6  18
ATOM     18  O   UNL     1      -3.209   2.352 -21.182  0.00  0.00    -0.388 OA
ATOM     19  H   UNL     1      -2.669   3.057 -20.793  0.00  0.00    +0.210 HD
ENDBRANCH   6  18
TORSDOF 1
ENDMDL
MODEL 3
REMARK VINA RESULT:    -9.633      1.434      3.273
REMARK INTER + INTRA:          -9.915
REMARK INTER:                  -9.915
REMARK INTRA:                   0.000
REMARK UNBOUND:                 0.000
REMARK  Name = CC1=C2CC[C@](C)(O)[C@@H]2[C@H]2OC(=O)[C@H](C)[C@@H]2CC1              ZINC000106803358
REMARK  4 active torsions:
REMARK  status: ('A' for Active; 'I' for Inactive)
REMARK    1  A    between atoms: C_1  and  C_2
REMARK    2  A    between atoms: C_6  and  C_7
REMARK    3  A    between atoms: C_6  and  O_8
REMARK    4  A    between atoms: C_14  and  C_15
REMARK                            x       y       z     vdW  Elec       q    Type
REMARK                         _______ _______ _______ _____ _____    ______ ____
ROOT
ATOM      1  C   UNL     1      -5.071   3.753 -25.361  0.00  0.00    +0.039 C 
ATOM      2  C   UNL     1      -3.883   3.599 -24.856  0.00  0.00    -0.073 C 
ATOM      3  C   UNL     1      -3.827   3.506 -23.561  0.00  0.00    -0.061 C 
ATOM      4  C   UNL     1      -4.874   3.560 -22.793  0.00  0.00    +0.034 C 
ATOM      5  C   UNL     1      -4.476   3.437 -21.561  0.00  0.00    +0.039 C 
ATOM      6  C   UNL     1      -3.183   3.307 -21.568  0.00  0.00    +0.073 C 
ATOM      7  C   UNL     1      -3.320   3.234 -20.278  0.00  0.00    +0.042 C 
ATOM      8  C   UNL     1      -2.781   3.349 -22.804  0.00  0.00    +0.087 C 
ATOM      9  C   UNL     1      -1.533   3.247 -23.156  0.00  0.00    +0.190 C 
ATOM     10  O   UNL     1      -0.561   3.092 -22.307  0.00  0.00    -0.460 OA
ATOM     11  C   UNL     1       0.550   3.025 -22.979  0.00  0.00    +0.311 C 
ATOM     12  C   UNL     1       0.264   3.139 -24.242  0.00  0.00    +0.101 C 
ATOM     13  C   UNL     1       1.117   3.119 -25.223  0.00  0.00    +0.019 C 
ATOM     14  O   UNL     1       1.739   2.871 -22.476  0.00  0.00    -0.251 OA
ATOM     15  C   UNL     1      -1.024   3.277 -24.352  0.00  0.00    +0.044 C 
ATOM     16  C   UNL     1      -1.635   3.415 -25.490  0.00  0.00    +0.012 C 
ATOM     17  C   UNL     1      -2.907   3.558 -25.715  0.00  0.00    +0.031 C 
ENDROOT
BRANCH   6  18
ATOM     18  O   UNL     1      -1.918   3.161 -21.305  0.00  0.00    -0.388 OA
ATOM     19  H   UNL     1      -1.392   3.540 -22.026  0.00  0.00    +0.210 HD
ENDBRANCH   6  18
TORSDOF 1
ENDMDL
MODEL 4
REMARK VINA RESULT:    -8.996      1.931      5.115
REMARK INTER + INTRA:          -9.259
REMARK INTER:                  -9.259
REMARK INTRA:                   0.000
REMARK UNBOUND:                 0.000
REMARK  Name = CC1=C2CC[C@](C)(O)[C@@H]2[C@H]2OC(=O)[C@H](C)[C@@H]2CC1              ZINC000106803358
REMARK  4 active torsions:
REMARK  status: ('A' for Active; 'I' for Inactive)
REMARK    1  A    between atoms: C_1  and  C_2
REMARK    2  A    between atoms: C_6  and  C_7
REMARK    3  A    between atoms: C_6  and  O_8
REMARK    4  A    between atoms: C_14  and  C_15
REMARK                            x       y       z     vdW  Elec       q    Type
REMARK                         _______ _______ _______ _____ _____    ______ ____
ROOT
ATOM      1  C   UNL     1       1.194   3.378 -25.587  0.00  0.00    +0.039 C 
ATOM      2  C   UNL     1       0.087   3.303 -24.909  0.00  0.00    -0.073 C 
ATOM      3  C   UNL     1       0.182   2.765 -23.730  0.00  0.00    -0.061 C 
ATOM      4  C   UNL     1       1.298   2.320 -23.234  0.00  0.00    +0.034 C 
ATOM      5  C   UNL     1       1.051   1.848 -22.048  0.00  0.00    +0.039 C 
ATOM      6  C   UNL     1      -0.218   2.000 -21.811  0.00  0.00    +0.073 C 
ATOM      7  C   UNL     1       0.066   1.441 -20.673  0.00  0.00    +0.042 C 
ATOM      8  C   UNL     1      -0.756   2.567 -22.851  0.00  0.00    +0.087 C 
ATOM      9  C   UNL     1      -2.020   2.859 -22.935  0.00  0.00    +0.190 C 
ATOM     10  O   UNL     1      -2.876   2.614 -21.987  0.00  0.00    -0.460 OA
ATOM     11  C   UNL     1      -4.043   3.025 -22.384  0.00  0.00    +0.311 C 
ATOM     12  C   UNL     1      -3.909   3.524 -23.578  0.00  0.00    +0.101 C 
ATOM     13  C   UNL     1      -4.858   4.035 -24.303  0.00  0.00    +0.019 C 
ATOM     14  O   UNL     1      -5.151   2.951 -21.708  0.00  0.00    -0.251 OA
ATOM     15  C   UNL     1      -2.658   3.421 -23.918  0.00  0.00    +0.044 C 
ATOM     16  C   UNL     1      -2.191   3.830 -25.060  0.00  0.00    +0.012 C 
ATOM     17  C   UNL     1      -0.970   3.777 -25.501  0.00  0.00    +0.031 C 
ENDROOT
BRANCH   6  18
ATOM     18  O   UNL     1      -1.428   2.036 -21.337  0.00  0.00    -0.388 OA
ATOM     19  H   UNL     1      -1.414   2.404 -20.440  0.00  0.00    +0.210 HD
ENDBRANCH   6  18
TORSDOF 1
ENDMDL
MODEL 5
REMARK VINA RESULT:    -8.811      1.705      4.438
REMARK INTER + INTRA:          -9.068
REMARK INTER:                  -9.068
REMARK INTRA:                   0.000
REMARK UNBOUND:                 0.000
REMARK  Name = CC1=C2CC[C@](C)(O)[C@@H]2[C@H]2OC(=O)[C@H](C)[C@@H]2CC1              ZINC000106803358
REMARK  4 active torsions:
REMARK  status: ('A' for Active; 'I' for Inactive)
REMARK    1  A    between atoms: C_1  and  C_2
REMARK    2  A    between atoms: C_6  and  C_7
REMARK    3  A    between atoms: C_6  and  O_8
REMARK    4  A    between atoms: C_14  and  C_15
REMARK                            x       y       z     vdW  Elec       q    Type
REMARK                         _______ _______ _______ _____ _____    ______ ____
ROOT
ATOM      1  C   UNL     1       2.124   1.298 -21.432  0.00  0.00    +0.039 C 
ATOM      2  C   UNL     1       0.992   1.771 -21.863  0.00  0.00    -0.073 C 
ATOM      3  C   UNL     1       1.040   2.407 -22.995  0.00  0.00    -0.061 C 
ATOM      4  C   UNL     1       2.135   2.575 -23.676  0.00  0.00    +0.034 C 
ATOM      5  C   UNL     1       1.841   3.247 -24.750  0.00  0.00    +0.039 C 
ATOM      6  C   UNL     1       0.565   3.494 -24.733  0.00  0.00    +0.073 C 
ATOM      7  C   UNL     1       0.804   4.090 -25.863  0.00  0.00    +0.042 C 
ATOM      8  C   UNL     1       0.069   2.975 -23.648  0.00  0.00    +0.087 C 
ATOM      9  C   UNL     1      -1.189   3.046 -23.330  0.00  0.00    +0.190 C 
ATOM     10  O   UNL     1      -2.080   3.644 -24.063  0.00  0.00    -0.460 OA
ATOM     11  C   UNL     1      -3.230   3.535 -23.466  0.00  0.00    +0.311 C 
ATOM     12  C   UNL     1      -3.049   2.869 -22.364  0.00  0.00    +0.101 C 
ATOM     13  C   UNL     1      -3.968   2.561 -21.498  0.00  0.00    +0.019 C 
ATOM     14  O   UNL     1      -4.362   4.007 -23.896  0.00  0.00    -0.251 OA
ATOM     15  C   UNL     1      -1.787   2.567 -22.279  0.00  0.00    +0.044 C 
ATOM     16  C   UNL     1      -1.276   1.900 -21.289  0.00  0.00    +0.012 C 
ATOM     17  C   UNL     1      -0.039   1.545 -21.103  0.00  0.00    +0.031 C 
ENDROOT
BRANCH   6  18
ATOM     18  O   UNL     1      -0.662   3.865 -24.952  0.00  0.00    -0.388 OA
ATOM     19  H   UNL     1      -0.757   4.135 -25.878  0.00  0.00    +0.210 HD
ENDBRANCH   6  18
TORSDOF 1
ENDMDL
MODEL 6
REMARK VINA RESULT:    -8.510      1.428      2.406
REMARK INTER + INTRA:          -8.759
REMARK INTER:                  -8.759
REMARK INTRA:                   0.000
REMARK UNBOUND:                 0.000
REMARK  Name = CC1=C2CC[C@](C)(O)[C@@H]2[C@H]2OC(=O)[C@H](C)[C@@H]2CC1              ZINC000106803358
REMARK  4 active torsions:
REMARK  status: ('A' for Active; 'I' for Inactive)
REMARK    1  A    between atoms: C_1  and  C_2
REMARK    2  A    between atoms: C_6  and  C_7
REMARK    3  A    between atoms: C_6  and  O_8
REMARK    4  A    between atoms: C_14  and  C_15
REMARK                            x       y       z     vdW  Elec       q    Type
REMARK                         _______ _______ _______ _____ _____    ______ ____
ROOT
ATOM      1  C   UNL     1      -3.004   2.605 -20.926  0.00  0.00    +0.039 C 
ATOM      2  C   UNL     1      -1.892   2.425 -21.576  0.00  0.00    -0.073 C 
ATOM      3  C   UNL     1      -1.903   2.786 -22.824  0.00  0.00    -0.061 C 
ATOM      4  C   UNL     1      -2.944   3.296 -23.413  0.00  0.00    +0.034 C 
ATOM      5  C   UNL     1      -2.625   3.545 -24.649  0.00  0.00    +0.039 C 
ATOM      6  C   UNL     1      -1.387   3.188 -24.824  0.00  0.00    +0.073 C 
ATOM      7  C   UNL     1      -1.583   3.601 -26.041  0.00  0.00    +0.042 C 
ATOM      8  C   UNL     1      -0.940   2.719 -23.696  0.00  0.00    +0.087 C 
ATOM      9  C   UNL     1       0.270   2.274 -23.534  0.00  0.00    +0.190 C 
ATOM     10  O   UNL     1       1.159   2.254 -24.483  0.00  0.00    -0.460 OA
ATOM     11  C   UNL     1       2.255   1.754 -23.996  0.00  0.00    +0.311 C 
ATOM     12  C   UNL     1       2.044   1.466 -22.746  0.00  0.00    +0.101 C 
ATOM     13  C   UNL     1       2.909   0.947 -21.926  0.00  0.00    +0.019 C 
ATOM     14  O   UNL     1       3.368   1.574 -24.645  0.00  0.00    -0.251 OA
ATOM     15  C   UNL     1       0.818   1.787 -22.460  0.00  0.00    +0.044 C 
ATOM     16  C   UNL     1       0.290   1.624 -21.284  0.00  0.00    +0.012 C 
ATOM     17  C   UNL     1      -0.916   1.908 -20.890  0.00  0.00    +0.031 C 
ENDROOT
BRANCH   6  18
ATOM     18  O   UNL     1      -0.190   2.918 -25.253  0.00  0.00    -0.388 OA
ATOM     19  H   UNL     1       0.386   2.718 -24.500  0.00  0.00    +0.210 HD
ENDBRANCH   6  18
TORSDOF 1
ENDMDL
MODEL 7
REMARK VINA RESULT:    -8.073      2.963      5.231
REMARK INTER + INTRA:          -8.309
REMARK INTER:                  -8.309
REMARK INTRA:                   0.000
REMARK UNBOUND:                 0.000
REMARK  Name = CC1=C2CC[C@](C)(O)[C@@H]2[C@H]2OC(=O)[C@H](C)[C@@H]2CC1              ZINC000106803358
REMARK  4 active torsions:
REMARK  status: ('A' for Active; 'I' for Inactive)
REMARK    1  A    between atoms: C_1  and  C_2
REMARK    2  A    between atoms: C_6  and  C_7
REMARK    3  A    between atoms: C_6  and  O_8
REMARK    4  A    between atoms: C_14  and  C_15
REMARK                            x       y       z     vdW  Elec       q    Type
REMARK                         _______ _______ _______ _____ _____    ______ ____
ROOT
ATOM      1  C   UNL     1       0.864   4.110 -25.508  0.00  0.00    +0.039 C 
ATOM      2  C   UNL     1       1.376   3.383 -24.560  0.00  0.00    -0.073 C 
ATOM      3  C   UNL     1       0.530   2.904 -23.697  0.00  0.00    -0.061 C 
ATOM      4  C   UNL     1      -0.750   3.121 -23.752  0.00  0.00    +0.034 C 
ATOM      5  C   UNL     1      -1.306   2.506 -22.751  0.00  0.00    +0.039 C 
ATOM      6  C   UNL     1      -0.369   1.908 -22.077  0.00  0.00    +0.073 C 
ATOM      7  C   UNL     1      -1.351   1.520 -21.318  0.00  0.00    +0.042 C 
ATOM      8  C   UNL     1       0.766   2.153 -22.661  0.00  0.00    +0.087 C 
ATOM      9  C   UNL     1       1.906   1.698 -22.233  0.00  0.00    +0.190 C 
ATOM     10  O   UNL     1       2.027   0.950 -21.177  0.00  0.00    -0.460 OA
ATOM     11  C   UNL     1       3.287   0.669 -21.026  0.00  0.00    +0.311 C 
ATOM     12  C   UNL     1       3.945   1.243 -21.989  0.00  0.00    +0.101 C 
ATOM     13  C   UNL     1       5.230   1.191 -22.174  0.00  0.00    +0.019 C 
ATOM     14  O   UNL     1       3.800  -0.059 -20.079  0.00  0.00    -0.251 OA
ATOM     15  C   UNL     1       3.091   1.879 -22.736  0.00  0.00    +0.044 C 
ATOM     16  C   UNL     1       3.430   2.561 -23.789  0.00  0.00    +0.012 C 
ATOM     17  C   UNL     1       2.667   3.230 -24.601  0.00  0.00    +0.031 C 
ENDROOT
BRANCH   6  18
ATOM     18  O   UNL     1       0.363   1.229 -21.244  0.00  0.00    -0.388 OA
ATOM     19  H   UNL     1       0.645   0.401 -21.662  0.00  0.00    +0.210 HD
ENDBRANCH   6  18
TORSDOF 1
ENDMDL
MODEL 8
REMARK VINA RESULT:    -7.942      2.017      3.929
REMARK INTER + INTRA:          -8.174
REMARK INTER:                  -8.174
REMARK INTRA:                   0.000
REMARK UNBOUND:                 0.000
REMARK  Name = CC1=C2CC[C@](C)(O)[C@@H]2[C@H]2OC(=O)[C@H](C)[C@@H]2CC1              ZINC000106803358
REMARK  4 active torsions:
REMARK  status: ('A' for Active; 'I' for Inactive)
REMARK    1  A    between atoms: C_1  and  C_2
REMARK    2  A    between atoms: C_6  and  C_7
REMARK    3  A    between atoms: C_6  and  O_8
REMARK    4  A    between atoms: C_14  and  C_15
REMARK                            x       y       z     vdW  Elec       q    Type
REMARK                         _______ _______ _______ _____ _____    ______ ____
ROOT
ATOM      1  C   UNL     1      -1.023   3.725 -25.942  0.00  0.00    +0.039 C 
ATOM      2  C   UNL     1      -0.514   3.278 -24.833  0.00  0.00    -0.073 C 
ATOM      3  C   UNL     1      -1.354   3.104 -23.856  0.00  0.00    -0.061 C 
ATOM      4  C   UNL     1      -2.626   3.352 -23.953  0.00  0.00    +0.034 C 
ATOM      5  C   UNL     1      -3.179   3.074 -22.809  0.00  0.00    +0.039 C 
ATOM      6  C   UNL     1      -2.248   2.654 -22.005  0.00  0.00    +0.073 C 
ATOM      7  C   UNL     1      -3.223   2.543 -21.153  0.00  0.00    +0.042 C 
ATOM      8  C   UNL     1      -1.120   2.672 -22.652  0.00  0.00    +0.087 C 
ATOM      9  C   UNL     1       0.013   2.308 -22.127  0.00  0.00    +0.190 C 
ATOM     10  O   UNL     1       0.133   1.889 -20.903  0.00  0.00    -0.460 OA
ATOM     11  C   UNL     1       1.385   1.608 -20.696  0.00  0.00    +0.311 C 
ATOM     12  C   UNL     1       2.039   1.854 -21.793  0.00  0.00    +0.101 C 
ATOM     13  C   UNL     1       3.316   1.694 -21.973  0.00  0.00    +0.019 C 
ATOM     14  O   UNL     1       1.895   1.161 -19.587  0.00  0.00    -0.251 OA
ATOM     15  C   UNL     1       1.191   2.286 -22.678  0.00  0.00    +0.044 C 
ATOM     16  C   UNL     1       1.527   2.622 -23.887  0.00  0.00    +0.012 C 
ATOM     17  C   UNL     1       0.769   3.063 -24.846  0.00  0.00    +0.031 C 
ENDROOT
BRANCH   6  18
ATOM     18  O   UNL     1      -1.521   2.211 -21.023  0.00  0.00    -0.388 OA
ATOM     19  H   UNL     1      -1.530   1.241 -21.025  0.00  0.00    +0.210 HD
ENDBRANCH   6  18
TORSDOF 1
ENDMDL
MODEL 9
REMARK VINA RESULT:    -7.798      2.878      4.436
REMARK INTER + INTRA:          -8.026
REMARK INTER:                  -8.026
REMARK INTRA:                   0.000
REMARK UNBOUND:                 0.000
REMARK  Name = CC1=C2CC[C@](C)(O)[C@@H]2[C@H]2OC(=O)[C@H](C)[C@@H]2CC1              ZINC000106803358
REMARK  4 active torsions:
REMARK  status: ('A' for Active; 'I' for Inactive)
REMARK    1  A    between atoms: C_1  and  C_2
REMARK    2  A    between atoms: C_6  and  C_7
REMARK    3  A    between atoms: C_6  and  O_8
REMARK    4  A    between atoms: C_14  and  C_15
REMARK                            x       y       z     vdW  Elec       q    Type
REMARK                         _______ _______ _______ _____ _____    ______ ____
ROOT
ATOM      1  C   UNL     1      -1.244   1.636 -21.397  0.00  0.00    +0.039 C 
ATOM      2  C   UNL     1      -0.024   1.899 -21.759  0.00  0.00    -0.073 C 
ATOM      3  C   UNL     1       0.107   2.527 -22.889  0.00  0.00    -0.061 C 
ATOM      4  C   UNL     1      -0.899   2.884 -23.631  0.00  0.00    +0.034 C 
ATOM      5  C   UNL     1      -0.429   3.487 -24.683  0.00  0.00    +0.039 C 
ATOM      6  C   UNL     1       0.867   3.504 -24.591  0.00  0.00    +0.073 C 
ATOM      7  C   UNL     1       0.804   4.127 -25.730  0.00  0.00    +0.042 C 
ATOM      8  C   UNL     1       1.200   2.910 -23.482  0.00  0.00    +0.087 C 
ATOM      9  C   UNL     1       2.430   2.759 -23.092  0.00  0.00    +0.190 C 
ATOM     10  O   UNL     1       3.454   3.185 -23.770  0.00  0.00    -0.460 OA
ATOM     11  C   UNL     1       4.530   2.876 -23.108  0.00  0.00    +0.311 C 
ATOM     12  C   UNL     1       4.170   2.259 -22.022  0.00  0.00    +0.101 C 
ATOM     13  C   UNL     1       4.969   1.796 -21.106  0.00  0.00    +0.019 C 
ATOM     14  O   UNL     1       5.751   3.138 -23.469  0.00  0.00    -0.251 OA
ATOM     15  C   UNL     1       2.872   2.187 -22.011  0.00  0.00    +0.044 C 
ATOM     16  C   UNL     1       2.194   1.625 -21.055  0.00  0.00    +0.012 C 
ATOM     17  C   UNL     1       0.906   1.497 -20.943  0.00  0.00    +0.031 C 
ENDROOT
BRANCH   6  18
ATOM     18  O   UNL     1       2.151   3.650 -24.737  0.00  0.00    -0.388 OA
ATOM     19  H   UNL     1       2.613   3.182 -24.025  0.00  0.00    +0.210 HD
ENDBRANCH   6  18
TORSDOF 1
ENDMDL
