MODEL 1
REMARK VINA RESULT:   -10.825      0.000      0.000
REMARK INTER + INTRA:         -11.555
REMARK INTER:                 -11.455
REMARK INTRA:                  -0.099
REMARK UNBOUND:                -0.096
REMARK  Name = ZINC000034347840
REMARK  4 active torsions:
REMARK  status: ('A' for Active; 'I' for Inactive)
REMARK    1  A    between atoms: C_1  and  O_2
REMARK    2  A    between atoms: O_2  and  C_3
REMARK    3  A    between atoms: N_12  and  C_13
REMARK    4  A    between atoms: C_17  and  C_18
REMARK                            x       y       z     vdW  Elec       q    Type
REMARK                         _______ _______ _______ _____ _____    ______ ____
ROOT
ATOM      1  C   UNL     1       0.148   3.845 -23.909  0.00  0.00    +0.120 A 
ATOM      2  C   UNL     1      -0.066   3.794 -25.158  0.00  0.00    +0.046 A 
ATOM      3  C   UNL     1      -1.259   3.682 -25.567  0.00  0.00    +0.008 A 
ATOM      4  C   UNL     1      -2.352   3.614 -24.585  0.00  0.00    -0.038 A 
ATOM      5  C   UNL     1      -2.098   3.663 -23.557  0.00  0.00    -0.033 A 
ATOM      6  C   UNL     1      -2.638   3.637 -22.774  0.00  0.00    +0.016 C 
ATOM      7  C   UNL     1      -1.520   3.700 -24.033  0.00  0.00    +0.063 C 
ATOM      8  C   UNL     1      -1.998   3.623 -25.425  0.00  0.00    +0.132 C 
ATOM      9  N   UNL     1      -3.151   3.519 -25.633  0.00  0.00    +0.236 N 
ATOM     10  H   UNL     1      -4.155   3.438 -25.473  0.00  0.00    +0.203 HD
ATOM     11  C   UNL     1      -4.218   3.459 -24.463  0.00  0.00    +0.073 C 
ATOM     12  C   UNL     1      -2.942   3.501 -27.018  0.00  0.00    +0.190 C 
ATOM     13  C   UNL     1      -2.345   3.693 -21.552  0.00  0.00    +0.086 C 
ATOM     14  C   UNL     1      -3.284   3.636 -20.659  0.00  0.00    +0.134 C 
ATOM     15  O   UNL     1      -2.981   3.694 -19.412  0.00  0.00    -0.297 OA
ATOM     16  C   UNL     1      -4.548   3.520 -21.013  0.00  0.00    +0.078 C 
ATOM     17  C   UNL     1      -4.895   3.458 -22.260  0.00  0.00    +0.002 C 
ATOM     18  C   UNL     1      -6.134   3.344 -22.588  0.00  0.00    +0.008 C 
ATOM     19  C   UNL     1      -4.009   3.510 -23.156  0.00  0.00    +0.052 C 
ATOM     20  C   UNL     1      -3.545   3.502 -25.004  0.00  0.00    +0.090 C 
ATOM     21  C   UNL     1      -0.856   3.780 -23.098  0.00  0.00    +0.050 A 
ENDROOT
BRANCH   1  23
ATOM     22  C   UNL     1       2.293   4.762 -23.243  0.00  0.00    +0.277 C 
ATOM     23  O   UNL     1       1.320   3.964 -23.161  0.00  0.00    -0.495 OA
ENDBRANCH   1  23
TORSDOF 1
ENDMDL
MODEL 2
REMARK VINA RESULT:   -10.187      2.125      4.755
REMARK INTER + INTRA:         -10.879
REMARK INTER:                 -10.738
REMARK INTRA:                  -0.142
REMARK UNBOUND:                -0.096
REMARK  Name = ZINC000034347840
REMARK  4 active torsions:
REMARK  status: ('A' for Active; 'I' for Inactive)
REMARK    1  A    between atoms: C_1  and  O_2
REMARK    2  A    between atoms: O_2  and  C_3
REMARK    3  A    between atoms: N_12  and  C_13
REMARK    4  A    between atoms: C_17  and  C_18
REMARK                            x       y       z     vdW  Elec       q    Type
REMARK                         _______ _______ _______ _____ _____    ______ ____
ROOT
ATOM      1  C   UNL     1      -3.646   3.844 -24.974  0.00  0.00    +0.120 A 
ATOM      2  C   UNL     1      -4.534   3.750 -24.074  0.00  0.00    +0.046 A 
ATOM      3  C   UNL     1      -4.202   3.307 -22.935  0.00  0.00    +0.008 A 
ATOM      4  C   UNL     1      -2.804   2.919 -22.695  0.00  0.00    -0.038 A 
ATOM      5  C   UNL     1      -2.116   3.025 -23.495  0.00  0.00    -0.033 A 
ATOM      6  C   UNL     1      -1.185   2.836 -23.552  0.00  0.00    +0.016 C 
ATOM      7  C   UNL     1      -2.820   3.231 -23.647  0.00  0.00    +0.063 C 
ATOM      8  C   UNL     1      -3.677   3.038 -22.464  0.00  0.00    +0.132 C 
ATOM      9  N   UNL     1      -3.205   2.613 -21.474  0.00  0.00    +0.236 N 
ATOM     10  H   UNL     1      -2.519   2.247 -20.814  0.00  0.00    +0.203 HD
ATOM     11  C   UNL     1      -1.669   2.236 -21.365  0.00  0.00    +0.073 C 
ATOM     12  C   UNL     1      -4.437   2.672 -20.810  0.00  0.00    +0.190 C 
ATOM     13  C   UNL     1      -0.362   2.958 -24.496  0.00  0.00    +0.086 C 
ATOM     14  C   UNL     1       0.879   2.625 -24.319  0.00  0.00    +0.134 C 
ATOM     15  O   UNL     1       1.716   2.752 -25.285  0.00  0.00    -0.297 OA
ATOM     16  C   UNL     1       1.295   2.157 -23.160  0.00  0.00    +0.078 C 
ATOM     17  C   UNL     1       0.482   2.015 -22.160  0.00  0.00    +0.002 C 
ATOM     18  C   UNL     1       0.905   1.556 -21.035  0.00  0.00    +0.008 C 
ATOM     19  C   UNL     1      -0.732   2.328 -22.295  0.00  0.00    +0.052 C 
ATOM     20  C   UNL     1      -2.479   2.476 -21.550  0.00  0.00    +0.090 C 
ATOM     21  C   UNL     1      -2.435   3.486 -24.700  0.00  0.00    +0.050 A 
ENDROOT
BRANCH   1  23
ATOM     22  C   UNL     1      -3.313   3.750 -27.376  0.00  0.00    +0.277 C 
ATOM     23  O   UNL     1      -3.693   4.283 -26.298  0.00  0.00    -0.495 OA
ENDBRANCH   1  23
TORSDOF 1
ENDMDL
MODEL 3
REMARK VINA RESULT:   -10.119      1.864      2.442
REMARK INTER + INTRA:         -10.807
REMARK INTER:                 -10.710
REMARK INTRA:                  -0.097
REMARK UNBOUND:                -0.096
REMARK  Name = ZINC000034347840
REMARK  4 active torsions:
REMARK  status: ('A' for Active; 'I' for Inactive)
REMARK    1  A    between atoms: C_1  and  O_2
REMARK    2  A    between atoms: O_2  and  C_3
REMARK    3  A    between atoms: N_12  and  C_13
REMARK    4  A    between atoms: C_17  and  C_18
REMARK                            x       y       z     vdW  Elec       q    Type
REMARK                         _______ _______ _______ _____ _____    ______ ____
ROOT
ATOM      1  C   UNL     1       0.688   1.981 -21.864  0.00  0.00    +0.120 A 
ATOM      2  C   UNL     1       1.348   2.380 -22.871  0.00  0.00    +0.046 A 
ATOM      3  C   UNL     1       0.732   2.968 -23.808  0.00  0.00    +0.008 A 
ATOM      4  C   UNL     1      -0.720   3.169 -23.699  0.00  0.00    -0.038 A 
ATOM      5  C   UNL     1      -1.206   2.809 -22.827  0.00  0.00    -0.033 A 
ATOM      6  C   UNL     1      -2.119   2.835 -22.561  0.00  0.00    +0.016 C 
ATOM      7  C   UNL     1      -0.466   2.692 -22.854  0.00  0.00    +0.063 C 
ATOM      8  C   UNL     1       0.091   3.234 -24.106  0.00  0.00    +0.132 C 
ATOM      9  N   UNL     1      -0.626   3.755 -24.878  0.00  0.00    +0.236 N 
ATOM     10  H   UNL     1      -1.474   4.125 -25.307  0.00  0.00    +0.203 HD
ATOM     11  C   UNL     1      -2.183   3.899 -24.620  0.00  0.00    +0.073 C 
ATOM     12  C   UNL     1       0.436   4.016 -25.754  0.00  0.00    +0.190 C 
ATOM     13  C   UNL     1      -2.703   2.411 -21.530  0.00  0.00    +0.086 C 
ATOM     14  C   UNL     1      -3.983   2.571 -21.400  0.00  0.00    +0.134 C 
ATOM     15  O   UNL     1      -4.575   2.137 -20.346  0.00  0.00    -0.297 OA
ATOM     16  C   UNL     1      -4.687   3.175 -22.336  0.00  0.00    +0.078 C 
ATOM     17  C   UNL     1      -4.128   3.627 -23.414  0.00  0.00    +0.002 C 
ATOM     18  C   UNL     1      -4.831   4.213 -24.317  0.00  0.00    +0.008 C 
ATOM     19  C   UNL     1      -2.885   3.489 -23.574  0.00  0.00    +0.052 C 
ATOM     20  C   UNL     1      -1.330   3.760 -24.643  0.00  0.00    +0.090 C 
ATOM     21  C   UNL     1      -0.587   2.189 -21.828  0.00  0.00    +0.050 A 
ENDROOT
BRANCH   1  23
ATOM     22  C   UNL     1       2.182   1.194 -20.122  0.00  0.00    +0.277 C 
ATOM     23  O   UNL     1       1.067   1.317 -20.697  0.00  0.00    -0.495 OA
ENDBRANCH   1  23
TORSDOF 1
ENDMDL
MODEL 4
REMARK VINA RESULT:    -9.771      2.074      3.782
REMARK INTER + INTRA:         -10.438
REMARK INTER:                 -10.291
REMARK INTRA:                  -0.148
REMARK UNBOUND:                -0.096
REMARK  Name = ZINC000034347840
REMARK  4 active torsions:
REMARK  status: ('A' for Active; 'I' for Inactive)
REMARK    1  A    between atoms: C_1  and  O_2
REMARK    2  A    between atoms: O_2  and  C_3
REMARK    3  A    between atoms: N_12  and  C_13
REMARK    4  A    between atoms: C_17  and  C_18
REMARK                            x       y       z     vdW  Elec       q    Type
REMARK                         _______ _______ _______ _____ _____    ______ ____
ROOT
ATOM      1  C   UNL     1      -0.135   2.111 -22.737  0.00  0.00    +0.120 A 
ATOM      2  C   UNL     1      -0.440   2.148 -21.507  0.00  0.00    +0.046 A 
ATOM      3  C   UNL     1      -1.590   2.561 -21.176  0.00  0.00    +0.008 A 
ATOM      4  C   UNL     1      -2.531   2.984 -22.225  0.00  0.00    -0.038 A 
ATOM      5  C   UNL     1      -2.207   2.926 -23.234  0.00  0.00    -0.033 A 
ATOM      6  C   UNL     1      -2.647   3.144 -24.048  0.00  0.00    +0.016 C 
ATOM      7  C   UNL     1      -1.706   2.704 -22.722  0.00  0.00    +0.063 C 
ATOM      8  C   UNL     1      -2.270   2.830 -21.366  0.00  0.00    +0.132 C 
ATOM      9  N   UNL     1      -3.366   3.236 -21.234  0.00  0.00    +0.236 N 
ATOM     10  H   UNL     1      -4.292   3.600 -21.458  0.00  0.00    +0.203 HD
ATOM     11  C   UNL     1      -4.266   3.655 -22.469  0.00  0.00    +0.073 C 
ATOM     12  C   UNL     1      -3.287   3.117 -19.840  0.00  0.00    +0.190 C 
ATOM     13  C   UNL     1      -2.271   3.079 -25.247  0.00  0.00    +0.086 C 
ATOM     14  C   UNL     1      -3.075   3.443 -26.197  0.00  0.00    +0.134 C 
ATOM     15  O   UNL     1      -2.686   3.375 -27.420  0.00  0.00    -0.297 OA
ATOM     16  C   UNL     1      -4.286   3.884 -25.927  0.00  0.00    +0.078 C 
ATOM     17  C   UNL     1      -4.716   3.968 -24.706  0.00  0.00    +0.002 C 
ATOM     18  C   UNL     1      -5.902   4.400 -24.461  0.00  0.00    +0.008 C 
ATOM     19  C   UNL     1      -3.962   3.622 -23.757  0.00  0.00    +0.052 C 
ATOM     20  C   UNL     1      -3.682   3.397 -21.885  0.00  0.00    +0.090 C 
ATOM     21  C   UNL     1      -1.007   2.497 -23.610  0.00  0.00    +0.050 A 
ENDROOT
BRANCH   1  23
ATOM     22  C   UNL     1       1.674   2.246 -24.348  0.00  0.00    +0.277 C 
ATOM     23  O   UNL     1       1.024   1.716 -23.406  0.00  0.00    -0.495 OA
ENDBRANCH   1  23
TORSDOF 1
ENDMDL
MODEL 5
REMARK VINA RESULT:    -9.700      1.598      4.219
REMARK INTER + INTRA:         -10.364
REMARK INTER:                 -10.265
REMARK INTRA:                  -0.099
REMARK UNBOUND:                -0.096
REMARK  Name = ZINC000034347840
REMARK  4 active torsions:
REMARK  status: ('A' for Active; 'I' for Inactive)
REMARK    1  A    between atoms: C_1  and  O_2
REMARK    2  A    between atoms: O_2  and  C_3
REMARK    3  A    between atoms: N_12  and  C_13
REMARK    4  A    between atoms: C_17  and  C_18
REMARK                            x       y       z     vdW  Elec       q    Type
REMARK                         _______ _______ _______ _____ _____    ______ ____
ROOT
ATOM      1  C   UNL     1      -4.685   3.362 -22.956  0.00  0.00    +0.120 A 
ATOM      2  C   UNL     1      -5.040   3.728 -24.117  0.00  0.00    +0.046 A 
ATOM      3  C   UNL     1      -4.167   3.779 -25.033  0.00  0.00    +0.008 A 
ATOM      4  C   UNL     1      -2.777   3.414 -24.722  0.00  0.00    -0.038 A 
ATOM      5  C   UNL     1      -2.553   3.117 -23.729  0.00  0.00    -0.033 A 
ATOM      6  C   UNL     1      -1.737   2.847 -23.323  0.00  0.00    +0.016 C 
ATOM      7  C   UNL     1      -3.270   3.297 -23.857  0.00  0.00    +0.063 C 
ATOM      8  C   UNL     1      -3.454   3.690 -25.265  0.00  0.00    +0.132 C 
ATOM      9  N   UNL     1      -2.530   3.682 -25.991  0.00  0.00    +0.236 N 
ATOM     10  H   UNL     1      -1.576   3.572 -26.335  0.00  0.00    +0.203 HD
ATOM     11  C   UNL     1      -1.080   3.262 -25.508  0.00  0.00    +0.073 C 
ATOM     12  C   UNL     1      -3.316   4.116 -27.067  0.00  0.00    +0.190 C 
ATOM     13  C   UNL     1      -1.462   2.494 -22.147  0.00  0.00    +0.086 C 
ATOM     14  C   UNL     1      -0.246   2.165 -21.837  0.00  0.00    +0.134 C 
ATOM     15  O   UNL     1       0.029   1.806 -20.636  0.00  0.00    -0.297 OA
ATOM     16  C   UNL     1       0.713   2.195 -22.740  0.00  0.00    +0.078 C 
ATOM     17  C   UNL     1       0.476   2.552 -23.964  0.00  0.00    +0.002 C 
ATOM     18  C   UNL     1       1.424   2.576 -24.832  0.00  0.00    +0.008 C 
ATOM     19  C   UNL     1      -0.695   2.878 -24.300  0.00  0.00    +0.052 C 
ATOM     20  C   UNL     1      -1.908   3.468 -25.646  0.00  0.00    +0.090 C 
ATOM     21  C   UNL     1      -3.447   3.054 -22.747  0.00  0.00    +0.050 A 
ENDROOT
BRANCH   1  23
ATOM     22  C   UNL     1      -6.481   2.629 -21.499  0.00  0.00    +0.277 C 
ATOM     23  O   UNL     1      -5.392   3.207 -21.763  0.00  0.00    -0.495 OA
ENDBRANCH   1  23
TORSDOF 1
ENDMDL
MODEL 6
REMARK VINA RESULT:    -9.615      1.948      3.455
REMARK INTER + INTRA:         -10.274
REMARK INTER:                 -10.111
REMARK INTRA:                  -0.163
REMARK UNBOUND:                -0.096
REMARK  Name = ZINC000034347840
REMARK  4 active torsions:
REMARK  status: ('A' for Active; 'I' for Inactive)
REMARK    1  A    between atoms: C_1  and  O_2
REMARK    2  A    between atoms: O_2  and  C_3
REMARK    3  A    between atoms: N_12  and  C_13
REMARK    4  A    between atoms: C_17  and  C_18
REMARK                            x       y       z     vdW  Elec       q    Type
REMARK                         _______ _______ _______ _____ _____    ______ ____
ROOT
ATOM      1  C   UNL     1      -2.026   3.509 -26.048  0.00  0.00    +0.120 A 
ATOM      2  C   UNL     1      -0.770   3.552 -25.876  0.00  0.00    +0.046 A 
ATOM      3  C   UNL     1      -0.318   3.585 -24.693  0.00  0.00    +0.008 A 
ATOM      4  C   UNL     1      -1.259   3.572 -23.564  0.00  0.00    -0.038 A 
ATOM      5  C   UNL     1      -2.296   3.535 -23.783  0.00  0.00    -0.033 A 
ATOM      6  C   UNL     1      -3.059   3.519 -23.214  0.00  0.00    +0.016 C 
ATOM      7  C   UNL     1      -1.841   3.540 -24.379  0.00  0.00    +0.063 C 
ATOM      8  C   UNL     1      -0.434   3.593 -23.947  0.00  0.00    +0.132 C 
ATOM      9  N   UNL     1      -0.184   3.618 -22.799  0.00  0.00    +0.236 N 
ATOM     10  H   UNL     1      -0.307   3.630 -21.786  0.00  0.00    +0.203 HD
ATOM     11  C   UNL     1      -1.315   3.599 -21.688  0.00  0.00    +0.073 C 
ATOM     12  C   UNL     1       1.193   3.659 -23.055  0.00  0.00    +0.190 C 
ATOM     13  C   UNL     1      -4.290   3.475 -23.466  0.00  0.00    +0.086 C 
ATOM     14  C   UNL     1      -5.149   3.462 -22.494  0.00  0.00    +0.134 C 
ATOM     15  O   UNL     1      -6.406   3.417 -22.755  0.00  0.00    -0.297 OA
ATOM     16  C   UNL     1      -4.750   3.494 -21.239  0.00  0.00    +0.078 C 
ATOM     17  C   UNL     1      -3.491   3.539 -20.933  0.00  0.00    +0.002 C 
ATOM     18  C   UNL     1      -3.119   3.570 -19.702  0.00  0.00    +0.008 C 
ATOM     19  C   UNL     1      -2.628   3.553 -21.852  0.00  0.00    +0.052 C 
ATOM     20  C   UNL     1      -0.798   3.605 -22.381  0.00  0.00    +0.090 C 
ATOM     21  C   UNL     1      -2.800   3.500 -25.013  0.00  0.00    +0.050 A 
ENDROOT
BRANCH   1  23
ATOM     22  C   UNL     1      -4.064   3.406 -27.359  0.00  0.00    +0.277 C 
ATOM     23  O   UNL     1      -2.815   3.466 -27.197  0.00  0.00    -0.495 OA
ENDBRANCH   1  23
TORSDOF 1
ENDMDL
MODEL 7
REMARK VINA RESULT:    -9.180      2.172      4.759
REMARK INTER + INTRA:          -9.814
REMARK INTER:                  -9.717
REMARK INTRA:                  -0.096
REMARK UNBOUND:                -0.096
REMARK  Name = ZINC000034347840
REMARK  4 active torsions:
REMARK  status: ('A' for Active; 'I' for Inactive)
REMARK    1  A    between atoms: C_1  and  O_2
REMARK    2  A    between atoms: O_2  and  C_3
REMARK    3  A    between atoms: N_12  and  C_13
REMARK    4  A    between atoms: C_17  and  C_18
REMARK                            x       y       z     vdW  Elec       q    Type
REMARK                         _______ _______ _______ _____ _____    ______ ____
ROOT
ATOM      1  C   UNL     1      -2.887   2.559 -22.092  0.00  0.00    +0.120 A 
ATOM      2  C   UNL     1      -3.229   2.970 -23.242  0.00  0.00    +0.046 A 
ATOM      3  C   UNL     1      -2.333   3.135 -24.121  0.00  0.00    +0.008 A 
ATOM      4  C   UNL     1      -0.932   2.846 -23.782  0.00  0.00    -0.038 A 
ATOM      5  C   UNL     1      -0.720   2.505 -22.800  0.00  0.00    -0.033 A 
ATOM      6  C   UNL     1       0.101   2.265 -22.382  0.00  0.00    +0.016 C 
ATOM      7  C   UNL     1      -1.442   2.644 -22.943  0.00  0.00    +0.063 C 
ATOM      8  C   UNL     1      -1.608   3.109 -24.332  0.00  0.00    +0.132 C 
ATOM      9  N   UNL     1      -0.662   3.207 -25.023  0.00  0.00    +0.236 N 
ATOM     10  H   UNL     1       0.307   3.182 -25.338  0.00  0.00    +0.203 HD
ATOM     11  C   UNL     1       0.797   2.856 -24.513  0.00  0.00    +0.073 C 
ATOM     12  C   UNL     1      -1.442   3.652 -26.099  0.00  0.00    +0.190 C 
ATOM     13  C   UNL     1       0.361   1.860 -21.220  0.00  0.00    +0.086 C 
ATOM     14  C   UNL     1       1.586   1.595 -20.886  0.00  0.00    +0.134 C 
ATOM     15  O   UNL     1       1.847   1.182 -19.698  0.00  0.00    -0.297 OA
ATOM     16  C   UNL     1       2.569   1.744 -21.750  0.00  0.00    +0.078 C 
ATOM     17  C   UNL     1       2.347   2.159 -22.959  0.00  0.00    +0.002 C 
ATOM     18  C   UNL     1       3.319   2.298 -23.789  0.00  0.00    +0.008 C 
ATOM     19  C   UNL     1       1.169   2.426 -23.318  0.00  0.00    +0.052 C 
ATOM     20  C   UNL     1      -0.039   3.014 -24.669  0.00  0.00    +0.090 C 
ATOM     21  C   UNL     1      -1.638   2.322 -21.857  0.00  0.00    +0.050 A 
ENDROOT
BRANCH   1  23
ATOM     22  C   UNL     1      -4.860   2.243 -20.716  0.00  0.00    +0.277 C 
ATOM     23  O   UNL     1      -3.619   2.284 -20.936  0.00  0.00    -0.495 OA
ENDBRANCH   1  23
TORSDOF 1
ENDMDL
MODEL 8
REMARK VINA RESULT:    -9.141      2.242      3.302
REMARK INTER + INTRA:          -9.771
REMARK INTER:                  -9.673
REMARK INTRA:                  -0.098
REMARK UNBOUND:                -0.096
REMARK  Name = ZINC000034347840
REMARK  4 active torsions:
REMARK  status: ('A' for Active; 'I' for Inactive)
REMARK    1  A    between atoms: C_1  and  O_2
REMARK    2  A    between atoms: O_2  and  C_3
REMARK    3  A    between atoms: N_12  and  C_13
REMARK    4  A    between atoms: C_17  and  C_18
REMARK                            x       y       z     vdW  Elec       q    Type
REMARK                         _______ _______ _______ _____ _____    ______ ____
ROOT
ATOM      1  C   UNL     1       0.088   3.320 -24.467  0.00  0.00    +0.120 A 
ATOM      2  C   UNL     1       0.694   2.709 -23.535  0.00  0.00    +0.046 A 
ATOM      3  C   UNL     1       0.027   2.307 -22.537  0.00  0.00    +0.008 A 
ATOM      4  C   UNL     1      -1.421   2.561 -22.491  0.00  0.00    -0.038 A 
ATOM      5  C   UNL     1      -1.860   3.078 -23.306  0.00  0.00    -0.033 A 
ATOM      6  C   UNL     1      -2.759   3.339 -23.473  0.00  0.00    +0.016 C 
ATOM      7  C   UNL     1      -1.121   2.963 -23.358  0.00  0.00    +0.063 C 
ATOM      8  C   UNL     1      -0.631   2.240 -22.172  0.00  0.00    +0.132 C 
ATOM      9  N   UNL     1      -1.390   1.937 -21.327  0.00  0.00    +0.236 N 
ATOM     10  H   UNL     1      -2.262   1.830 -20.809  0.00  0.00    +0.203 HD
ATOM     11  C   UNL     1      -2.935   2.282 -21.417  0.00  0.00    +0.073 C 
ATOM     12  C   UNL     1      -0.375   1.340 -20.568  0.00  0.00    +0.190 C 
ATOM     13  C   UNL     1      -3.288   3.951 -24.437  0.00  0.00    +0.086 C 
ATOM     14  C   UNL     1      -4.563   4.192 -24.429  0.00  0.00    +0.134 C 
ATOM     15  O   UNL     1      -5.098   4.817 -25.415  0.00  0.00    -0.297 OA
ATOM     16  C   UNL     1      -5.318   3.803 -23.422  0.00  0.00    +0.078 C 
ATOM     17  C   UNL     1      -4.816   3.169 -22.409  0.00  0.00    +0.002 C 
ATOM     18  C   UNL     1      -5.568   2.796 -21.435  0.00  0.00    +0.008 C 
ATOM     19  C   UNL     1      -3.580   2.918 -22.382  0.00  0.00    +0.052 C 
ATOM     20  C   UNL     1      -2.082   2.154 -21.486  0.00  0.00    +0.090 C 
ATOM     21  C   UNL     1      -1.187   3.511 -24.367  0.00  0.00    +0.050 A 
ENDROOT
BRANCH   1  23
ATOM     22  C   UNL     1       1.560   4.538 -25.962  0.00  0.00    +0.277 C 
ATOM     23  O   UNL     1       0.529   3.873 -25.670  0.00  0.00    -0.495 OA
ENDBRANCH   1  23
TORSDOF 1
ENDMDL
MODEL 9
REMARK VINA RESULT:    -8.728      3.983      6.545
REMARK INTER + INTRA:          -9.334
REMARK INTER:                  -9.238
REMARK INTRA:                  -0.096
REMARK UNBOUND:                -0.096
REMARK  Name = ZINC000034347840
REMARK  4 active torsions:
REMARK  status: ('A' for Active; 'I' for Inactive)
REMARK    1  A    between atoms: C_1  and  O_2
REMARK    2  A    between atoms: O_2  and  C_3
REMARK    3  A    between atoms: N_12  and  C_13
REMARK    4  A    between atoms: C_17  and  C_18
REMARK                            x       y       z     vdW  Elec       q    Type
REMARK                         _______ _______ _______ _____ _____    ______ ____
ROOT
ATOM      1  C   UNL     1       5.561   3.695 -22.882  0.00  0.00    +0.120 A 
ATOM      2  C   UNL     1       6.081   2.727 -22.248  0.00  0.00    +0.046 A 
ATOM      3  C   UNL     1       5.318   1.853 -21.740  0.00  0.00    +0.008 A 
ATOM      4  C   UNL     1       3.863   1.988 -21.901  0.00  0.00    -0.038 A 
ATOM      5  C   UNL     1       3.500   2.824 -22.444  0.00  0.00    -0.033 A 
ATOM      6  C   UNL     1       2.614   3.095 -22.661  0.00  0.00    +0.016 C 
ATOM      7  C   UNL     1       4.246   2.782 -22.379  0.00  0.00    +0.063 C 
ATOM      8  C   UNL     1       4.625   1.585 -21.608  0.00  0.00    +0.132 C 
ATOM      9  N   UNL     1       3.784   0.869 -21.204  0.00  0.00    +0.236 N 
ATOM     10  H   UNL     1       2.861   0.481 -21.010  0.00  0.00    +0.203 HD
ATOM     11  C   UNL     1       2.245   1.147 -21.460  0.00  0.00    +0.073 C 
ATOM     12  C   UNL     1       4.730   0.017 -20.620  0.00  0.00    +0.190 C 
ATOM     13  C   UNL     1       2.176   4.084 -23.304  0.00  0.00    +0.086 C 
ATOM     14  C   UNL     1       0.897   4.234 -23.466  0.00  0.00    +0.134 C 
ATOM     15  O   UNL     1       0.453   5.245 -24.122  0.00  0.00    -0.297 OA
ATOM     16  C   UNL     1       0.046   3.363 -22.965  0.00  0.00    +0.078 C 
ATOM     17  C   UNL     1       0.453   2.330 -22.296  0.00  0.00    +0.002 C 
ATOM     18  C   UNL     1      -0.393   1.490 -21.814  0.00  0.00    +0.008 C 
ATOM     19  C   UNL     1       1.689   2.152 -22.119  0.00  0.00    +0.052 C 
ATOM     20  C   UNL     1       3.105   1.107 -21.389  0.00  0.00    +0.090 C 
ATOM     21  C   UNL     1       4.275   3.756 -22.988  0.00  0.00    +0.050 A 
ENDROOT
BRANCH   1  23
ATOM     22  C   UNL     1       7.298   5.232 -23.595  0.00  0.00    +0.277 C 
ATOM     23  O   UNL     1       6.117   4.793 -23.540  0.00  0.00    -0.495 OA
ENDBRANCH   1  23
TORSDOF 1
ENDMDL
