MODEL 1
REMARK VINA RESULT:    -7.933      0.000      0.000
REMARK INTER + INTRA:          -8.923
REMARK INTER:                  -8.629
REMARK INTRA:                  -0.294
REMARK UNBOUND:                -0.294
REMARK  Name = ZINC000000058154
REMARK  2 active torsions:
REMARK  status: ('A' for Active; 'I' for Inactive)
REMARK    1  A    between atoms: N_1  and  C_2
REMARK    2  A    between atoms: C_13  and  C_14
REMARK                            x       y       z     vdW  Elec       q    Type
REMARK                         _______ _______ _______ _____ _____    ______ ____
ROOT
ATOM      1  C   UNL     1      -0.740   3.404 -24.948  0.00  0.00    +0.198 A 
ATOM      2  O   UNL     1      -1.937   3.718 -25.345  0.00  0.00    -0.441 OA
ATOM      3  C   UNL     1      -2.941   3.616 -24.526  0.00  0.00    +0.141 A 
ATOM      4  C   UNL     1      -4.138   3.931 -24.923  0.00  0.00    +0.048 A 
ATOM      5  C   UNL     1      -5.142   3.829 -24.104  0.00  0.00    +0.023 A 
ATOM      6  C   UNL     1      -4.950   3.412 -22.888  0.00  0.00    +0.042 A 
ATOM      7  C   UNL     1      -3.752   3.097 -22.491  0.00  0.00    +0.035 A 
ATOM      8 CL   UNL     1      -5.954   3.310 -22.069  0.00  0.00    -0.084 Cl
ATOM      9  C   UNL     1      -2.748   3.200 -23.310  0.00  0.00    +0.066 A 
ATOM     10  C   UNL     1      -1.551   2.885 -22.913  0.00  0.00    +0.205 A 
ATOM     11  O   UNL     1      -1.358   2.468 -21.697  0.00  0.00    -0.286 OA
ATOM     12  C   UNL     1      -0.547   2.987 -23.732  0.00  0.00    +0.118 A 
ENDROOT
BRANCH   1  13
ATOM     13  N   UNL     1       0.265   3.506 -25.768  0.00  0.00    -0.329 N 
ATOM     14  H   UNL     1       0.669   2.696 -26.154  0.00  0.00    +0.145 HD
ATOM     15  H   UNL     1       0.623   4.392 -26.001  0.00  0.00    +0.145 HD
ENDBRANCH   1  13
BRANCH  12  16
ATOM     16  C   UNL     1       0.651   2.672 -23.335  0.00  0.00    +0.267 C 
ATOM     17  O   UNL     1       1.188   1.551 -23.714  0.00  0.00    -0.295 OA
ENDBRANCH  12  16
TORSDOF 2
ENDMDL
MODEL 2
REMARK VINA RESULT:    -7.581      1.805      2.743
REMARK INTER + INTRA:          -8.540
REMARK INTER:                  -8.283
REMARK INTRA:                  -0.257
REMARK UNBOUND:                -0.294
REMARK  Name = ZINC000000058154
REMARK  2 active torsions:
REMARK  status: ('A' for Active; 'I' for Inactive)
REMARK    1  A    between atoms: N_1  and  C_2
REMARK    2  A    between atoms: C_13  and  C_14
REMARK                            x       y       z     vdW  Elec       q    Type
REMARK                         _______ _______ _______ _____ _____    ______ ____
ROOT
ATOM      1  C   UNL     1      -0.497   1.959 -21.483  0.00  0.00    +0.198 A 
ATOM      2  O   UNL     1      -1.708   2.063 -21.024  0.00  0.00    -0.441 OA
ATOM      3  C   UNL     1      -2.646   2.562 -21.773  0.00  0.00    +0.141 A 
ATOM      4  C   UNL     1      -3.859   2.666 -21.314  0.00  0.00    +0.048 A 
ATOM      5  C   UNL     1      -4.796   3.165 -22.063  0.00  0.00    +0.023 A 
ATOM      6  C   UNL     1      -4.523   3.560 -23.271  0.00  0.00    +0.042 A 
ATOM      7  C   UNL     1      -3.310   3.456 -23.730  0.00  0.00    +0.035 A 
ATOM      8 CL   UNL     1      -5.461   4.059 -24.020  0.00  0.00    -0.084 Cl
ATOM      9  C   UNL     1      -2.373   2.957 -22.981  0.00  0.00    +0.066 A 
ATOM     10  C   UNL     1      -1.161   2.853 -23.440  0.00  0.00    +0.205 A 
ATOM     11  O   UNL     1      -0.888   3.248 -24.648  0.00  0.00    -0.286 OA
ATOM     12  C   UNL     1      -0.223   2.354 -22.691  0.00  0.00    +0.118 A 
ENDROOT
BRANCH   1  13
ATOM     13  N   UNL     1       0.442   1.460 -20.734  0.00  0.00    -0.329 N 
ATOM     14  H   UNL     1       1.133   2.048 -20.354  0.00  0.00    +0.145 HD
ATOM     15  H   UNL     1       0.462   0.493 -20.548  0.00  0.00    +0.145 HD
ENDBRANCH   1  13
BRANCH  12  16
ATOM     16  C   UNL     1       0.989   2.250 -23.150  0.00  0.00    +0.267 C 
ATOM     17  O   UNL     1       1.527   1.077 -23.304  0.00  0.00    -0.295 OA
ENDBRANCH  12  16
TORSDOF 2
ENDMDL
MODEL 3
REMARK VINA RESULT:    -7.424      2.958      4.839
REMARK INTER + INTRA:          -8.369
REMARK INTER:                  -8.082
REMARK INTRA:                  -0.287
REMARK UNBOUND:                -0.294
REMARK  Name = ZINC000000058154
REMARK  2 active torsions:
REMARK  status: ('A' for Active; 'I' for Inactive)
REMARK    1  A    between atoms: N_1  and  C_2
REMARK    2  A    between atoms: C_13  and  C_14
REMARK                            x       y       z     vdW  Elec       q    Type
REMARK                         _______ _______ _______ _____ _____    ______ ____
ROOT
ATOM      1  C   UNL     1      -4.303   3.338 -22.955  0.00  0.00    +0.198 A 
ATOM      2  O   UNL     1      -3.571   2.895 -21.977  0.00  0.00    -0.441 OA
ATOM      3  C   UNL     1      -2.317   2.616 -22.179  0.00  0.00    +0.141 A 
ATOM      4  C   UNL     1      -1.584   2.173 -21.200  0.00  0.00    +0.048 A 
ATOM      5  C   UNL     1      -0.331   1.894 -21.402  0.00  0.00    +0.023 A 
ATOM      6  C   UNL     1       0.191   2.059 -22.581  0.00  0.00    +0.042 A 
ATOM      7  C   UNL     1      -0.542   2.503 -23.560  0.00  0.00    +0.035 A 
ATOM      8 CL   UNL     1       1.444   1.781 -22.783  0.00  0.00    -0.084 Cl
ATOM      9  C   UNL     1      -1.796   2.781 -23.358  0.00  0.00    +0.066 A 
ATOM     10  C   UNL     1      -2.528   3.224 -24.336  0.00  0.00    +0.205 A 
ATOM     11  O   UNL     1      -2.007   3.389 -25.516  0.00  0.00    -0.286 OA
ATOM     12  C   UNL     1      -3.782   3.503 -24.135  0.00  0.00    +0.118 A 
ENDROOT
BRANCH   1  13
ATOM     13  N   UNL     1      -5.558   3.616 -22.754  0.00  0.00    -0.329 N 
ATOM     14  H   UNL     1      -5.810   4.297 -22.090  0.00  0.00    +0.145 HD
ATOM     15  H   UNL     1      -6.255   3.147 -23.267  0.00  0.00    +0.145 HD
ENDBRANCH   1  13
BRANCH  12  16
ATOM     16  C   UNL     1      -4.515   3.946 -25.113  0.00  0.00    +0.267 C 
ATOM     17  O   UNL     1      -4.898   5.188 -25.127  0.00  0.00    -0.295 OA
ENDBRANCH  12  16
TORSDOF 2
ENDMDL
MODEL 4
REMARK VINA RESULT:    -7.390      1.747      2.352
REMARK INTER + INTRA:          -8.332
REMARK INTER:                  -8.043
REMARK INTRA:                  -0.289
REMARK UNBOUND:                -0.294
REMARK  Name = ZINC000000058154
REMARK  2 active torsions:
REMARK  status: ('A' for Active; 'I' for Inactive)
REMARK    1  A    between atoms: N_1  and  C_2
REMARK    2  A    between atoms: C_13  and  C_14
REMARK                            x       y       z     vdW  Elec       q    Type
REMARK                         _______ _______ _______ _____ _____    ______ ____
ROOT
ATOM      1  C   UNL     1       1.075   2.257 -23.845  0.00  0.00    +0.198 A 
ATOM      2  O   UNL     1      -0.053   2.791 -24.207  0.00  0.00    -0.441 OA
ATOM      3  C   UNL     1      -1.064   2.788 -23.391  0.00  0.00    +0.141 A 
ATOM      4  C   UNL     1      -2.193   3.322 -23.752  0.00  0.00    +0.048 A 
ATOM      5  C   UNL     1      -3.205   3.320 -22.936  0.00  0.00    +0.023 A 
ATOM      6  C   UNL     1      -3.088   2.783 -21.758  0.00  0.00    +0.042 A 
ATOM      7  C   UNL     1      -1.959   2.249 -21.396  0.00  0.00    +0.035 A 
ATOM      8 CL   UNL     1      -4.099   2.780 -20.941  0.00  0.00    -0.084 Cl
ATOM      9  C   UNL     1      -0.947   2.251 -22.212  0.00  0.00    +0.066 A 
ATOM     10  C   UNL     1       0.181   1.717 -21.851  0.00  0.00    +0.205 A 
ATOM     11  O   UNL     1       0.298   1.180 -20.672  0.00  0.00    -0.286 OA
ATOM     12  C   UNL     1       1.192   1.720 -22.667  0.00  0.00    +0.118 A 
ENDROOT
BRANCH   1  13
ATOM     13  N   UNL     1       2.088   2.259 -24.662  0.00  0.00    -0.329 N 
ATOM     14  H   UNL     1       2.189   2.986 -25.318  0.00  0.00    +0.145 HD
ATOM     15  H   UNL     1       2.753   1.534 -24.625  0.00  0.00    +0.145 HD
ENDBRANCH   1  13
BRANCH  12  16
ATOM     16  C   UNL     1       2.322   1.185 -22.306  0.00  0.00    +0.267 C 
ATOM     17  O   UNL     1       2.631  -0.012 -22.705  0.00  0.00    -0.295 OA
ENDBRANCH  12  16
TORSDOF 2
ENDMDL
MODEL 5
REMARK VINA RESULT:    -6.844      2.942      4.412
REMARK INTER + INTRA:          -7.739
REMARK INTER:                  -7.452
REMARK INTRA:                  -0.286
REMARK UNBOUND:                -0.294
REMARK  Name = ZINC000000058154
REMARK  2 active torsions:
REMARK  status: ('A' for Active; 'I' for Inactive)
REMARK    1  A    between atoms: N_1  and  C_2
REMARK    2  A    between atoms: C_13  and  C_14
REMARK                            x       y       z     vdW  Elec       q    Type
REMARK                         _______ _______ _______ _____ _____    ______ ____
ROOT
ATOM      1  C   UNL     1      -4.360   3.704 -23.603  0.00  0.00    +0.198 A 
ATOM      2  O   UNL     1      -3.533   3.800 -24.601  0.00  0.00    -0.441 OA
ATOM      3  C   UNL     1      -2.269   3.555 -24.424  0.00  0.00    +0.141 A 
ATOM      4  C   UNL     1      -1.442   3.652 -25.423  0.00  0.00    +0.048 A 
ATOM      5  C   UNL     1      -0.178   3.407 -25.246  0.00  0.00    +0.023 A 
ATOM      6  C   UNL     1       0.260   3.065 -24.070  0.00  0.00    +0.042 A 
ATOM      7  C   UNL     1      -0.567   2.969 -23.071  0.00  0.00    +0.035 A 
ATOM      8 CL   UNL     1       1.524   2.821 -23.893  0.00  0.00    -0.084 Cl
ATOM      9  C   UNL     1      -1.831   3.214 -23.248  0.00  0.00    +0.066 A 
ATOM     10  C   UNL     1      -2.658   3.118 -22.250  0.00  0.00    +0.205 A 
ATOM     11  O   UNL     1      -2.220   2.777 -21.074  0.00  0.00    -0.286 OA
ATOM     12  C   UNL     1      -3.922   3.363 -22.427  0.00  0.00    +0.118 A 
ENDROOT
BRANCH   1  13
ATOM     13  N   UNL     1      -5.625   3.949 -23.779  0.00  0.00    -0.329 N 
ATOM     14  H   UNL     1      -5.966   4.143 -24.682  0.00  0.00    +0.145 HD
ATOM     15  H   UNL     1      -6.240   3.941 -23.011  0.00  0.00    +0.145 HD
ENDBRANCH   1  13
BRANCH  12  16
ATOM     16  C   UNL     1      -4.749   3.267 -21.428  0.00  0.00    +0.267 C 
ATOM     17  O   UNL     1      -5.602   2.287 -21.382  0.00  0.00    -0.295 OA
ENDBRANCH  12  16
TORSDOF 2
ENDMDL
MODEL 6
REMARK VINA RESULT:    -6.825      2.677      3.637
REMARK INTER + INTRA:          -7.717
REMARK INTER:                  -7.423
REMARK INTRA:                  -0.294
REMARK UNBOUND:                -0.294
REMARK  Name = ZINC000000058154
REMARK  2 active torsions:
REMARK  status: ('A' for Active; 'I' for Inactive)
REMARK    1  A    between atoms: N_1  and  C_2
REMARK    2  A    between atoms: C_13  and  C_14
REMARK                            x       y       z     vdW  Elec       q    Type
REMARK                         _______ _______ _______ _____ _____    ______ ____
ROOT
ATOM      1  C   UNL     1       2.643   4.608 -23.028  0.00  0.00    +0.198 A 
ATOM      2  O   UNL     1       1.538   5.259 -23.235  0.00  0.00    -0.441 OA
ATOM      3  C   UNL     1       0.414   4.614 -23.343  0.00  0.00    +0.141 A 
ATOM      4  C   UNL     1      -0.692   5.265 -23.550  0.00  0.00    +0.048 A 
ATOM      5  C   UNL     1      -1.816   4.620 -23.658  0.00  0.00    +0.023 A 
ATOM      6  C   UNL     1      -1.833   3.324 -23.558  0.00  0.00    +0.042 A 
ATOM      7  C   UNL     1      -0.727   2.673 -23.351  0.00  0.00    +0.035 A 
ATOM      8 CL   UNL     1      -2.957   2.679 -23.666  0.00  0.00    -0.084 Cl
ATOM      9  C   UNL     1       0.397   3.318 -23.243  0.00  0.00    +0.066 A 
ATOM     10  C   UNL     1       1.502   2.667 -23.036  0.00  0.00    +0.205 A 
ATOM     11  O   UNL     1       1.484   1.371 -22.937  0.00  0.00    -0.286 OA
ATOM     12  C   UNL     1       2.625   3.312 -22.929  0.00  0.00    +0.118 A 
ENDROOT
BRANCH   1  13
ATOM     13  N   UNL     1       3.767   5.253 -22.920  0.00  0.00    -0.329 N 
ATOM     14  H   UNL     1       4.108   5.503 -22.031  0.00  0.00    +0.145 HD
ATOM     15  H   UNL     1       4.278   5.491 -23.727  0.00  0.00    +0.145 HD
ENDBRANCH   1  13
BRANCH  12  16
ATOM     16  C   UNL     1       3.732   2.661 -22.721  0.00  0.00    +0.267 C 
ATOM     17  O   UNL     1       4.266   2.647 -21.536  0.00  0.00    -0.295 OA
ENDBRANCH  12  16
TORSDOF 2
ENDMDL
MODEL 7
REMARK VINA RESULT:    -6.606      1.902      3.512
REMARK INTER + INTRA:          -7.480
REMARK INTER:                  -7.187
REMARK INTRA:                  -0.293
REMARK UNBOUND:                -0.294
REMARK  Name = ZINC000000058154
REMARK  2 active torsions:
REMARK  status: ('A' for Active; 'I' for Inactive)
REMARK    1  A    between atoms: N_1  and  C_2
REMARK    2  A    between atoms: C_13  and  C_14
REMARK                            x       y       z     vdW  Elec       q    Type
REMARK                         _______ _______ _______ _____ _____    ______ ____
ROOT
ATOM      1  C   UNL     1      -1.944   3.405 -25.187  0.00  0.00    +0.198 A 
ATOM      2  O   UNL     1      -1.264   3.166 -24.105  0.00  0.00    -0.441 OA
ATOM      3  C   UNL     1      -1.852   3.205 -22.946  0.00  0.00    +0.141 A 
ATOM      4  C   UNL     1      -1.173   2.966 -21.864  0.00  0.00    +0.048 A 
ATOM      5  C   UNL     1      -1.761   3.005 -20.705  0.00  0.00    +0.023 A 
ATOM      6  C   UNL     1      -3.029   3.282 -20.629  0.00  0.00    +0.042 A 
ATOM      7  C   UNL     1      -3.709   3.520 -21.712  0.00  0.00    +0.035 A 
ATOM      8 CL   UNL     1      -3.617   3.320 -19.470  0.00  0.00    -0.084 Cl
ATOM      9  C   UNL     1      -3.120   3.482 -22.870  0.00  0.00    +0.066 A 
ATOM     10  C   UNL     1      -3.800   3.720 -23.952  0.00  0.00    +0.205 A 
ATOM     11  O   UNL     1      -5.068   3.997 -23.875  0.00  0.00    -0.286 OA
ATOM     12  C   UNL     1      -3.212   3.682 -25.110  0.00  0.00    +0.118 A 
ENDROOT
BRANCH   1  13
ATOM     13  N   UNL     1      -1.355   3.366 -26.346  0.00  0.00    -0.329 N 
ATOM     14  H   UNL     1      -1.091   4.203 -26.791  0.00  0.00    +0.145 HD
ATOM     15  H   UNL     1      -1.174   2.501 -26.778  0.00  0.00    +0.145 HD
ENDBRANCH   1  13
BRANCH  12  16
ATOM     16  C   UNL     1      -3.891   3.920 -26.193  0.00  0.00    +0.267 C 
ATOM     17  O   UNL     1      -4.219   2.942 -26.984  0.00  0.00    -0.295 OA
ENDBRANCH  12  16
TORSDOF 2
ENDMDL
MODEL 8
REMARK VINA RESULT:    -6.540      3.136      4.687
REMARK INTER + INTRA:          -7.407
REMARK INTER:                  -7.113
REMARK INTRA:                  -0.294
REMARK UNBOUND:                -0.294
REMARK  Name = ZINC000000058154
REMARK  2 active torsions:
REMARK  status: ('A' for Active; 'I' for Inactive)
REMARK    1  A    between atoms: N_1  and  C_2
REMARK    2  A    between atoms: C_13  and  C_14
REMARK                            x       y       z     vdW  Elec       q    Type
REMARK                         _______ _______ _______ _____ _____    ______ ____
ROOT
ATOM      1  C   UNL     1      -2.617   3.228 -23.390  0.00  0.00    +0.198 A 
ATOM      2  O   UNL     1      -1.847   3.592 -24.372  0.00  0.00    -0.441 OA
ATOM      3  C   UNL     1      -0.563   3.407 -24.293  0.00  0.00    +0.141 A 
ATOM      4  C   UNL     1       0.208   3.772 -25.275  0.00  0.00    +0.048 A 
ATOM      5  C   UNL     1       1.492   3.586 -25.197  0.00  0.00    +0.023 A 
ATOM      6  C   UNL     1       2.006   3.036 -24.137  0.00  0.00    +0.042 A 
ATOM      7  C   UNL     1       1.236   2.672 -23.155  0.00  0.00    +0.035 A 
ATOM      8 CL   UNL     1       3.290   2.851 -24.059  0.00  0.00    -0.084 Cl
ATOM      9  C   UNL     1      -0.049   2.857 -23.234  0.00  0.00    +0.066 A 
ATOM     10  C   UNL     1      -0.818   2.492 -22.252  0.00  0.00    +0.205 A 
ATOM     11  O   UNL     1      -0.304   1.942 -21.192  0.00  0.00    -0.286 OA
ATOM     12  C   UNL     1      -2.102   2.678 -22.330  0.00  0.00    +0.118 A 
ENDROOT
BRANCH   1  13
ATOM     13  N   UNL     1      -3.902   3.413 -23.468  0.00  0.00    -0.329 N 
ATOM     14  H   UNL     1      -4.448   2.832 -24.044  0.00  0.00    +0.145 HD
ATOM     15  H   UNL     1      -4.328   4.134 -22.951  0.00  0.00    +0.145 HD
ENDBRANCH   1  13
BRANCH  12  16
ATOM     16  C   UNL     1      -2.873   2.313 -21.348  0.00  0.00    +0.267 C 
ATOM     17  O   UNL     1      -3.341   3.203 -20.524  0.00  0.00    -0.295 OA
ENDBRANCH  12  16
TORSDOF 2
ENDMDL
MODEL 9
REMARK VINA RESULT:    -6.287      3.742      5.694
REMARK INTER + INTRA:          -7.133
REMARK INTER:                  -6.839
REMARK INTRA:                  -0.294
REMARK UNBOUND:                -0.294
REMARK  Name = ZINC000000058154
REMARK  2 active torsions:
REMARK  status: ('A' for Active; 'I' for Inactive)
REMARK    1  A    between atoms: N_1  and  C_2
REMARK    2  A    between atoms: C_13  and  C_14
REMARK                            x       y       z     vdW  Elec       q    Type
REMARK                         _______ _______ _______ _____ _____    ______ ____
ROOT
ATOM      1  C   UNL     1      -0.592   4.304 -23.442  0.00  0.00    +0.198 A 
ATOM      2  O   UNL     1       0.442   5.090 -23.448  0.00  0.00    -0.441 OA
ATOM      3  C   UNL     1       1.630   4.602 -23.245  0.00  0.00    +0.141 A 
ATOM      4  C   UNL     1       2.666   5.389 -23.251  0.00  0.00    +0.048 A 
ATOM      5  C   UNL     1       3.853   4.901 -23.048  0.00  0.00    +0.023 A 
ATOM      6  C   UNL     1       4.006   3.627 -22.839  0.00  0.00    +0.042 A 
ATOM      7  C   UNL     1       2.970   2.840 -22.833  0.00  0.00    +0.035 A 
ATOM      8 CL   UNL     1       5.193   3.139 -22.636  0.00  0.00    -0.084 Cl
ATOM      9  C   UNL     1       1.783   3.328 -23.036  0.00  0.00    +0.066 A 
ATOM     10  C   UNL     1       0.748   2.542 -23.030  0.00  0.00    +0.205 A 
ATOM     11  O   UNL     1       0.900   1.268 -22.821  0.00  0.00    -0.286 OA
ATOM     12  C   UNL     1      -0.440   3.030 -23.233  0.00  0.00    +0.118 A 
ENDROOT
BRANCH   1  13
ATOM     13  N   UNL     1      -1.781   4.792 -23.645  0.00  0.00    -0.329 N 
ATOM     14  H   UNL     1      -2.320   4.473 -24.404  0.00  0.00    +0.145 HD
ATOM     15  H   UNL     1      -2.141   5.479 -23.040  0.00  0.00    +0.145 HD
ENDBRANCH   1  13
BRANCH  12  16
ATOM     16  C   UNL     1      -1.476   2.244 -23.227  0.00  0.00    +0.267 C 
ATOM     17  O   UNL     1      -2.269   2.222 -22.198  0.00  0.00    -0.295 OA
ENDBRANCH  12  16
TORSDOF 2
ENDMDL
