MODEL 1
REMARK VINA RESULT:   -10.333      0.000      0.000
REMARK INTER + INTRA:         -10.333
REMARK INTER:                 -10.333
REMARK INTRA:                   0.000
REMARK UNBOUND:                 0.000
REMARK  Name = C[C@@H]1CC[C@@H]2[C@@H](C)C(=O)O[C@H]3O[C@]4(C)CC[C@H]1[C@]32OO4     ZINC000100065748
REMARK  3 active torsions:
REMARK  status: ('A' for Active; 'I' for Inactive)
REMARK    1  A    between atoms: C_1  and  C_2
REMARK    2  A    between atoms: C_6  and  C_7
REMARK    3  A    between atoms: C_13  and  C_14
REMARK                            x       y       z     vdW  Elec       q    Type
REMARK                         _______ _______ _______ _____ _____    ______ ____
ROOT
ATOM      1  C   UNL     1      -5.730   3.387 -22.121  0.00  0.00    +0.008 C 
ATOM      2  C   UNL     1      -4.464   3.051 -22.105  0.00  0.00    -0.008 C 
ATOM      3  C   UNL     1      -3.894   2.699 -20.979  0.00  0.00    +0.004 C 
ATOM      4  C   UNL     1      -2.613   2.359 -20.962  0.00  0.00    +0.008 C 
ATOM      5  C   UNL     1      -1.916   2.375 -22.071  0.00  0.00    +0.044 C 
ATOM      6  C   UNL     1      -0.650   2.039 -22.055  0.00  0.00    +0.101 C 
ATOM      7  C   UNL     1       0.061   2.051 -23.163  0.00  0.00    +0.313 C 
ATOM      8  O   UNL     1      -0.523   2.409 -24.305  0.00  0.00    -0.432 OA
ATOM      9  C   UNL     1      -1.788   2.745 -24.322  0.00  0.00    +0.349 C 
ATOM     10  O   UNL     1      -2.058   3.040 -25.570  0.00  0.00    -0.305 OA
ATOM     11  C   UNL     1      -3.218   3.436 -26.073  0.00  0.00    +0.204 C 
ATOM     12  C   UNL     1      -4.351   3.620 -25.442  0.00  0.00    +0.068 C 
ATOM     13  C   UNL     1      -4.611   3.458 -24.154  0.00  0.00    +0.012 C 
ATOM     14  C   UNL     1      -3.234   3.674 -27.378  0.00  0.00    +0.077 C 
ATOM     15  O   UNL     1      -3.682   3.364 -24.993  0.00  0.00    -0.199 OA
ATOM     16  O   UNL     1      -3.406   3.090 -23.871  0.00  0.00    -0.218 OA
ATOM     17  O   UNL     1       1.334   1.712 -23.143  0.00  0.00    -0.250 OA
ATOM     18  C   UNL     1      -0.087   1.688 -20.925  0.00  0.00    +0.019 C 
ATOM     19  C   UNL     1      -2.486   2.727 -23.197  0.00  0.00    +0.173 C 
ATOM     20  C   UNL     1      -3.767   3.067 -23.214  0.00  0.00    +0.034 C 
ENDROOT
TORSDOF 0
ENDMDL
MODEL 2
REMARK VINA RESULT:    -9.882      1.064      3.999
REMARK INTER + INTRA:          -9.882
REMARK INTER:                  -9.882
REMARK INTRA:                   0.000
REMARK UNBOUND:                 0.000
REMARK  Name = C[C@@H]1CC[C@@H]2[C@@H](C)C(=O)O[C@H]3O[C@]4(C)CC[C@H]1[C@]32OO4     ZINC000100065748
REMARK  3 active torsions:
REMARK  status: ('A' for Active; 'I' for Inactive)
REMARK    1  A    between atoms: C_1  and  C_2
REMARK    2  A    between atoms: C_6  and  C_7
REMARK    3  A    between atoms: C_13  and  C_14
REMARK                            x       y       z     vdW  Elec       q    Type
REMARK                         _______ _______ _______ _____ _____    ______ ____
ROOT
ATOM      1  C   UNL     1      -3.682   2.887 -19.943  0.00  0.00    +0.008 C 
ATOM      2  C   UNL     1      -3.745   3.052 -21.241  0.00  0.00    -0.008 C 
ATOM      3  C   UNL     1      -4.869   3.431 -21.799  0.00  0.00    +0.004 C 
ATOM      4  C   UNL     1      -4.933   3.598 -23.113  0.00  0.00    +0.008 C 
ATOM      5  C   UNL     1      -3.873   3.385 -23.853  0.00  0.00    +0.044 C 
ATOM      6  C   UNL     1      -3.936   3.550 -25.151  0.00  0.00    +0.101 C 
ATOM      7  C   UNL     1      -2.878   3.339 -25.906  0.00  0.00    +0.313 C 
ATOM      8  O   UNL     1      -1.739   2.955 -25.334  0.00  0.00    -0.432 OA
ATOM      9  C   UNL     1      -1.675   2.789 -24.037  0.00  0.00    +0.349 C 
ATOM     10  O   UNL     1      -0.444   2.416 -23.789  0.00  0.00    -0.305 OA
ATOM     11  C   UNL     1       0.092   2.132 -22.611  0.00  0.00    +0.204 C 
ATOM     12  C   UNL     1      -0.483   2.160 -21.434  0.00  0.00    +0.068 C 
ATOM     13  C   UNL     1      -1.734   2.477 -21.138  0.00  0.00    +0.012 C 
ATOM     14  C   UNL     1       1.369   1.775 -22.624  0.00  0.00    +0.077 C 
ATOM     15  O   UNL     1      -0.948   2.367 -22.110  0.00  0.00    -0.199 OA
ATOM     16  O   UNL     1      -2.056   2.707 -22.367  0.00  0.00    -0.218 OA
ATOM     17  O   UNL     1      -2.946   3.506 -27.211  0.00  0.00    -0.250 OA
ATOM     18  C   UNL     1      -5.063   3.929 -25.702  0.00  0.00    +0.019 C 
ATOM     19  C   UNL     1      -2.750   3.007 -23.295  0.00  0.00    +0.173 C 
ATOM     20  C   UNL     1      -2.686   2.839 -21.981  0.00  0.00    +0.034 C 
ENDROOT
TORSDOF 0
ENDMDL
MODEL 3
REMARK VINA RESULT:    -9.784      1.615      4.072
REMARK INTER + INTRA:          -9.784
REMARK INTER:                  -9.784
REMARK INTRA:                   0.000
REMARK UNBOUND:                 0.000
REMARK  Name = C[C@@H]1CC[C@@H]2[C@@H](C)C(=O)O[C@H]3O[C@]4(C)CC[C@H]1[C@]32OO4     ZINC000100065748
REMARK  3 active torsions:
REMARK  status: ('A' for Active; 'I' for Inactive)
REMARK    1  A    between atoms: C_1  and  C_2
REMARK    2  A    between atoms: C_6  and  C_7
REMARK    3  A    between atoms: C_13  and  C_14
REMARK                            x       y       z     vdW  Elec       q    Type
REMARK                         _______ _______ _______ _____ _____    ______ ____
ROOT
ATOM      1  C   UNL     1      -2.933   3.724 -27.116  0.00  0.00    +0.008 C 
ATOM      2  C   UNL     1      -3.263   3.630 -25.852  0.00  0.00    -0.008 C 
ATOM      3  C   UNL     1      -4.526   3.565 -25.508  0.00  0.00    +0.004 C 
ATOM      4  C   UNL     1      -4.859   3.470 -24.228  0.00  0.00    +0.008 C 
ATOM      5  C   UNL     1      -3.928   3.442 -23.308  0.00  0.00    +0.044 C 
ATOM      6  C   UNL     1      -4.257   3.348 -22.044  0.00  0.00    +0.101 C 
ATOM      7  C   UNL     1      -3.330   3.319 -21.109  0.00  0.00    +0.313 C 
ATOM      8  O   UNL     1      -2.048   3.386 -21.464  0.00  0.00    -0.432 OA
ATOM      9  C   UNL     1      -1.718   3.479 -22.728  0.00  0.00    +0.349 C 
ATOM     10  O   UNL     1      -0.409   3.526 -22.747  0.00  0.00    -0.305 OA
ATOM     11  C   UNL     1       0.380   3.622 -23.808  0.00  0.00    +0.204 C 
ATOM     12  C   UNL     1       0.032   3.692 -25.069  0.00  0.00    +0.068 C 
ATOM     13  C   UNL     1      -1.186   3.684 -25.587  0.00  0.00    +0.012 C 
ATOM     14  C   UNL     1       1.683   3.650 -23.562  0.00  0.00    +0.077 C 
ATOM     15  O   UNL     1      -0.581   3.633 -24.489  0.00  0.00    -0.199 OA
ATOM     16  O   UNL     1      -1.767   3.589 -24.438  0.00  0.00    -0.218 OA
ATOM     17  O   UNL     1      -3.666   3.224 -19.839  0.00  0.00    -0.250 OA
ATOM     18  C   UNL     1      -5.522   3.282 -21.707  0.00  0.00    +0.019 C 
ATOM     19  C   UNL     1      -2.665   3.507 -23.652  0.00  0.00    +0.173 C 
ATOM     20  C   UNL     1      -2.331   3.602 -24.932  0.00  0.00    +0.034 C 
ENDROOT
TORSDOF 0
ENDMDL
MODEL 4
REMARK VINA RESULT:    -9.621      1.401      4.031
REMARK INTER + INTRA:          -9.621
REMARK INTER:                  -9.621
REMARK INTRA:                   0.000
REMARK UNBOUND:                 0.000
REMARK  Name = C[C@@H]1CC[C@@H]2[C@@H](C)C(=O)O[C@H]3O[C@]4(C)CC[C@H]1[C@]32OO4     ZINC000100065748
REMARK  3 active torsions:
REMARK  status: ('A' for Active; 'I' for Inactive)
REMARK    1  A    between atoms: C_1  and  C_2
REMARK    2  A    between atoms: C_6  and  C_7
REMARK    3  A    between atoms: C_13  and  C_14
REMARK                            x       y       z     vdW  Elec       q    Type
REMARK                         _______ _______ _______ _____ _____    ______ ____
ROOT
ATOM      1  C   UNL     1      -0.286   1.491 -20.909  0.00  0.00    +0.008 C 
ATOM      2  C   UNL     1      -1.293   2.032 -21.548  0.00  0.00    -0.008 C 
ATOM      3  C   UNL     1      -2.500   1.968 -21.043  0.00  0.00    +0.004 C 
ATOM      4  C   UNL     1      -3.520   2.516 -21.690  0.00  0.00    +0.008 C 
ATOM      5  C   UNL     1      -3.320   3.120 -22.835  0.00  0.00    +0.044 C 
ATOM      6  C   UNL     1      -4.327   3.661 -23.475  0.00  0.00    +0.101 C 
ATOM      7  C   UNL     1      -4.140   4.272 -24.627  0.00  0.00    +0.313 C 
ATOM      8  O   UNL     1      -2.911   4.334 -25.136  0.00  0.00    -0.432 OA
ATOM      9  C   UNL     1      -1.904   3.793 -24.497  0.00  0.00    +0.349 C 
ATOM     10  O   UNL     1      -0.852   4.020 -25.243  0.00  0.00    -0.305 OA
ATOM     11  C   UNL     1       0.401   3.658 -25.003  0.00  0.00    +0.204 C 
ATOM     12  C   UNL     1       0.867   2.997 -23.973  0.00  0.00    +0.068 C 
ATOM     13  C   UNL     1       0.203   2.531 -22.926  0.00  0.00    +0.012 C 
ATOM     14  C   UNL     1       1.292   4.009 -25.920  0.00  0.00    +0.077 C 
ATOM     15  O   UNL     1       0.037   3.162 -23.999  0.00  0.00    -0.199 OA
ATOM     16  O   UNL     1      -0.936   2.973 -23.345  0.00  0.00    -0.218 OA
ATOM     17  O   UNL     1      -5.156   4.815 -25.267  0.00  0.00    -0.250 OA
ATOM     18  C   UNL     1      -5.532   3.594 -22.963  0.00  0.00    +0.019 C 
ATOM     19  C   UNL     1      -2.113   3.184 -23.341  0.00  0.00    +0.173 C 
ATOM     20  C   UNL     1      -1.094   2.637 -22.693  0.00  0.00    +0.034 C 
ENDROOT
TORSDOF 0
ENDMDL
MODEL 5
REMARK VINA RESULT:    -9.610      1.611      3.674
REMARK INTER + INTRA:          -9.610
REMARK INTER:                  -9.610
REMARK INTRA:                   0.000
REMARK UNBOUND:                 0.000
REMARK  Name = C[C@@H]1CC[C@@H]2[C@@H](C)C(=O)O[C@H]3O[C@]4(C)CC[C@H]1[C@]32OO4     ZINC000100065748
REMARK  3 active torsions:
REMARK  status: ('A' for Active; 'I' for Inactive)
REMARK    1  A    between atoms: C_1  and  C_2
REMARK    2  A    between atoms: C_6  and  C_7
REMARK    3  A    between atoms: C_13  and  C_14
REMARK                            x       y       z     vdW  Elec       q    Type
REMARK                         _______ _______ _______ _____ _____    ______ ____
ROOT
ATOM      1  C   UNL     1      -5.138   3.471 -25.361  0.00  0.00    +0.008 C 
ATOM      2  C   UNL     1      -3.840   3.529 -25.196  0.00  0.00    -0.008 C 
ATOM      3  C   UNL     1      -3.049   3.582 -26.239  0.00  0.00    +0.004 C 
ATOM      4  C   UNL     1      -1.735   3.640 -26.072  0.00  0.00    +0.008 C 
ATOM      5  C   UNL     1      -1.227   3.644 -24.865  0.00  0.00    +0.044 C 
ATOM      6  C   UNL     1       0.071   3.701 -24.700  0.00  0.00    +0.101 C 
ATOM      7  C   UNL     1       0.594   3.705 -23.491  0.00  0.00    +0.313 C 
ATOM      8  O   UNL     1      -0.214   3.650 -22.434  0.00  0.00    -0.432 OA
ATOM      9  C   UNL     1      -1.512   3.593 -22.598  0.00  0.00    +0.349 C 
ATOM     10  O   UNL     1      -2.018   3.550 -21.391  0.00  0.00    -0.305 OA
ATOM     11  C   UNL     1      -3.299   3.486 -21.054  0.00  0.00    +0.204 C 
ATOM     12  C   UNL     1      -4.341   3.451 -21.847  0.00  0.00    +0.068 C 
ATOM     13  C   UNL     1      -4.369   3.471 -23.170  0.00  0.00    +0.012 C 
ATOM     14  C   UNL     1      -3.556   3.453 -19.754  0.00  0.00    +0.077 C 
ATOM     15  O   UNL     1      -3.573   3.492 -22.200  0.00  0.00    -0.199 OA
ATOM     16  O   UNL     1      -3.083   3.532 -23.281  0.00  0.00    -0.218 OA
ATOM     17  O   UNL     1       1.900   3.763 -23.329  0.00  0.00    -0.250 OA
ATOM     18  C   UNL     1       0.856   3.754 -25.748  0.00  0.00    +0.019 C 
ATOM     19  C   UNL     1      -2.018   3.590 -23.822  0.00  0.00    +0.173 C 
ATOM     20  C   UNL     1      -3.332   3.532 -23.989  0.00  0.00    +0.034 C 
ENDROOT
TORSDOF 0
ENDMDL
MODEL 6
REMARK VINA RESULT:    -9.521      1.402      3.328
REMARK INTER + INTRA:          -9.521
REMARK INTER:                  -9.521
REMARK INTRA:                   0.000
REMARK UNBOUND:                 0.000
REMARK  Name = C[C@@H]1CC[C@@H]2[C@@H](C)C(=O)O[C@H]3O[C@]4(C)CC[C@H]1[C@]32OO4     ZINC000100065748
REMARK  3 active torsions:
REMARK  status: ('A' for Active; 'I' for Inactive)
REMARK    1  A    between atoms: C_1  and  C_2
REMARK    2  A    between atoms: C_6  and  C_7
REMARK    3  A    between atoms: C_13  and  C_14
REMARK                            x       y       z     vdW  Elec       q    Type
REMARK                         _______ _______ _______ _____ _____    ______ ____
ROOT
ATOM      1  C   UNL     1      -3.316   4.144 -26.398  0.00  0.00    +0.008 C 
ATOM      2  C   UNL     1      -2.501   3.674 -25.487  0.00  0.00    -0.008 C 
ATOM      3  C   UNL     1      -1.229   3.523 -25.760  0.00  0.00    +0.004 C 
ATOM      4  C   UNL     1      -0.404   3.047 -24.838  0.00  0.00    +0.008 C 
ATOM      5  C   UNL     1      -0.861   2.727 -23.653  0.00  0.00    +0.044 C 
ATOM      6  C   UNL     1      -0.046   2.257 -22.741  0.00  0.00    +0.101 C 
ATOM      7  C   UNL     1      -0.493   1.931 -21.546  0.00  0.00    +0.313 C 
ATOM      8  O   UNL     1      -1.787   2.086 -21.273  0.00  0.00    -0.432 OA
ATOM      9  C   UNL     1      -2.602   2.556 -22.183  0.00  0.00    +0.349 C 
ATOM     10  O   UNL     1      -3.782   2.589 -21.617  0.00  0.00    -0.305 OA
ATOM     11  C   UNL     1      -4.925   2.993 -22.153  0.00  0.00    +0.204 C 
ATOM     12  C   UNL     1      -5.132   3.449 -23.364  0.00  0.00    +0.068 C 
ATOM     13  C   UNL     1      -4.253   3.616 -24.340  0.00  0.00    +0.012 C 
ATOM     14  C   UNL     1      -5.991   2.928 -21.367  0.00  0.00    +0.077 C 
ATOM     15  O   UNL     1      -4.344   3.225 -23.151  0.00  0.00    -0.199 OA
ATOM     16  O   UNL     1      -3.261   3.183 -23.636  0.00  0.00    -0.218 OA
ATOM     17  O   UNL     1       0.330   1.459 -20.632  0.00  0.00    -0.250 OA
ATOM     18  C   UNL     1       1.225   2.109 -23.023  0.00  0.00    +0.019 C 
ATOM     19  C   UNL     1      -2.133   2.878 -23.379  0.00  0.00    +0.173 C 
ATOM     20  C   UNL     1      -2.958   3.354 -24.301  0.00  0.00    +0.034 C 
ENDROOT
TORSDOF 0
ENDMDL
MODEL 7
REMARK VINA RESULT:    -9.370      1.569      3.650
REMARK INTER + INTRA:          -9.370
REMARK INTER:                  -9.370
REMARK INTRA:                   0.000
REMARK UNBOUND:                 0.000
REMARK  Name = C[C@@H]1CC[C@@H]2[C@@H](C)C(=O)O[C@H]3O[C@]4(C)CC[C@H]1[C@]32OO4     ZINC000100065748
REMARK  3 active torsions:
REMARK  status: ('A' for Active; 'I' for Inactive)
REMARK    1  A    between atoms: C_1  and  C_2
REMARK    2  A    between atoms: C_6  and  C_7
REMARK    3  A    between atoms: C_13  and  C_14
REMARK                            x       y       z     vdW  Elec       q    Type
REMARK                         _______ _______ _______ _____ _____    ______ ____
ROOT
ATOM      1  C   UNL     1      -2.728   4.028 -25.737  0.00  0.00    +0.008 C 
ATOM      2  C   UNL     1      -1.746   3.553 -25.012  0.00  0.00    -0.008 C 
ATOM      3  C   UNL     1      -0.529   3.524 -25.497  0.00  0.00    +0.004 C 
ATOM      4  C   UNL     1       0.465   3.043 -24.763  0.00  0.00    +0.008 C 
ATOM      5  C   UNL     1       0.232   2.597 -23.554  0.00  0.00    +0.044 C 
ATOM      6  C   UNL     1       1.214   2.122 -22.829  0.00  0.00    +0.101 C 
ATOM      7  C   UNL     1       0.991   1.671 -21.612  0.00  0.00    +0.313 C 
ATOM      8  O   UNL     1      -0.247   1.703 -21.124  0.00  0.00    -0.432 OA
ATOM      9  C   UNL     1      -1.229   2.178 -21.848  0.00  0.00    +0.349 C 
ATOM     10  O   UNL     1      -2.300   2.073 -21.101  0.00  0.00    -0.305 OA
ATOM     11  C   UNL     1      -3.539   2.428 -21.411  0.00  0.00    +0.204 C 
ATOM     12  C   UNL     1      -3.971   2.960 -22.528  0.00  0.00    +0.068 C 
ATOM     13  C   UNL     1      -3.278   3.270 -23.612  0.00  0.00    +0.012 C 
ATOM     14  C   UNL     1      -4.455   2.219 -20.475  0.00  0.00    +0.077 C 
ATOM     15  O   UNL     1      -3.146   2.781 -22.464  0.00  0.00    -0.199 OA
ATOM     16  O   UNL     1      -2.157   2.862 -23.116  0.00  0.00    -0.218 OA
ATOM     17  O   UNL     1       1.982   1.194 -20.886  0.00  0.00    -0.250 OA
ATOM     18  C   UNL     1       2.428   2.097 -23.320  0.00  0.00    +0.019 C 
ATOM     19  C   UNL     1      -0.985   2.627 -23.069  0.00  0.00    +0.173 C 
ATOM     20  C   UNL     1      -1.980   3.107 -23.803  0.00  0.00    +0.034 C 
ENDROOT
TORSDOF 0
ENDMDL
MODEL 8
REMARK VINA RESULT:    -9.151      1.836      5.135
REMARK INTER + INTRA:          -9.151
REMARK INTER:                  -9.151
REMARK INTRA:                   0.000
REMARK UNBOUND:                 0.000
REMARK  Name = C[C@@H]1CC[C@@H]2[C@@H](C)C(=O)O[C@H]3O[C@]4(C)CC[C@H]1[C@]32OO4     ZINC000100065748
REMARK  3 active torsions:
REMARK  status: ('A' for Active; 'I' for Inactive)
REMARK    1  A    between atoms: C_1  and  C_2
REMARK    2  A    between atoms: C_6  and  C_7
REMARK    3  A    between atoms: C_13  and  C_14
REMARK                            x       y       z     vdW  Elec       q    Type
REMARK                         _______ _______ _______ _____ _____    ______ ____
ROOT
ATOM      1  C   UNL     1       0.819   3.522 -25.862  0.00  0.00    +0.008 C 
ATOM      2  C   UNL     1      -0.215   3.383 -25.070  0.00  0.00    -0.008 C 
ATOM      3  C   UNL     1      -1.407   3.739 -25.480  0.00  0.00    +0.004 C 
ATOM      4  C   UNL     1      -2.454   3.598 -24.678  0.00  0.00    +0.008 C 
ATOM      5  C   UNL     1      -2.297   3.103 -23.476  0.00  0.00    +0.044 C 
ATOM      6  C   UNL     1      -3.331   2.963 -22.684  0.00  0.00    +0.101 C 
ATOM      7  C   UNL     1      -3.185   2.467 -21.473  0.00  0.00    +0.313 C 
ATOM      8  O   UNL     1      -1.972   2.107 -21.060  0.00  0.00    -0.432 OA
ATOM      9  C   UNL     1      -0.937   2.246 -21.851  0.00  0.00    +0.349 C 
ATOM     10  O   UNL     1       0.091   1.810 -21.167  0.00  0.00    -0.305 OA
ATOM     11  C   UNL     1       1.356   1.755 -21.558  0.00  0.00    +0.204 C 
ATOM     12  C   UNL     1       1.862   2.121 -22.710  0.00  0.00    +0.068 C 
ATOM     13  C   UNL     1       1.235   2.633 -23.758  0.00  0.00    +0.012 C 
ATOM     14  C   UNL     1       2.217   1.269 -20.674  0.00  0.00    +0.077 C 
ATOM     15  O   UNL     1       1.029   2.213 -22.593  0.00  0.00    -0.199 OA
ATOM     16  O   UNL     1       0.077   2.601 -23.187  0.00  0.00    -0.218 OA
ATOM     17  O   UNL     1      -4.228   2.329 -20.679  0.00  0.00    -0.250 OA
ATOM     18  C   UNL     1      -4.520   3.322 -23.102  0.00  0.00    +0.019 C 
ATOM     19  C   UNL     1      -1.104   2.747 -23.065  0.00  0.00    +0.173 C 
ATOM     20  C   UNL     1      -0.058   2.888 -23.867  0.00  0.00    +0.034 C 
ENDROOT
TORSDOF 0
ENDMDL
MODEL 9
REMARK VINA RESULT:    -9.058      1.229      3.605
REMARK INTER + INTRA:          -9.058
REMARK INTER:                  -9.058
REMARK INTRA:                   0.000
REMARK UNBOUND:                 0.000
REMARK  Name = C[C@@H]1CC[C@@H]2[C@@H](C)C(=O)O[C@H]3O[C@]4(C)CC[C@H]1[C@]32OO4     ZINC000100065748
REMARK  3 active torsions:
REMARK  status: ('A' for Active; 'I' for Inactive)
REMARK    1  A    between atoms: C_1  and  C_2
REMARK    2  A    between atoms: C_6  and  C_7
REMARK    3  A    between atoms: C_13  and  C_14
REMARK                            x       y       z     vdW  Elec       q    Type
REMARK                         _______ _______ _______ _____ _____    ______ ____
ROOT
ATOM      1  C   UNL     1       0.772   2.681 -23.546  0.00  0.00    +0.008 C 
ATOM      2  C   UNL     1      -0.433   2.748 -23.036  0.00  0.00    -0.008 C 
ATOM      3  C   UNL     1      -0.610   2.570 -21.750  0.00  0.00    +0.004 C 
ATOM      4  C   UNL     1      -1.830   2.638 -21.234  0.00  0.00    +0.008 C 
ATOM      5  C   UNL     1      -2.857   2.883 -22.009  0.00  0.00    +0.044 C 
ATOM      6  C   UNL     1      -4.062   2.950 -21.498  0.00  0.00    +0.101 C 
ATOM      7  C   UNL     1      -5.103   3.195 -22.267  0.00  0.00    +0.313 C 
ATOM      8  O   UNL     1      -4.917   3.375 -23.573  0.00  0.00    -0.432 OA
ATOM      9  C   UNL     1      -3.713   3.308 -24.084  0.00  0.00    +0.349 C 
ATOM     10  O   UNL     1      -3.862   3.525 -25.367  0.00  0.00    -0.305 OA
ATOM     11  C   UNL     1      -2.917   3.555 -26.296  0.00  0.00    +0.204 C 
ATOM     12  C   UNL     1      -1.628   3.375 -26.143  0.00  0.00    +0.068 C 
ATOM     13  C   UNL     1      -0.961   3.121 -25.028  0.00  0.00    +0.012 C 
ATOM     14  C   UNL     1      -3.327   3.797 -27.534  0.00  0.00    +0.077 C 
ATOM     15  O   UNL     1      -2.122   3.328 -25.457  0.00  0.00    -0.199 OA
ATOM     16  O   UNL     1      -2.020   3.135 -24.290  0.00  0.00    -0.218 OA
ATOM     17  O   UNL     1      -6.313   3.262 -21.750  0.00  0.00    -0.250 OA
ATOM     18  C   UNL     1      -4.232   2.771 -20.212  0.00  0.00    +0.019 C 
ATOM     19  C   UNL     1      -2.679   3.061 -23.294  0.00  0.00    +0.173 C 
ATOM     20  C   UNL     1      -1.460   2.993 -23.811  0.00  0.00    +0.034 C 
ENDROOT
TORSDOF 0
ENDMDL
