MODEL 1
REMARK VINA RESULT:   -10.530      0.000      0.000
REMARK INTER + INTRA:         -10.829
REMARK INTER:                 -11.824
REMARK INTRA:                   0.995
REMARK UNBOUND:                 0.932
REMARK  Name = COC1=C[C@@]2(C)Oc3c(OC)ccc4c3[C@@]23CCN(C)[C@H](C4)C3=C1             ZINC000096316409
REMARK  6 active torsions:
REMARK  status: ('A' for Active; 'I' for Inactive)
REMARK    1  A    between atoms: C_1  and  O_2
REMARK    2  A    between atoms: O_2  and  C_3
REMARK    3  A    between atoms: C_5  and  C_6
REMARK    4  A    between atoms: C_9  and  O_10
REMARK    5  A    between atoms: O_10  and  C_11
REMARK    6  A    between atoms: N_19  and  C_20
REMARK                            x       y       z     vdW  Elec       q    Type
REMARK                         _______ _______ _______ _____ _____    ______ ____
ROOT
ATOM      1  C   UNL     1       0.583   2.265 -22.487  0.00  0.00    +0.120 C 
ATOM      2  C   UNL     1      -0.367   2.256 -21.649  0.00  0.00    +0.066 C 
ATOM      3  C   UNL     1      -1.517   2.600 -22.007  0.00  0.00    +0.143 C 
ATOM      4  O   UNL     1      -2.960   2.812 -21.607  0.00  0.00    -0.477 OA
ATOM      5  C   UNL     1      -3.830   3.295 -22.733  0.00  0.00    +0.168 A 
ATOM      6  C   UNL     1      -4.995   3.644 -23.097  0.00  0.00    +0.162 A 
ATOM      7  C   UNL     1      -5.194   3.999 -24.296  0.00  0.00    +0.050 A 
ATOM      8  C   UNL     1      -4.252   4.006 -25.123  0.00  0.00    +0.008 A 
ATOM      9  C   UNL     1      -3.100   3.660 -24.761  0.00  0.00    -0.034 A 
ATOM     10  C   UNL     1      -2.139   3.667 -25.597  0.00  0.00    +0.094 C 
ATOM     11  C   UNL     1      -0.991   3.322 -25.236  0.00  0.00    +0.097 C 
ATOM     12  C   UNL     1      -0.788   2.967 -24.036  0.00  0.00    -0.003 C 
ATOM     13  N   UNL     1       0.352   2.948 -24.928  0.00  0.00    +0.239 N 
ATOM     14  H   UNL     1       1.096   2.966 -25.625  0.00  0.00    +0.204 HD
ATOM     15  C   UNL     1       1.255   2.975 -25.794  0.00  0.00    +0.191 C 
ATOM     16  C   UNL     1       0.613   2.547 -23.599  0.00  0.00    +0.133 C 
ATOM     17  C   UNL     1      -0.469   2.548 -22.690  0.00  0.00    +0.071 C 
ATOM     18  C   UNL     1      -2.882   3.304 -23.570  0.00  0.00    +0.016 A 
ATOM     19  C   UNL     1      -1.597   2.303 -20.791  0.00  0.00    +0.062 C 
ATOM     20  C   UNL     1      -1.731   2.959 -23.212  0.00  0.00    +0.074 C 
ATOM     21  C   UNL     1       0.375   2.618 -23.672  0.00  0.00    +0.051 C 
ENDROOT
BRANCH   1  23
ATOM     22  C   UNL     1       2.161   0.777 -22.410  0.00  0.00    +0.277 C 
ATOM     23  O   UNL     1       1.733   1.921 -22.131  0.00  0.00    -0.495 OA
ENDBRANCH   1  23
BRANCH   6  24
ATOM     24  O   UNL     1      -5.940   3.638 -22.274  0.00  0.00    -0.491 OA
ATOM     25  C   UNL     1      -6.293   2.565 -21.732  0.00  0.00    +0.277 C 
ENDBRANCH   6  24
TORSDOF 2
ENDMDL
MODEL 2
REMARK VINA RESULT:   -10.381      1.772      5.654
REMARK INTER + INTRA:         -10.663
REMARK INTER:                 -11.599
REMARK INTRA:                   0.937
REMARK UNBOUND:                 0.932
REMARK  Name = COC1=C[C@@]2(C)Oc3c(OC)ccc4c3[C@@]23CCN(C)[C@H](C4)C3=C1             ZINC000096316409
REMARK  6 active torsions:
REMARK  status: ('A' for Active; 'I' for Inactive)
REMARK    1  A    between atoms: C_1  and  O_2
REMARK    2  A    between atoms: O_2  and  C_3
REMARK    3  A    between atoms: C_5  and  C_6
REMARK    4  A    between atoms: C_9  and  O_10
REMARK    5  A    between atoms: O_10  and  C_11
REMARK    6  A    between atoms: N_19  and  C_20
REMARK                            x       y       z     vdW  Elec       q    Type
REMARK                         _______ _______ _______ _____ _____    ______ ____
ROOT
ATOM      1  C   UNL     1      -3.156   3.868 -24.633  0.00  0.00    +0.120 C 
ATOM      2  C   UNL     1      -2.000   3.849 -25.150  0.00  0.00    +0.066 C 
ATOM      3  C   UNL     1      -1.037   3.378 -24.504  0.00  0.00    +0.143 C 
ATOM      4  O   UNL     1       0.443   3.064 -24.480  0.00  0.00    -0.477 OA
ATOM      5  C   UNL     1       0.901   2.427 -23.198  0.00  0.00    +0.168 A 
ATOM      6  C   UNL     1       1.876   1.949 -22.542  0.00  0.00    +0.162 A 
ATOM      7  C   UNL     1       1.682   1.496 -21.375  0.00  0.00    +0.050 A 
ATOM      8  C   UNL     1       0.537   1.517 -20.867  0.00  0.00    +0.008 A 
ATOM      9  C   UNL     1      -0.428   1.990 -21.517  0.00  0.00    -0.034 A 
ATOM     10  C   UNL     1      -1.594   2.013 -21.005  0.00  0.00    +0.094 C 
ATOM     11  C   UNL     1      -2.555   2.485 -21.654  0.00  0.00    +0.097 C 
ATOM     12  C   UNL     1      -2.364   2.940 -22.821  0.00  0.00    -0.003 C 
ATOM     13  N   UNL     1      -3.715   3.000 -22.306  0.00  0.00    +0.239 N 
ATOM     14  H   UNL     1      -4.634   3.002 -21.863  0.00  0.00    +0.204 HD
ATOM     15  C   UNL     1      -4.837   2.996 -21.750  0.00  0.00    +0.191 C 
ATOM     16  C   UNL     1      -3.538   3.514 -23.610  0.00  0.00    +0.133 C 
ATOM     17  C   UNL     1      -2.235   3.478 -24.157  0.00  0.00    +0.071 C 
ATOM     18  C   UNL     1      -0.254   2.446 -22.681  0.00  0.00    +0.016 A 
ATOM     19  C   UNL     1      -0.575   3.750 -25.609  0.00  0.00    +0.062 C 
ATOM     20  C   UNL     1      -1.218   2.918 -23.328  0.00  0.00    +0.074 C 
ATOM     21  C   UNL     1      -3.338   3.417 -23.477  0.00  0.00    +0.051 C 
ENDROOT
BRANCH   1  23
ATOM     22  C   UNL     1      -4.911   3.572 -25.875  0.00  0.00    +0.277 C 
ATOM     23  O   UNL     1      -4.121   4.339 -25.277  0.00  0.00    -0.495 OA
ENDBRANCH   1  23
BRANCH   6  24
ATOM     24  O   UNL     1       3.023   1.927 -23.046  0.00  0.00    -0.491 OA
ATOM     25  C   UNL     1       3.332   1.028 -23.863  0.00  0.00    +0.277 C 
ENDBRANCH   6  24
TORSDOF 2
ENDMDL
MODEL 3
REMARK VINA RESULT:   -10.355      1.262      4.926
REMARK INTER + INTRA:         -10.633
REMARK INTER:                 -11.591
REMARK INTRA:                   0.958
REMARK UNBOUND:                 0.932
REMARK  Name = COC1=C[C@@]2(C)Oc3c(OC)ccc4c3[C@@]23CCN(C)[C@H](C4)C3=C1             ZINC000096316409
REMARK  6 active torsions:
REMARK  status: ('A' for Active; 'I' for Inactive)
REMARK    1  A    between atoms: C_1  and  O_2
REMARK    2  A    between atoms: O_2  and  C_3
REMARK    3  A    between atoms: C_5  and  C_6
REMARK    4  A    between atoms: C_9  and  O_10
REMARK    5  A    between atoms: O_10  and  C_11
REMARK    6  A    between atoms: N_19  and  C_20
REMARK                            x       y       z     vdW  Elec       q    Type
REMARK                         _______ _______ _______ _____ _____    ______ ____
ROOT
ATOM      1  C   UNL     1      -4.432   3.469 -22.387  0.00  0.00    +0.120 C 
ATOM      2  C   UNL     1      -3.516   3.235 -21.545  0.00  0.00    +0.066 C 
ATOM      3  C   UNL     1      -2.329   3.125 -21.930  0.00  0.00    +0.143 C 
ATOM      4  O   UNL     1      -0.888   2.880 -21.543  0.00  0.00    -0.477 OA
ATOM      5  C   UNL     1       0.059   2.906 -22.711  0.00  0.00    +0.168 A 
ATOM      6  C   UNL     1       1.261   2.796 -23.102  0.00  0.00    +0.162 A 
ATOM      7  C   UNL     1       1.531   2.921 -24.333  0.00  0.00    +0.050 A 
ATOM      8  C   UNL     1       0.622   3.153 -25.164  0.00  0.00    +0.008 A 
ATOM      9  C   UNL     1      -0.568   3.262 -24.775  0.00  0.00    -0.034 A 
ATOM     10  C   UNL     1      -1.496   3.497 -25.615  0.00  0.00    +0.094 C 
ATOM     11  C   UNL     1      -2.681   3.606 -25.226  0.00  0.00    +0.097 C 
ATOM     12  C   UNL     1      -2.955   3.481 -23.995  0.00  0.00    -0.003 C 
ATOM     13  N   UNL     1      -4.061   3.747 -24.889  0.00  0.00    +0.239 N 
ATOM     14  H   UNL     1      -4.777   3.936 -25.591  0.00  0.00    +0.204 HD
ATOM     15  C   UNL     1      -4.929   3.979 -25.762  0.00  0.00    +0.191 C 
ATOM     16  C   UNL     1      -4.401   3.614 -23.525  0.00  0.00    +0.133 C 
ATOM     17  C   UNL     1      -3.354   3.353 -22.612  0.00  0.00    +0.071 C 
ATOM     18  C   UNL     1      -0.857   3.140 -23.552  0.00  0.00    +0.016 A 
ATOM     19  C   UNL     1      -2.316   2.960 -20.687  0.00  0.00    +0.062 C 
ATOM     20  C   UNL     1      -2.044   3.249 -23.166  0.00  0.00    +0.074 C 
ATOM     21  C   UNL     1      -4.155   3.591 -23.604  0.00  0.00    +0.051 C 
ENDROOT
BRANCH   1  23
ATOM     22  C   UNL     1      -6.282   2.556 -21.713  0.00  0.00    +0.277 C 
ATOM     23  O   UNL     1      -5.619   3.578 -22.004  0.00  0.00    -0.495 OA
ENDBRANCH   1  23
BRANCH   6  24
ATOM     24  O   UNL     1       2.174   2.564 -22.275  0.00  0.00    -0.491 OA
ATOM     25  C   UNL     1       2.494   1.383 -22.008  0.00  0.00    +0.277 C 
ENDBRANCH   6  24
TORSDOF 2
ENDMDL
MODEL 4
REMARK VINA RESULT:   -10.267      1.889      3.532
REMARK INTER + INTRA:         -10.535
REMARK INTER:                 -11.560
REMARK INTRA:                   1.025
REMARK UNBOUND:                 0.932
REMARK  Name = COC1=C[C@@]2(C)Oc3c(OC)ccc4c3[C@@]23CCN(C)[C@H](C4)C3=C1             ZINC000096316409
REMARK  6 active torsions:
REMARK  status: ('A' for Active; 'I' for Inactive)
REMARK    1  A    between atoms: C_1  and  O_2
REMARK    2  A    between atoms: O_2  and  C_3
REMARK    3  A    between atoms: C_5  and  C_6
REMARK    4  A    between atoms: C_9  and  O_10
REMARK    5  A    between atoms: O_10  and  C_11
REMARK    6  A    between atoms: N_19  and  C_20
REMARK                            x       y       z     vdW  Elec       q    Type
REMARK                         _______ _______ _______ _____ _____    ______ ____
ROOT
ATOM      1  C   UNL     1       2.797   2.541 -23.977  0.00  0.00    +0.120 C 
ATOM      2  C   UNL     1       1.971   3.145 -24.724  0.00  0.00    +0.066 C 
ATOM      3  C   UNL     1       0.765   3.211 -24.393  0.00  0.00    +0.143 C 
ATOM      4  O   UNL     1      -0.621   3.706 -24.742  0.00  0.00    -0.477 OA
ATOM      5  C   UNL     1      -1.662   3.343 -23.721  0.00  0.00    +0.168 A 
ATOM      6  C   UNL     1      -2.884   3.410 -23.385  0.00  0.00    +0.162 A 
ATOM      7  C   UNL     1      -3.265   2.870 -22.303  0.00  0.00    +0.050 A 
ATOM      8  C   UNL     1      -2.445   2.274 -21.567  0.00  0.00    +0.008 A 
ATOM      9  C   UNL     1      -1.236   2.208 -21.902  0.00  0.00    -0.034 A 
ATOM     10  C   UNL     1      -0.398   1.603 -21.156  0.00  0.00    +0.094 C 
ATOM     11  C   UNL     1       0.807   1.538 -21.491  0.00  0.00    +0.097 C 
ATOM     12  C   UNL     1       1.190   2.076 -22.572  0.00  0.00    -0.003 C 
ATOM     13  N   UNL     1       2.198   1.407 -21.778  0.00  0.00    +0.239 N 
ATOM     14  H   UNL     1       2.839   0.914 -21.156  0.00  0.00    +0.204 HD
ATOM     15  C   UNL     1       2.973   0.799 -21.006  0.00  0.00    +0.191 C 
ATOM     16  C   UNL     1       2.660   1.996 -22.976  0.00  0.00    +0.133 C 
ATOM     17  C   UNL     1       1.712   2.662 -23.786  0.00  0.00    +0.071 C 
ATOM     18  C   UNL     1      -0.838   2.739 -22.975  0.00  0.00    +0.016 A 
ATOM     19  C   UNL     1       0.868   3.817 -25.486  0.00  0.00    +0.062 C 
ATOM     20  C   UNL     1       0.369   2.673 -23.307  0.00  0.00    +0.074 C 
ATOM     21  C   UNL     1       2.410   2.010 -22.909  0.00  0.00    +0.051 C 
ENDROOT
BRANCH   1  23
ATOM     22  C   UNL     1       4.880   3.013 -23.593  0.00  0.00    +0.277 C 
ATOM     23  O   UNL     1       4.003   2.473 -24.307  0.00  0.00    -0.495 OA
ENDBRANCH   1  23
BRANCH   6  24
ATOM     24  O   UNL     1      -3.708   4.005 -24.118  0.00  0.00    -0.491 OA
ATOM     25  C   UNL     1      -4.937   3.835 -23.948  0.00  0.00    +0.277 C 
ENDBRANCH   6  24
TORSDOF 2
ENDMDL
MODEL 5
REMARK VINA RESULT:    -9.766      1.475      2.434
REMARK INTER + INTRA:          -9.975
REMARK INTER:                 -11.125
REMARK INTRA:                   1.150
REMARK UNBOUND:                 0.932
REMARK  Name = COC1=C[C@@]2(C)Oc3c(OC)ccc4c3[C@@]23CCN(C)[C@H](C4)C3=C1             ZINC000096316409
REMARK  6 active torsions:
REMARK  status: ('A' for Active; 'I' for Inactive)
REMARK    1  A    between atoms: C_1  and  O_2
REMARK    2  A    between atoms: O_2  and  C_3
REMARK    3  A    between atoms: C_5  and  C_6
REMARK    4  A    between atoms: C_9  and  O_10
REMARK    5  A    between atoms: O_10  and  C_11
REMARK    6  A    between atoms: N_19  and  C_20
REMARK                            x       y       z     vdW  Elec       q    Type
REMARK                         _______ _______ _______ _____ _____    ______ ____
ROOT
ATOM      1  C   UNL     1       1.852   1.569 -21.470  0.00  0.00    +0.120 C 
ATOM      2  C   UNL     1       0.618   1.492 -21.194  0.00  0.00    +0.066 C 
ATOM      3  C   UNL     1      -0.231   1.909 -22.014  0.00  0.00    +0.143 C 
ATOM      4  O   UNL     1      -1.695   2.117 -22.329  0.00  0.00    -0.477 OA
ATOM      5  C   UNL     1      -1.937   2.751 -23.670  0.00  0.00    +0.168 A 
ATOM      6  C   UNL     1      -2.796   3.174 -24.502  0.00  0.00    +0.162 A 
ATOM      7  C   UNL     1      -2.410   3.669 -25.602  0.00  0.00    +0.050 A 
ATOM      8  C   UNL     1      -1.188   3.743 -25.872  0.00  0.00    +0.008 A 
ATOM      9  C   UNL     1      -0.339   3.324 -25.047  0.00  0.00    -0.034 A 
ATOM     10  C   UNL     1       0.904   3.397 -25.318  0.00  0.00    +0.094 C 
ATOM     11  C   UNL     1       1.750   2.979 -24.495  0.00  0.00    +0.097 C 
ATOM     12  C   UNL     1       1.367   2.483 -23.393  0.00  0.00    -0.003 C 
ATOM     13  N   UNL     1       2.793   2.533 -23.629  0.00  0.00    +0.239 N 
ATOM     14  H   UNL     1       3.780   2.608 -23.880  0.00  0.00    +0.204 HD
ATOM     15  C   UNL     1       4.000   2.631 -23.951  0.00  0.00    +0.191 C 
ATOM     16  C   UNL     1       2.401   1.974 -22.393  0.00  0.00    +0.133 C 
ATOM     17  C   UNL     1       1.017   1.904 -22.116  0.00  0.00    +0.071 C 
ATOM     18  C   UNL     1      -0.705   2.828 -23.946  0.00  0.00    +0.016 A 
ATOM     19  C   UNL     1      -0.873   1.478 -21.027  0.00  0.00    +0.062 C 
ATOM     20  C   UNL     1       0.145   2.410 -23.125  0.00  0.00    +0.074 C 
ATOM     21  C   UNL     1       2.224   2.060 -22.562  0.00  0.00    +0.051 C 
ENDROOT
BRANCH   1  23
ATOM     22  C   UNL     1       3.613   0.379 -21.029  0.00  0.00    +0.277 C 
ATOM     23  O   UNL     1       2.702   1.152 -20.651  0.00  0.00    -0.495 OA
ENDBRANCH   1  23
BRANCH   6  24
ATOM     24  O   UNL     1      -4.019   3.102 -24.236  0.00  0.00    -0.491 OA
ATOM     25  C   UNL     1      -4.809   3.969 -24.677  0.00  0.00    +0.277 C 
ENDBRANCH   6  24
TORSDOF 2
ENDMDL
MODEL 6
REMARK VINA RESULT:    -9.623      1.560      5.544
REMARK INTER + INTRA:          -9.816
REMARK INTER:                 -10.805
REMARK INTRA:                   0.989
REMARK UNBOUND:                 0.932
REMARK  Name = COC1=C[C@@]2(C)Oc3c(OC)ccc4c3[C@@]23CCN(C)[C@H](C4)C3=C1             ZINC000096316409
REMARK  6 active torsions:
REMARK  status: ('A' for Active; 'I' for Inactive)
REMARK    1  A    between atoms: C_1  and  O_2
REMARK    2  A    between atoms: O_2  and  C_3
REMARK    3  A    between atoms: C_5  and  C_6
REMARK    4  A    between atoms: C_9  and  O_10
REMARK    5  A    between atoms: O_10  and  C_11
REMARK    6  A    between atoms: N_19  and  C_20
REMARK                            x       y       z     vdW  Elec       q    Type
REMARK                         _______ _______ _______ _____ _____    ______ ____
ROOT
ATOM      1  C   UNL     1      -1.793   2.294 -22.462  0.00  0.00    +0.120 C 
ATOM      2  C   UNL     1      -1.042   1.899 -21.521  0.00  0.00    +0.066 C 
ATOM      3  C   UNL     1       0.199   1.873 -21.684  0.00  0.00    +0.143 C 
ATOM      4  O   UNL     1       1.551   1.560 -21.082  0.00  0.00    -0.477 OA
ATOM      5  C   UNL     1       2.698   1.822 -22.017  0.00  0.00    +0.168 A 
ATOM      6  C   UNL     1       3.956   1.796 -22.183  0.00  0.00    +0.162 A 
ATOM      7  C   UNL     1       4.448   2.167 -23.290  0.00  0.00    +0.050 A 
ATOM      8  C   UNL     1       3.702   2.557 -24.219  0.00  0.00    +0.008 A 
ATOM      9  C   UNL     1       2.457   2.582 -24.053  0.00  0.00    -0.034 A 
ATOM     10  C   UNL     1       1.695   2.978 -24.994  0.00  0.00    +0.094 C 
ATOM     11  C   UNL     1       0.454   3.003 -24.827  0.00  0.00    +0.097 C 
ATOM     12  C   UNL     1      -0.041   2.633 -23.721  0.00  0.00    -0.003 C 
ATOM     13  N   UNL     1      -0.969   3.069 -24.741  0.00  0.00    +0.239 N 
ATOM     14  H   UNL     1      -1.547   3.393 -25.517  0.00  0.00    +0.204 HD
ATOM     15  C   UNL     1      -1.666   3.468 -25.702  0.00  0.00    +0.191 C 
ATOM     16  C   UNL     1      -1.554   2.664 -23.521  0.00  0.00    +0.133 C 
ATOM     17  C   UNL     1      -0.687   2.229 -22.493  0.00  0.00    +0.071 C 
ATOM     18  C   UNL     1       1.949   2.217 -22.956  0.00  0.00    +0.016 A 
ATOM     19  C   UNL     1      -0.016   1.462 -20.518  0.00  0.00    +0.062 C 
ATOM     20  C   UNL     1       0.706   2.243 -22.793  0.00  0.00    +0.074 C 
ATOM     21  C   UNL     1      -1.297   2.659 -23.554  0.00  0.00    +0.051 C 
ENDROOT
BRANCH   1  23
ATOM     22  C   UNL     1      -3.605   3.392 -21.990  0.00  0.00    +0.277 C 
ATOM     23  O   UNL     1      -3.034   2.321 -22.301  0.00  0.00    -0.495 OA
ENDBRANCH   1  23
BRANCH   6  24
ATOM     24  O   UNL     1       4.706   1.407 -21.257  0.00  0.00    -0.491 OA
ATOM     25  C   UNL     1       4.632   0.227 -20.844  0.00  0.00    +0.277 C 
ENDBRANCH   6  24
TORSDOF 2
ENDMDL
MODEL 7
REMARK VINA RESULT:    -9.225      2.432      3.880
REMARK INTER + INTRA:          -9.371
REMARK INTER:                 -10.405
REMARK INTRA:                   1.033
REMARK UNBOUND:                 0.932
REMARK  Name = COC1=C[C@@]2(C)Oc3c(OC)ccc4c3[C@@]23CCN(C)[C@H](C4)C3=C1             ZINC000096316409
REMARK  6 active torsions:
REMARK  status: ('A' for Active; 'I' for Inactive)
REMARK    1  A    between atoms: C_1  and  O_2
REMARK    2  A    between atoms: O_2  and  C_3
REMARK    3  A    between atoms: C_5  and  C_6
REMARK    4  A    between atoms: C_9  and  O_10
REMARK    5  A    between atoms: O_10  and  C_11
REMARK    6  A    between atoms: N_19  and  C_20
REMARK                            x       y       z     vdW  Elec       q    Type
REMARK                         _______ _______ _______ _____ _____    ______ ____
ROOT
ATOM      1  C   UNL     1       3.988   1.688 -22.388  0.00  0.00    +0.120 C 
ATOM      2  C   UNL     1       2.912   1.019 -22.384  0.00  0.00    +0.066 C 
ATOM      3  C   UNL     1       1.825   1.588 -22.630  0.00  0.00    +0.143 C 
ATOM      4  O   UNL     1       0.326   1.448 -22.783  0.00  0.00    -0.477 OA
ATOM      5  C   UNL     1      -0.365   2.738 -23.125  0.00  0.00    +0.168 A 
ATOM      6  C   UNL     1      -1.467   3.316 -23.374  0.00  0.00    +0.162 A 
ATOM      7  C   UNL     1      -1.479   4.558 -23.624  0.00  0.00    +0.050 A 
ATOM      8  C   UNL     1      -0.413   5.216 -23.627  0.00  0.00    +0.008 A 
ATOM      9  C   UNL     1       0.677   4.643 -23.381  0.00  0.00    -0.034 A 
ATOM     10  C   UNL     1       1.764   5.309 -23.383  0.00  0.00    +0.094 C 
ATOM     11  C   UNL     1       2.850   4.737 -23.136  0.00  0.00    +0.097 C 
ATOM     12  C   UNL     1       2.866   3.495 -22.886  0.00  0.00    -0.003 C 
ATOM     13  N   UNL     1       4.138   4.183 -22.870  0.00  0.00    +0.239 N 
ATOM     14  H   UNL     1       4.987   4.749 -22.880  0.00  0.00    +0.204 HD
ATOM     15  C   UNL     1       5.172   4.890 -22.886  0.00  0.00    +0.191 C 
ATOM     16  C   UNL     1       4.191   2.801 -22.586  0.00  0.00    +0.133 C 
ATOM     17  C   UNL     1       2.973   2.084 -22.590  0.00  0.00    +0.071 C 
ATOM     18  C   UNL     1       0.709   3.407 -23.129  0.00  0.00    +0.016 A 
ATOM     19  C   UNL     1       1.556   0.381 -22.421  0.00  0.00    +0.062 C 
ATOM     20  C   UNL     1       1.799   2.837 -22.883  0.00  0.00    +0.074 C 
ATOM     21  C   UNL     1       3.966   2.917 -22.637  0.00  0.00    +0.051 C 
ENDROOT
BRANCH   1  23
ATOM     22  C   UNL     1       5.278   0.608 -21.018  0.00  0.00    +0.277 C 
ATOM     23  O   UNL     1       5.077   1.121 -22.143  0.00  0.00    -0.495 OA
ENDBRANCH   1  23
BRANCH   6  24
ATOM     24  O   UNL     1      -2.535   2.661 -23.372  0.00  0.00    -0.491 OA
ATOM     25  C   UNL     1      -3.527   3.080 -22.733  0.00  0.00    +0.277 C 
ENDBRANCH   6  24
TORSDOF 2
ENDMDL
MODEL 8
REMARK VINA RESULT:    -8.720      1.436      2.935
REMARK INTER + INTRA:          -8.807
REMARK INTER:                 -10.475
REMARK INTRA:                   1.668
REMARK UNBOUND:                 0.932
REMARK  Name = COC1=C[C@@]2(C)Oc3c(OC)ccc4c3[C@@]23CCN(C)[C@H](C4)C3=C1             ZINC000096316409
REMARK  6 active torsions:
REMARK  status: ('A' for Active; 'I' for Inactive)
REMARK    1  A    between atoms: C_1  and  O_2
REMARK    2  A    between atoms: O_2  and  C_3
REMARK    3  A    between atoms: C_5  and  C_6
REMARK    4  A    between atoms: C_9  and  O_10
REMARK    5  A    between atoms: O_10  and  C_11
REMARK    6  A    between atoms: N_19  and  C_20
REMARK                            x       y       z     vdW  Elec       q    Type
REMARK                         _______ _______ _______ _____ _____    ______ ____
ROOT
ATOM      1  C   UNL     1       0.587   2.982 -24.709  0.00  0.00    +0.120 C 
ATOM      2  C   UNL     1      -0.531   3.370 -25.162  0.00  0.00    +0.066 C 
ATOM      3  C   UNL     1      -1.551   3.306 -24.439  0.00  0.00    +0.143 C 
ATOM      4  O   UNL     1      -3.038   3.556 -24.318  0.00  0.00    -0.477 OA
ATOM      5  C   UNL     1      -3.604   3.177 -22.978  0.00  0.00    +0.168 A 
ATOM      6  C   UNL     1      -4.637   3.112 -22.245  0.00  0.00    +0.162 A 
ATOM      7  C   UNL     1      -4.539   2.660 -21.065  0.00  0.00    +0.050 A 
ATOM      8  C   UNL     1      -3.431   2.277 -20.621  0.00  0.00    +0.008 A 
ATOM      9  C   UNL     1      -2.409   2.342 -21.349  0.00  0.00    -0.034 A 
ATOM     10  C   UNL     1      -1.281   1.954 -20.901  0.00  0.00    +0.094 C 
ATOM     11  C   UNL     1      -0.263   2.019 -21.627  0.00  0.00    +0.097 C 
ATOM     12  C   UNL     1      -0.358   2.471 -22.807  0.00  0.00    -0.003 C 
ATOM     13  N   UNL     1       0.956   2.051 -22.370  0.00  0.00    +0.239 N 
ATOM     14  H   UNL     1       1.842   1.731 -21.977  0.00  0.00    +0.204 HD
ATOM     15  C   UNL     1       2.036   1.655 -21.875  0.00  0.00    +0.191 C 
ATOM     16  C   UNL     1       0.885   2.549 -23.689  0.00  0.00    +0.133 C 
ATOM     17  C   UNL     1      -0.377   2.973 -24.163  0.00  0.00    +0.071 C 
ATOM     18  C   UNL     1      -2.487   2.790 -22.526  0.00  0.00    +0.016 A 
ATOM     19  C   UNL     1      -1.923   3.783 -25.537  0.00  0.00    +0.062 C 
ATOM     20  C   UNL     1      -1.466   2.853 -23.250  0.00  0.00    +0.074 C 
ATOM     21  C   UNL     1       0.674   2.536 -23.541  0.00  0.00    +0.051 C 
ENDROOT
BRANCH   1  23
ATOM     22  C   UNL     1       2.745   2.906 -24.923  0.00  0.00    +0.277 C 
ATOM     23  O   UNL     1       1.608   3.045 -25.431  0.00  0.00    -0.495 OA
ENDBRANCH   1  23
BRANCH   6  24
ATOM     24  O   UNL     1      -5.747   3.493 -22.685  0.00  0.00    -0.491 OA
ATOM     25  C   UNL     1      -6.806   3.100 -22.143  0.00  0.00    +0.277 C 
ENDBRANCH   6  24
TORSDOF 2
ENDMDL
MODEL 9
REMARK VINA RESULT:    -8.612      2.540      6.602
REMARK INTER + INTRA:          -8.686
REMARK INTER:                  -9.619
REMARK INTRA:                   0.932
REMARK UNBOUND:                 0.932
REMARK  Name = COC1=C[C@@]2(C)Oc3c(OC)ccc4c3[C@@]23CCN(C)[C@H](C4)C3=C1             ZINC000096316409
REMARK  6 active torsions:
REMARK  status: ('A' for Active; 'I' for Inactive)
REMARK    1  A    between atoms: C_1  and  O_2
REMARK    2  A    between atoms: O_2  and  C_3
REMARK    3  A    between atoms: C_5  and  C_6
REMARK    4  A    between atoms: C_9  and  O_10
REMARK    5  A    between atoms: O_10  and  C_11
REMARK    6  A    between atoms: N_19  and  C_20
REMARK                            x       y       z     vdW  Elec       q    Type
REMARK                         _______ _______ _______ _____ _____    ______ ____
ROOT
ATOM      1  C   UNL     1      -0.625   3.296 -23.914  0.00  0.00    +0.120 C 
ATOM      2  C   UNL     1       0.359   3.918 -24.413  0.00  0.00    +0.066 C 
ATOM      3  C   UNL     1       1.508   3.741 -23.947  0.00  0.00    +0.143 C 
ATOM      4  O   UNL     1       2.976   4.095 -24.025  0.00  0.00    -0.477 OA
ATOM      5  C   UNL     1       3.820   3.382 -23.006  0.00  0.00    +0.168 A 
ATOM      6  C   UNL     1       4.984   3.203 -22.533  0.00  0.00    +0.162 A 
ATOM      7  C   UNL     1       5.148   2.402 -21.566  0.00  0.00    +0.050 A 
ATOM      8  C   UNL     1       4.172   1.788 -21.074  0.00  0.00    +0.008 A 
ATOM      9  C   UNL     1       3.021   1.967 -21.543  0.00  0.00    -0.034 A 
ATOM     10  C   UNL     1       2.025   1.346 -21.047  0.00  0.00    +0.094 C 
ATOM     11  C   UNL     1       0.878   1.525 -21.515  0.00  0.00    +0.097 C 
ATOM     12  C   UNL     1       0.710   2.325 -22.483  0.00  0.00    -0.003 C 
ATOM     13  N   UNL     1      -0.467   1.656 -21.973  0.00  0.00    +0.239 N 
ATOM     14  H   UNL     1      -1.240   1.141 -21.550  0.00  0.00    +0.204 HD
ATOM     15  C   UNL     1      -1.406   1.017 -21.444  0.00  0.00    +0.191 C 
ATOM     16  C   UNL     1      -0.690   2.541 -23.051  0.00  0.00    +0.133 C 
ATOM     17  C   UNL     1       0.430   3.218 -23.585  0.00  0.00    +0.071 C 
ATOM     18  C   UNL     1       2.837   2.761 -22.507  0.00  0.00    +0.016 A 
ATOM     19  C   UNL     1       1.626   4.569 -24.882  0.00  0.00    +0.062 C 
ATOM     20  C   UNL     1       1.687   2.938 -22.973  0.00  0.00    +0.074 C 
ATOM     21  C   UNL     1      -0.452   2.505 -22.956  0.00  0.00    +0.051 C 
ENDROOT
BRANCH   1  23
ATOM     22  C   UNL     1      -2.539   4.319 -23.861  0.00  0.00    +0.277 C 
ATOM     23  O   UNL     1      -1.775   3.471 -24.378  0.00  0.00    -0.495 OA
ENDBRANCH   1  23
BRANCH   6  24
ATOM     24  O   UNL     1       5.963   3.814 -23.021  0.00  0.00    -0.491 OA
ATOM     25  C   UNL     1       6.204   4.993 -22.672  0.00  0.00    +0.277 C 
ENDBRANCH   6  24
TORSDOF 2
ENDMDL
