MODEL 1
REMARK VINA RESULT:    -9.842      0.000      0.000
REMARK INTER + INTRA:         -10.130
REMARK INTER:                 -10.130
REMARK INTRA:                   0.000
REMARK UNBOUND:                 0.000
REMARK  Name = ZINC000004081998
REMARK  5 active torsions:
REMARK  status: ('A' for Active; 'I' for Inactive)
REMARK    1  A    between atoms: C_1  and  C_2
REMARK    2  A    between atoms: C_11  and  C_12
REMARK    3  A    between atoms: C_11  and  O_13
REMARK    4  A    between atoms: C_14  and  C_15
REMARK    5  A    between atoms: C_14  and  C_16
REMARK                            x       y       z     vdW  Elec       q    Type
REMARK                         _______ _______ _______ _____ _____    ______ ____
ROOT
ATOM      1  C   UNL     1      -1.398   3.713 -25.532  0.00  0.00    +0.008 C 
ATOM      2  C   UNL     1      -2.583   3.754 -25.000  0.00  0.00    -0.010 C 
ATOM      3  C   UNL     1      -3.657   4.224 -25.563  0.00  0.00    +0.004 C 
ATOM      4  C   UNL     1      -4.641   4.094 -24.723  0.00  0.00    +0.007 C 
ATOM      5  C   UNL     1      -4.175   3.544 -23.641  0.00  0.00    +0.024 C 
ATOM      6  C   UNL     1      -4.908   3.276 -22.602  0.00  0.00    +0.066 C 
ATOM      7  C   UNL     1      -6.020   3.243 -21.930  0.00  0.00    +0.041 C 
ATOM      8  C   UNL     1      -4.550   2.731 -21.477  0.00  0.00    +0.035 C 
ATOM      9  C   UNL     1      -3.371   2.321 -21.113  0.00  0.00    +0.007 C 
ATOM     10  C   UNL     1      -2.259   2.353 -21.785  0.00  0.00    -0.001 C 
ATOM     11  C   UNL     1      -1.067   2.303 -22.301  0.00  0.00    -0.028 C 
ATOM     12  C   UNL     1      -0.100   2.444 -23.158  0.00  0.00    +0.011 C 
ATOM     13  C   UNL     1      -0.418   1.753 -21.317  0.00  0.00    +0.011 C 
ATOM     14  C   UNL     1      -2.051   2.804 -22.987  0.00  0.00    +0.002 C 
ATOM     15  C   UNL     1      -2.904   3.334 -23.813  0.00  0.00    +0.002 C 
ENDROOT
BRANCH   6  16
ATOM     16  O   UNL     1      -5.760   3.805 -23.428  0.00  0.00    -0.389 OA
ATOM     17  H   UNL     1      -5.829   3.251 -24.221  0.00  0.00    +0.210 HD
ENDBRANCH   6  16
TORSDOF 1
ENDMDL
MODEL 2
REMARK VINA RESULT:    -9.425      1.654      3.599
REMARK INTER + INTRA:          -9.700
REMARK INTER:                  -9.700
REMARK INTRA:                   0.000
REMARK UNBOUND:                 0.000
REMARK  Name = ZINC000004081998
REMARK  5 active torsions:
REMARK  status: ('A' for Active; 'I' for Inactive)
REMARK    1  A    between atoms: C_1  and  C_2
REMARK    2  A    between atoms: C_11  and  C_12
REMARK    3  A    between atoms: C_11  and  O_13
REMARK    4  A    between atoms: C_14  and  C_15
REMARK    5  A    between atoms: C_14  and  C_16
REMARK                            x       y       z     vdW  Elec       q    Type
REMARK                         _______ _______ _______ _____ _____    ______ ____
ROOT
ATOM      1  C   UNL     1      -5.169   3.748 -24.860  0.00  0.00    +0.008 C 
ATOM      2  C   UNL     1      -3.887   3.556 -24.956  0.00  0.00    -0.010 C 
ATOM      3  C   UNL     1      -3.174   3.686 -26.036  0.00  0.00    +0.004 C 
ATOM      4  C   UNL     1      -1.939   3.411 -25.737  0.00  0.00    +0.007 C 
ATOM      5  C   UNL     1      -1.888   3.112 -24.473  0.00  0.00    +0.024 C 
ATOM      6  C   UNL     1      -0.791   2.788 -23.858  0.00  0.00    +0.066 C 
ATOM      7  C   UNL     1       0.487   2.558 -23.784  0.00  0.00    +0.041 C 
ATOM      8  C   UNL     1      -0.626   2.473 -22.607  0.00  0.00    +0.035 C 
ATOM      9  C   UNL     1      -1.517   2.404 -21.664  0.00  0.00    +0.007 C 
ATOM     10  C   UNL     1      -2.795   2.634 -21.738  0.00  0.00    -0.001 C 
ATOM     11  C   UNL     1      -4.076   2.821 -21.622  0.00  0.00    -0.028 C 
ATOM     12  C   UNL     1      -5.304   3.100 -21.946  0.00  0.00    +0.011 C 
ATOM     13  C   UNL     1      -4.230   2.556 -20.359  0.00  0.00    +0.011 C 
ATOM     14  C   UNL     1      -3.495   2.989 -22.773  0.00  0.00    +0.002 C 
ATOM     15  C   UNL     1      -3.092   3.202 -23.991  0.00  0.00    +0.002 C 
ENDROOT
BRANCH   6  16
ATOM     16  O   UNL     1      -0.388   3.001 -25.075  0.00  0.00    -0.389 OA
ATOM     17  H   UNL     1       0.521   3.340 -25.060  0.00  0.00    +0.210 HD
ENDBRANCH   6  16
TORSDOF 1
ENDMDL
MODEL 3
REMARK VINA RESULT:    -9.350      1.509      3.991
REMARK INTER + INTRA:          -9.623
REMARK INTER:                  -9.623
REMARK INTRA:                   0.000
REMARK UNBOUND:                 0.000
REMARK  Name = ZINC000004081998
REMARK  5 active torsions:
REMARK  status: ('A' for Active; 'I' for Inactive)
REMARK    1  A    between atoms: C_1  and  C_2
REMARK    2  A    between atoms: C_11  and  C_12
REMARK    3  A    between atoms: C_11  and  O_13
REMARK    4  A    between atoms: C_14  and  C_15
REMARK    5  A    between atoms: C_14  and  C_16
REMARK                            x       y       z     vdW  Elec       q    Type
REMARK                         _______ _______ _______ _____ _____    ______ ____
ROOT
ATOM      1  C   UNL     1      -1.102   2.457 -21.496  0.00  0.00    +0.008 C 
ATOM      2  C   UNL     1      -1.170   2.710 -22.768  0.00  0.00    -0.010 C 
ATOM      3  C   UNL     1      -0.169   2.718 -23.600  0.00  0.00    +0.004 C 
ATOM      4  C   UNL     1      -0.630   3.013 -24.779  0.00  0.00    +0.007 C 
ATOM      5  C   UNL     1      -1.914   3.187 -24.678  0.00  0.00    +0.024 C 
ATOM      6  C   UNL     1      -2.676   3.495 -25.684  0.00  0.00    +0.066 C 
ATOM      7  C   UNL     1      -2.915   3.769 -26.932  0.00  0.00    +0.041 C 
ATOM      8  C   UNL     1      -3.962   3.692 -25.696  0.00  0.00    +0.035 C 
ATOM      9  C   UNL     1      -4.801   3.629 -24.705  0.00  0.00    +0.007 C 
ATOM     10  C   UNL     1      -4.562   3.354 -23.457  0.00  0.00    -0.001 C 
ATOM     11  C   UNL     1      -4.515   3.104 -22.183  0.00  0.00    -0.028 C 
ATOM     12  C   UNL     1      -4.031   2.807 -21.013  0.00  0.00    +0.011 C 
ATOM     13  C   UNL     1      -5.772   3.236 -21.879  0.00  0.00    +0.011 C 
ATOM     14  C   UNL     1      -3.426   3.075 -22.892  0.00  0.00    +0.002 C 
ATOM     15  C   UNL     1      -2.247   3.000 -23.435  0.00  0.00    +0.002 C 
ENDROOT
BRANCH   6  16
ATOM     16  O   UNL     1      -1.498   3.421 -26.226  0.00  0.00    -0.389 OA
ATOM     17  H   UNL     1      -1.512   3.859 -27.091  0.00  0.00    +0.210 HD
ENDBRANCH   6  16
TORSDOF 1
ENDMDL
MODEL 4
REMARK VINA RESULT:    -9.245      0.872      3.097
REMARK INTER + INTRA:          -9.515
REMARK INTER:                  -9.515
REMARK INTRA:                   0.000
REMARK UNBOUND:                 0.000
REMARK  Name = ZINC000004081998
REMARK  5 active torsions:
REMARK  status: ('A' for Active; 'I' for Inactive)
REMARK    1  A    between atoms: C_1  and  C_2
REMARK    2  A    between atoms: C_11  and  C_12
REMARK    3  A    between atoms: C_11  and  O_13
REMARK    4  A    between atoms: C_14  and  C_15
REMARK    5  A    between atoms: C_14  and  C_16
REMARK                            x       y       z     vdW  Elec       q    Type
REMARK                         _______ _______ _______ _____ _____    ______ ____
ROOT
ATOM      1  C   UNL     1      -3.974   2.619 -20.635  0.00  0.00    +0.008 C 
ATOM      2  C   UNL     1      -4.252   3.022 -21.838  0.00  0.00    -0.010 C 
ATOM      3  C   UNL     1      -5.422   3.392 -22.269  0.00  0.00    +0.004 C 
ATOM      4  C   UNL     1      -5.303   3.725 -23.520  0.00  0.00    +0.007 C 
ATOM      5  C   UNL     1      -4.060   3.560 -23.863  0.00  0.00    +0.024 C 
ATOM      6  C   UNL     1      -3.608   3.806 -25.056  0.00  0.00    +0.066 C 
ATOM      7  C   UNL     1      -3.717   4.183 -26.295  0.00  0.00    +0.041 C 
ATOM      8  C   UNL     1      -2.395   3.678 -25.506  0.00  0.00    +0.035 C 
ATOM      9  C   UNL     1      -1.334   3.272 -24.872  0.00  0.00    +0.007 C 
ATOM     10  C   UNL     1      -1.225   2.895 -23.633  0.00  0.00    -0.001 C 
ATOM     11  C   UNL     1      -0.927   2.489 -22.435  0.00  0.00    -0.028 C 
ATOM     12  C   UNL     1      -1.072   2.162 -21.185  0.00  0.00    +0.011 C 
ATOM     13  C   UNL     1       0.344   2.262 -22.582  0.00  0.00    +0.011 C 
ATOM     14  C   UNL     1      -2.149   2.830 -22.722  0.00  0.00    +0.002 C 
ATOM     15  C   UNL     1      -3.411   3.125 -22.824  0.00  0.00    +0.002 C 
ENDROOT
BRANCH   6  16
ATOM     16  O   UNL     1      -4.869   4.101 -25.158  0.00  0.00    -0.389 OA
ATOM     17  H   UNL     1      -5.233   3.697 -25.962  0.00  0.00    +0.210 HD
ENDBRANCH   6  16
TORSDOF 1
ENDMDL
MODEL 5
REMARK VINA RESULT:    -9.162      1.569      4.449
REMARK INTER + INTRA:          -9.429
REMARK INTER:                  -9.429
REMARK INTRA:                   0.000
REMARK UNBOUND:                 0.000
REMARK  Name = ZINC000004081998
REMARK  5 active torsions:
REMARK  status: ('A' for Active; 'I' for Inactive)
REMARK    1  A    between atoms: C_1  and  C_2
REMARK    2  A    between atoms: C_11  and  C_12
REMARK    3  A    between atoms: C_11  and  O_13
REMARK    4  A    between atoms: C_14  and  C_15
REMARK    5  A    between atoms: C_14  and  C_16
REMARK                            x       y       z     vdW  Elec       q    Type
REMARK                         _______ _______ _______ _____ _____    ______ ____
ROOT
ATOM      1  C   UNL     1      -5.562   3.372 -22.493  0.00  0.00    +0.008 C 
ATOM      2  C   UNL     1      -4.358   3.080 -22.101  0.00  0.00    -0.010 C 
ATOM      3  C   UNL     1      -4.000   2.793 -20.884  0.00  0.00    +0.004 C 
ATOM      4  C   UNL     1      -2.721   2.560 -20.886  0.00  0.00    +0.007 C 
ATOM      5  C   UNL     1      -2.289   2.703 -22.103  0.00  0.00    +0.024 C 
ATOM      6  C   UNL     1      -1.046   2.538 -22.445  0.00  0.00    +0.066 C 
ATOM      7  C   UNL     1       0.205   2.268 -22.218  0.00  0.00    +0.041 C 
ATOM      8  C   UNL     1      -0.507   2.654 -23.623  0.00  0.00    +0.035 C 
ATOM      9  C   UNL     1      -1.079   2.964 -24.749  0.00  0.00    +0.007 C 
ATOM     10  C   UNL     1      -2.330   3.233 -24.975  0.00  0.00    -0.001 C 
ATOM     11  C   UNL     1      -3.527   3.527 -25.387  0.00  0.00    -0.028 C 
ATOM     12  C   UNL     1      -4.807   3.756 -25.359  0.00  0.00    +0.011 C 
ATOM     13  C   UNL     1      -3.292   3.715 -26.652  0.00  0.00    +0.011 C 
ATOM     14  C   UNL     1      -3.319   3.260 -24.132  0.00  0.00    +0.002 C 
ATOM     15  C   UNL     1      -3.301   3.024 -22.853  0.00  0.00    +0.002 C 
ENDROOT
BRANCH   6  16
ATOM     16  O   UNL     1      -1.028   2.302 -21.168  0.00  0.00    -0.389 OA
ATOM     17  H   UNL     1      -0.244   1.775 -20.946  0.00  0.00    +0.210 HD
ENDBRANCH   6  16
TORSDOF 1
ENDMDL
MODEL 6
REMARK VINA RESULT:    -8.789      1.013      3.325
REMARK INTER + INTRA:          -9.046
REMARK INTER:                  -9.046
REMARK INTRA:                   0.000
REMARK UNBOUND:                 0.000
REMARK  Name = ZINC000004081998
REMARK  5 active torsions:
REMARK  status: ('A' for Active; 'I' for Inactive)
REMARK    1  A    between atoms: C_1  and  C_2
REMARK    2  A    between atoms: C_11  and  C_12
REMARK    3  A    between atoms: C_11  and  O_13
REMARK    4  A    between atoms: C_14  and  C_15
REMARK    5  A    between atoms: C_14  and  C_16
REMARK                            x       y       z     vdW  Elec       q    Type
REMARK                         _______ _______ _______ _____ _____    ______ ____
ROOT
ATOM      1  C   UNL     1      -0.307   2.769 -23.141  0.00  0.00    +0.008 C 
ATOM      2  C   UNL     1      -1.465   2.801 -22.553  0.00  0.00    -0.010 C 
ATOM      3  C   UNL     1      -1.689   2.569 -21.293  0.00  0.00    +0.004 C 
ATOM      4  C   UNL     1      -2.966   2.694 -21.082  0.00  0.00    +0.007 C 
ATOM      5  C   UNL     1      -3.531   3.003 -22.211  0.00  0.00    +0.024 C 
ATOM      6  C   UNL     1      -4.809   3.199 -22.341  0.00  0.00    +0.066 C 
ATOM      7  C   UNL     1      -6.033   3.272 -21.910  0.00  0.00    +0.041 C 
ATOM      8  C   UNL     1      -5.476   3.509 -23.414  0.00  0.00    +0.035 C 
ATOM      9  C   UNL     1      -5.029   3.700 -24.620  0.00  0.00    +0.007 C 
ATOM     10  C   UNL     1      -3.805   3.628 -25.051  0.00  0.00    -0.001 C 
ATOM     11  C   UNL     1      -2.655   3.601 -25.657  0.00  0.00    -0.028 C 
ATOM     12  C   UNL     1      -1.375   3.470 -25.842  0.00  0.00    +0.011 C 
ATOM     13  C   UNL     1      -3.029   3.901 -26.865  0.00  0.00    +0.011 C 
ATOM     14  C   UNL     1      -2.726   3.347 -24.384  0.00  0.00    +0.002 C 
ATOM     15  C   UNL     1      -2.603   3.069 -23.120  0.00  0.00    +0.002 C 
ENDROOT
BRANCH   6  16
ATOM     16  O   UNL     1      -4.687   2.921 -21.078  0.00  0.00    -0.389 OA
ATOM     17  H   UNL     1      -3.825   3.233 -20.760  0.00  0.00    +0.210 HD
ENDBRANCH   6  16
TORSDOF 1
ENDMDL
MODEL 7
REMARK VINA RESULT:    -8.759      0.851      3.151
REMARK INTER + INTRA:          -9.015
REMARK INTER:                  -9.015
REMARK INTRA:                   0.000
REMARK UNBOUND:                 0.000
REMARK  Name = ZINC000004081998
REMARK  5 active torsions:
REMARK  status: ('A' for Active; 'I' for Inactive)
REMARK    1  A    between atoms: C_1  and  C_2
REMARK    2  A    between atoms: C_11  and  C_12
REMARK    3  A    between atoms: C_11  and  O_13
REMARK    4  A    between atoms: C_14  and  C_15
REMARK    5  A    between atoms: C_14  and  C_16
REMARK                            x       y       z     vdW  Elec       q    Type
REMARK                         _______ _______ _______ _____ _____    ______ ____
ROOT
ATOM      1  C   UNL     1      -1.118   2.231 -21.085  0.00  0.00    +0.008 C 
ATOM      2  C   UNL     1      -2.281   2.580 -21.547  0.00  0.00    -0.010 C 
ATOM      3  C   UNL     1      -3.407   2.527 -20.898  0.00  0.00    +0.004 C 
ATOM      4  C   UNL     1      -4.346   2.957 -21.688  0.00  0.00    +0.007 C 
ATOM      5  C   UNL     1      -3.802   3.275 -22.824  0.00  0.00    +0.024 C 
ATOM      6  C   UNL     1      -4.473   3.741 -23.834  0.00  0.00    +0.066 C 
ATOM      7  C   UNL     1      -5.553   4.129 -24.444  0.00  0.00    +0.041 C 
ATOM      8  C   UNL     1      -4.034   4.089 -25.008  0.00  0.00    +0.035 C 
ATOM      9  C   UNL     1      -2.815   4.057 -25.460  0.00  0.00    +0.007 C 
ATOM     10  C   UNL     1      -1.735   3.669 -24.850  0.00  0.00    -0.001 C 
ATOM     11  C   UNL     1      -0.562   3.325 -24.407  0.00  0.00    -0.028 C 
ATOM     12  C   UNL     1       0.359   2.892 -23.598  0.00  0.00    +0.011 C 
ATOM     13  C   UNL     1       0.161   3.584 -25.455  0.00  0.00    +0.011 C 
ATOM     14  C   UNL     1      -1.606   3.217 -23.638  0.00  0.00    +0.002 C 
ATOM     15  C   UNL     1      -2.525   3.042 -22.736  0.00  0.00    +0.002 C 
ENDROOT
BRANCH   6  16
ATOM     16  O   UNL     1      -5.392   3.566 -22.933  0.00  0.00    -0.389 OA
ATOM     17  H   UNL     1      -6.194   3.216 -23.352  0.00  0.00    +0.210 HD
ENDBRANCH   6  16
TORSDOF 1
ENDMDL
MODEL 8
REMARK VINA RESULT:    -8.723      1.804      4.860
REMARK INTER + INTRA:          -8.978
REMARK INTER:                  -8.978
REMARK INTRA:                   0.000
REMARK UNBOUND:                 0.000
REMARK  Name = ZINC000004081998
REMARK  5 active torsions:
REMARK  status: ('A' for Active; 'I' for Inactive)
REMARK    1  A    between atoms: C_1  and  C_2
REMARK    2  A    between atoms: C_11  and  C_12
REMARK    3  A    between atoms: C_11  and  O_13
REMARK    4  A    between atoms: C_14  and  C_15
REMARK    5  A    between atoms: C_14  and  C_16
REMARK                            x       y       z     vdW  Elec       q    Type
REMARK                         _______ _______ _______ _____ _____    ______ ____
ROOT
ATOM      1  C   UNL     1      -3.487   2.651 -20.740  0.00  0.00    +0.008 C 
ATOM      2  C   UNL     1      -2.390   2.624 -21.436  0.00  0.00    -0.010 C 
ATOM      3  C   UNL     1      -1.219   2.259 -21.003  0.00  0.00    +0.004 C 
ATOM      4  C   UNL     1      -0.376   2.367 -21.987  0.00  0.00    +0.007 C 
ATOM      5  C   UNL     1      -1.024   2.798 -23.027  0.00  0.00    +0.024 C 
ATOM      6  C   UNL     1      -0.466   3.014 -24.181  0.00  0.00    +0.066 C 
ATOM      7  C   UNL     1       0.535   3.045 -25.010  0.00  0.00    +0.041 C 
ATOM      8  C   UNL     1      -1.014   3.441 -25.279  0.00  0.00    +0.035 C 
ATOM      9  C   UNL     1      -2.256   3.759 -25.495  0.00  0.00    +0.007 C 
ATOM     10  C   UNL     1      -3.257   3.728 -24.666  0.00  0.00    -0.001 C 
ATOM     11  C   UNL     1      -4.364   3.761 -23.986  0.00  0.00    -0.028 C 
ATOM     12  C   UNL     1      -5.188   3.645 -22.987  0.00  0.00    +0.011 C 
ATOM     13  C   UNL     1      -5.179   4.191 -24.903  0.00  0.00    +0.011 C 
ATOM     14  C   UNL     1      -3.262   3.371 -23.416  0.00  0.00    +0.002 C 
ATOM     15  C   UNL     1      -2.269   2.957 -22.687  0.00  0.00    +0.002 C 
ENDROOT
BRANCH   6  16
ATOM     16  O   UNL     1       0.527   2.600 -23.451  0.00  0.00    -0.389 OA
ATOM     17  H   UNL     1       0.523   3.071 -22.603  0.00  0.00    +0.210 HD
ENDBRANCH   6  16
TORSDOF 1
ENDMDL
MODEL 9
REMARK VINA RESULT:    -8.346      1.495      3.547
REMARK INTER + INTRA:          -8.590
REMARK INTER:                  -8.590
REMARK INTRA:                   0.000
REMARK UNBOUND:                 0.000
REMARK  Name = ZINC000004081998
REMARK  5 active torsions:
REMARK  status: ('A' for Active; 'I' for Inactive)
REMARK    1  A    between atoms: C_1  and  C_2
REMARK    2  A    between atoms: C_11  and  C_12
REMARK    3  A    between atoms: C_11  and  O_13
REMARK    4  A    between atoms: C_14  and  C_15
REMARK    5  A    between atoms: C_14  and  C_16
REMARK                            x       y       z     vdW  Elec       q    Type
REMARK                         _______ _______ _______ _____ _____    ______ ____
ROOT
ATOM      1  C   UNL     1      -0.594   3.360 -25.246  0.00  0.00    +0.008 C 
ATOM      2  C   UNL     1      -0.926   3.308 -23.991  0.00  0.00    -0.010 C 
ATOM      3  C   UNL     1      -0.104   3.202 -22.988  0.00  0.00    +0.004 C 
ATOM      4  C   UNL     1      -0.807   3.180 -21.894  0.00  0.00    +0.007 C 
ATOM      5  C   UNL     1      -2.062   3.272 -22.221  0.00  0.00    +0.024 C 
ATOM      6  C   UNL     1      -3.029   3.279 -21.353  0.00  0.00    +0.066 C 
ATOM      7  C   UNL     1      -3.526   3.239 -20.152  0.00  0.00    +0.041 C 
ATOM      8  C   UNL     1      -4.309   3.366 -21.566  0.00  0.00    +0.035 C 
ATOM      9  C   UNL     1      -4.937   3.468 -22.700  0.00  0.00    +0.007 C 
ATOM     10  C   UNL     1      -4.440   3.508 -23.901  0.00  0.00    -0.001 C 
ATOM     11  C   UNL     1      -4.128   3.562 -25.161  0.00  0.00    -0.028 C 
ATOM     12  C   UNL     1      -3.403   3.582 -26.241  0.00  0.00    +0.011 C 
ATOM     13  C   UNL     1      -5.314   3.661 -25.684  0.00  0.00    +0.011 C 
ATOM     14  C   UNL     1      -3.193   3.456 -24.264  0.00  0.00    +0.002 C 
ATOM     15  C   UNL     1      -2.135   3.351 -23.517  0.00  0.00    +0.002 C 
ENDROOT
BRANCH   6  16
ATOM     16  O   UNL     1      -1.971   3.174 -20.606  0.00  0.00    -0.389 OA
ATOM     17  H   UNL     1      -2.061   2.404 -20.023  0.00  0.00    +0.210 HD
ENDBRANCH   6  16
TORSDOF 1
ENDMDL
