MODEL 1
REMARK VINA RESULT:   -10.551      0.000      0.000
REMARK INTER + INTRA:         -11.261
REMARK INTER:                 -11.134
REMARK INTRA:                  -0.127
REMARK UNBOUND:                -0.093
REMARK  Name = ZINC000027729031
REMARK  3 active torsions:
REMARK  status: ('A' for Active; 'I' for Inactive)
REMARK    1  A    between atoms: C_1  and  O_2
REMARK    2  A    between atoms: O_2  and  C_3
REMARK    3  A    between atoms: N_12  and  C_13
REMARK                            x       y       z     vdW  Elec       q    Type
REMARK                         _______ _______ _______ _____ _____    ______ ____
ROOT
ATOM      1  C   UNL     1      -0.356   2.230 -22.942  0.00  0.00    +0.120 A 
ATOM      2  C   UNL     1      -0.583   2.284 -21.698  0.00  0.00    +0.046 A 
ATOM      3  C   UNL     1      -1.724   2.670 -21.303  0.00  0.00    +0.008 A 
ATOM      4  C   UNL     1      -2.740   3.039 -22.296  0.00  0.00    -0.038 A 
ATOM      5  C   UNL     1      -2.479   2.969 -23.319  0.00  0.00    -0.033 A 
ATOM      6  C   UNL     1      -2.978   3.156 -24.108  0.00  0.00    +0.015 C 
ATOM      7  C   UNL     1      -1.944   2.775 -22.831  0.00  0.00    +0.063 C 
ATOM      8  C   UNL     1      -2.423   2.914 -21.449  0.00  0.00    +0.132 C 
ATOM      9  N   UNL     1      -3.520   3.288 -21.258  0.00  0.00    +0.236 N 
ATOM     10  H   UNL     1      -4.468   3.618 -21.445  0.00  0.00    +0.203 HD
ATOM     11  C   UNL     1      -4.509   3.652 -22.445  0.00  0.00    +0.072 C 
ATOM     12  C   UNL     1      -3.371   3.210 -19.874  0.00  0.00    +0.190 C 
ATOM     13  C   UNL     1      -2.671   3.074 -25.323  0.00  0.00    +0.086 C 
ATOM     14  C   UNL     1      -3.545   3.392 -26.225  0.00  0.00    +0.134 C 
ATOM     15  O   UNL     1      -3.235   3.309 -27.470  0.00  0.00    -0.297 OA
ATOM     16  C   UNL     1      -4.750   3.801 -25.894  0.00  0.00    +0.075 C 
ATOM     17  C   UNL     1      -5.102   3.899 -24.652  0.00  0.00    +0.017 C 
ATOM     18  C   UNL     1      -4.286   3.600 -23.743  0.00  0.00    +0.049 C 
ATOM     19  C   UNL     1      -3.879   3.424 -21.894  0.00  0.00    +0.090 C 
ATOM     20  C   UNL     1      -1.293   2.569 -23.764  0.00  0.00    +0.050 A 
ENDROOT
BRANCH   1  22
ATOM     21  C   UNL     1       1.511   2.493 -24.503  0.00  0.00    +0.277 C 
ATOM     22  O   UNL     1       0.766   1.858 -23.708  0.00  0.00    -0.495 OA
ENDBRANCH   1  22
TORSDOF 1
ENDMDL
MODEL 2
REMARK VINA RESULT:   -10.369      2.086      3.819
REMARK INTER + INTRA:         -11.068
REMARK INTER:                 -10.972
REMARK INTRA:                  -0.096
REMARK UNBOUND:                -0.093
REMARK  Name = ZINC000027729031
REMARK  3 active torsions:
REMARK  status: ('A' for Active; 'I' for Inactive)
REMARK    1  A    between atoms: C_1  and  O_2
REMARK    2  A    between atoms: O_2  and  C_3
REMARK    3  A    between atoms: N_12  and  C_13
REMARK                            x       y       z     vdW  Elec       q    Type
REMARK                         _______ _______ _______ _____ _____    ______ ____
ROOT
ATOM      1  C   UNL     1       0.134   3.859 -23.997  0.00  0.00    +0.120 A 
ATOM      2  C   UNL     1      -0.077   3.791 -25.243  0.00  0.00    +0.046 A 
ATOM      3  C   UNL     1      -1.271   3.666 -25.653  0.00  0.00    +0.008 A 
ATOM      4  C   UNL     1      -2.362   3.605 -24.674  0.00  0.00    -0.038 A 
ATOM      5  C   UNL     1      -2.110   3.668 -23.648  0.00  0.00    -0.033 A 
ATOM      6  C   UNL     1      -2.653   3.650 -22.866  0.00  0.00    +0.015 C 
ATOM      7  C   UNL     1      -1.536   3.702 -24.128  0.00  0.00    +0.063 C 
ATOM      8  C   UNL     1      -2.011   3.604 -25.516  0.00  0.00    +0.132 C 
ATOM      9  N   UNL     1      -3.161   3.491 -25.721  0.00  0.00    +0.236 N 
ATOM     10  H   UNL     1      -4.164   3.407 -25.547  0.00  0.00    +0.203 HD
ATOM     11  C   UNL     1      -4.229   3.440 -24.547  0.00  0.00    +0.072 C 
ATOM     12  C   UNL     1      -2.974   3.454 -27.102  0.00  0.00    +0.190 C 
ATOM     13  C   UNL     1      -2.356   3.725 -21.648  0.00  0.00    +0.086 C 
ATOM     14  C   UNL     1      -3.296   3.674 -20.758  0.00  0.00    +0.134 C 
ATOM     15  O   UNL     1      -2.997   3.750 -19.510  0.00  0.00    -0.297 OA
ATOM     16  C   UNL     1      -4.558   3.546 -21.104  0.00  0.00    +0.075 C 
ATOM     17  C   UNL     1      -4.902   3.466 -22.350  0.00  0.00    +0.017 C 
ATOM     18  C   UNL     1      -4.023   3.510 -23.248  0.00  0.00    +0.049 C 
ATOM     19  C   UNL     1      -3.554   3.481 -25.090  0.00  0.00    +0.090 C 
ATOM     20  C   UNL     1      -0.871   3.799 -23.188  0.00  0.00    +0.050 A 
ENDROOT
BRANCH   1  22
ATOM     21  C   UNL     1       2.285   4.780 -23.278  0.00  0.00    +0.277 C 
ATOM     22  O   UNL     1       1.299   3.995 -23.218  0.00  0.00    -0.495 OA
ENDBRANCH   1  22
TORSDOF 1
ENDMDL
MODEL 3
REMARK VINA RESULT:   -10.028      0.949      3.873
REMARK INTER + INTRA:         -10.708
REMARK INTER:                 -10.586
REMARK INTRA:                  -0.122
REMARK UNBOUND:                -0.093
REMARK  Name = ZINC000027729031
REMARK  3 active torsions:
REMARK  status: ('A' for Active; 'I' for Inactive)
REMARK    1  A    between atoms: C_1  and  O_2
REMARK    2  A    between atoms: O_2  and  C_3
REMARK    3  A    between atoms: N_12  and  C_13
REMARK                            x       y       z     vdW  Elec       q    Type
REMARK                         _______ _______ _______ _____ _____    ______ ____
ROOT
ATOM      1  C   UNL     1      -4.047   3.986 -25.220  0.00  0.00    +0.120 A 
ATOM      2  C   UNL     1      -5.148   3.982 -24.595  0.00  0.00    +0.046 A 
ATOM      3  C   UNL     1      -5.167   3.574 -23.395  0.00  0.00    +0.008 A 
ATOM      4  C   UNL     1      -3.917   3.122 -22.772  0.00  0.00    -0.038 A 
ATOM      5  C   UNL     1      -3.034   3.153 -23.354  0.00  0.00    -0.033 A 
ATOM      6  C   UNL     1      -2.137   2.911 -23.148  0.00  0.00    +0.015 C 
ATOM      7  C   UNL     1      -3.659   3.389 -23.695  0.00  0.00    +0.063 C 
ATOM      8  C   UNL     1      -4.812   3.298 -22.788  0.00  0.00    +0.132 C 
ATOM      9  N   UNL     1      -4.652   2.894 -21.697  0.00  0.00    +0.236 N 
ATOM     10  H   UNL     1      -4.183   2.521 -20.871  0.00  0.00    +0.203 HD
ATOM     11  C   UNL     1      -3.228   2.439 -21.163  0.00  0.00    +0.072 C 
ATOM     12  C   UNL     1      -6.002   3.042 -21.378  0.00  0.00    +0.190 C 
ATOM     13  C   UNL     1      -1.088   2.948 -23.838  0.00  0.00    +0.086 C 
ATOM     14  C   UNL     1       0.032   2.556 -23.318  0.00  0.00    +0.134 C 
ATOM     15  O   UNL     1       1.108   2.592 -24.020  0.00  0.00    -0.297 OA
ATOM     16  C   UNL     1       0.094   2.120 -22.079  0.00  0.00    +0.075 C 
ATOM     17  C   UNL     1      -0.967   2.068 -21.338  0.00  0.00    +0.017 C 
ATOM     18  C   UNL     1      -2.076   2.438 -21.801  0.00  0.00    +0.049 C 
ATOM     19  C   UNL     1      -3.943   2.715 -21.570  0.00  0.00    +0.090 C 
ATOM     20  C   UNL     1      -2.983   3.575 -24.613  0.00  0.00    +0.050 A 
ENDROOT
BRANCH   1  22
ATOM     21  C   UNL     1      -3.279   3.706 -27.527  0.00  0.00    +0.277 C 
ATOM     22  O   UNL     1      -3.674   4.362 -26.524  0.00  0.00    -0.495 OA
ENDBRANCH   1  22
TORSDOF 1
ENDMDL
MODEL 4
REMARK VINA RESULT:    -9.819      1.809      3.805
REMARK INTER + INTRA:         -10.486
REMARK INTER:                 -10.336
REMARK INTRA:                  -0.151
REMARK UNBOUND:                -0.093
REMARK  Name = ZINC000027729031
REMARK  3 active torsions:
REMARK  status: ('A' for Active; 'I' for Inactive)
REMARK    1  A    between atoms: C_1  and  O_2
REMARK    2  A    between atoms: O_2  and  C_3
REMARK    3  A    between atoms: N_12  and  C_13
REMARK                            x       y       z     vdW  Elec       q    Type
REMARK                         _______ _______ _______ _____ _____    ______ ____
ROOT
ATOM      1  C   UNL     1      -1.719   3.455 -25.617  0.00  0.00    +0.120 A 
ATOM      2  C   UNL     1      -0.478   3.261 -25.459  0.00  0.00    +0.046 A 
ATOM      3  C   UNL     1      -0.050   2.968 -24.302  0.00  0.00    +0.008 A 
ATOM      4  C   UNL     1      -1.003   2.863 -23.190  0.00  0.00    -0.038 A 
ATOM      5  C   UNL     1      -2.026   3.039 -23.397  0.00  0.00    -0.033 A 
ATOM      6  C   UNL     1      -2.792   3.023 -22.833  0.00  0.00    +0.015 C 
ATOM      7  C   UNL     1      -1.559   3.098 -23.981  0.00  0.00    +0.063 C 
ATOM      8  C   UNL     1      -0.173   2.833 -23.569  0.00  0.00    +0.132 C 
ATOM      9  N   UNL     1       0.051   2.573 -22.446  0.00  0.00    +0.236 N 
ATOM     10  H   UNL     1      -0.104   2.390 -21.454  0.00  0.00    +0.203 HD
ATOM     11  C   UNL     1      -1.095   2.497 -21.350  0.00  0.00    +0.072 C 
ATOM     12  C   UNL     1       1.419   2.444 -22.684  0.00  0.00    +0.190 C 
ATOM     13  C   UNL     1      -4.006   3.231 -23.077  0.00  0.00    +0.086 C 
ATOM     14  C   UNL     1      -4.874   3.147 -22.118  0.00  0.00    +0.134 C 
ATOM     15  O   UNL     1      -6.117   3.359 -22.362  0.00  0.00    -0.297 OA
ATOM     16  C   UNL     1      -4.507   2.847 -20.891  0.00  0.00    +0.075 C 
ATOM     17  C   UNL     1      -3.265   2.626 -20.602  0.00  0.00    +0.017 C 
ATOM     18  C   UNL     1      -2.389   2.697 -21.501  0.00  0.00    +0.049 C 
ATOM     19  C   UNL     1      -0.568   2.569 -22.035  0.00  0.00    +0.090 C 
ATOM     20  C   UNL     1      -2.504   3.348 -24.598  0.00  0.00    +0.050 A 
ENDROOT
BRANCH   1  22
ATOM     21  C   UNL     1      -3.661   3.424 -27.107  0.00  0.00    +0.277 C 
ATOM     22  O   UNL     1      -2.513   3.787 -26.732  0.00  0.00    -0.495 OA
ENDBRANCH   1  22
TORSDOF 1
ENDMDL
MODEL 5
REMARK VINA RESULT:    -9.316      2.291      3.770
REMARK INTER + INTRA:          -9.954
REMARK INTER:                  -9.859
REMARK INTRA:                  -0.095
REMARK UNBOUND:                -0.093
REMARK  Name = ZINC000027729031
REMARK  3 active torsions:
REMARK  status: ('A' for Active; 'I' for Inactive)
REMARK    1  A    between atoms: C_1  and  O_2
REMARK    2  A    between atoms: O_2  and  C_3
REMARK    3  A    between atoms: N_12  and  C_13
REMARK                            x       y       z     vdW  Elec       q    Type
REMARK                         _______ _______ _______ _____ _____    ______ ____
ROOT
ATOM      1  C   UNL     1       0.812   1.884 -21.847  0.00  0.00    +0.120 A 
ATOM      2  C   UNL     1       1.507   2.259 -22.836  0.00  0.00    +0.046 A 
ATOM      3  C   UNL     1       0.932   2.863 -23.792  0.00  0.00    +0.008 A 
ATOM      4  C   UNL     1      -0.514   3.106 -23.719  0.00  0.00    -0.038 A 
ATOM      5  C   UNL     1      -1.031   2.764 -22.861  0.00  0.00    -0.033 A 
ATOM      6  C   UNL     1      -1.949   2.817 -22.620  0.00  0.00    +0.015 C 
ATOM      7  C   UNL     1      -0.293   2.628 -22.875  0.00  0.00    +0.063 C 
ATOM      8  C   UNL     1       0.310   3.148 -24.110  0.00  0.00    +0.132 C 
ATOM      9  N   UNL     1      -0.374   3.686 -24.899  0.00  0.00    +0.236 N 
ATOM     10  H   UNL     1      -1.208   4.075 -25.339  0.00  0.00    +0.203 HD
ATOM     11  C   UNL     1      -1.934   3.875 -24.678  0.00  0.00    +0.072 C 
ATOM     12  C   UNL     1       0.699   3.922 -25.759  0.00  0.00    +0.190 C 
ATOM     13  C   UNL     1      -2.565   2.412 -21.602  0.00  0.00    +0.086 C 
ATOM     14  C   UNL     1      -3.842   2.610 -21.508  0.00  0.00    +0.134 C 
ATOM     15  O   UNL     1      -4.476   2.197 -20.469  0.00  0.00    -0.297 OA
ATOM     16  C   UNL     1      -4.509   3.229 -22.457  0.00  0.00    +0.075 C 
ATOM     17  C   UNL     1      -3.908   3.660 -23.521  0.00  0.00    +0.017 C 
ATOM     18  C   UNL     1      -2.670   3.490 -23.655  0.00  0.00    +0.049 C 
ATOM     19  C   UNL     1      -1.082   3.710 -24.679  0.00  0.00    +0.090 C 
ATOM     20  C   UNL     1      -0.456   2.129 -21.846  0.00  0.00    +0.050 A 
ENDROOT
BRANCH   1  22
ATOM     21  C   UNL     1       2.112   1.236 -19.877  0.00  0.00    +0.277 C 
ATOM     22  O   UNL     1       1.115   1.208 -20.649  0.00  0.00    -0.495 OA
ENDBRANCH   1  22
TORSDOF 1
ENDMDL
MODEL 6
REMARK VINA RESULT:    -9.315      2.217      4.486
REMARK INTER + INTRA:          -9.952
REMARK INTER:                  -9.803
REMARK INTRA:                  -0.149
REMARK UNBOUND:                -0.093
REMARK  Name = ZINC000027729031
REMARK  3 active torsions:
REMARK  status: ('A' for Active; 'I' for Inactive)
REMARK    1  A    between atoms: C_1  and  O_2
REMARK    2  A    between atoms: O_2  and  C_3
REMARK    3  A    between atoms: N_12  and  C_13
REMARK                            x       y       z     vdW  Elec       q    Type
REMARK                         _______ _______ _______ _____ _____    ______ ____
ROOT
ATOM      1  C   UNL     1      -3.780   3.846 -22.051  0.00  0.00    +0.120 A 
ATOM      2  C   UNL     1      -4.729   3.598 -22.851  0.00  0.00    +0.046 A 
ATOM      3  C   UNL     1      -4.465   3.440 -24.081  0.00  0.00    +0.008 A 
ATOM      4  C   UNL     1      -3.073   3.551 -24.535  0.00  0.00    -0.038 A 
ATOM      5  C   UNL     1      -2.331   3.761 -23.809  0.00  0.00    -0.033 A 
ATOM      6  C   UNL     1      -1.390   3.872 -23.889  0.00  0.00    +0.015 C 
ATOM      7  C   UNL     1      -3.034   3.709 -23.553  0.00  0.00    +0.063 C 
ATOM      8  C   UNL     1      -3.968   3.417 -24.649  0.00  0.00    +0.132 C 
ATOM      9  N   UNL     1      -3.552   3.301 -25.741  0.00  0.00    +0.236 N 
ATOM     10  H   UNL     1      -2.890   3.266 -26.517  0.00  0.00    +0.203 HD
ATOM     11  C   UNL     1      -2.008   3.450 -26.078  0.00  0.00    +0.072 C 
ATOM     12  C   UNL     1      -4.821   3.054 -26.265  0.00  0.00    +0.190 C 
ATOM     13  C   UNL     1      -0.508   4.121 -23.030  0.00  0.00    +0.086 C 
ATOM     14  C   UNL     1       0.730   4.225 -23.398  0.00  0.00    +0.134 C 
ATOM     15  O   UNL     1       1.636   4.480 -22.522  0.00  0.00    -0.297 OA
ATOM     16  C   UNL     1       1.084   4.075 -24.655  0.00  0.00    +0.075 C 
ATOM     17  C   UNL     1       0.203   3.818 -25.569  0.00  0.00    +0.017 C 
ATOM     18  C   UNL     1      -1.011   3.708 -25.257  0.00  0.00    +0.049 C 
ATOM     19  C   UNL     1      -2.815   3.393 -25.767  0.00  0.00    +0.090 C 
ATOM     20  C   UNL     1      -2.577   3.931 -22.515  0.00  0.00    +0.050 A 
ENDROOT
BRANCH   1  22
ATOM     21  C   UNL     1      -2.904   3.704 -19.770  0.00  0.00    +0.277 C 
ATOM     22  O   UNL     1      -3.716   4.071 -20.662  0.00  0.00    -0.495 OA
ENDBRANCH   1  22
TORSDOF 1
ENDMDL
MODEL 7
REMARK VINA RESULT:    -9.030      1.921      3.419
REMARK INTER + INTRA:          -9.651
REMARK INTER:                  -9.489
REMARK INTRA:                  -0.162
REMARK UNBOUND:                -0.093
REMARK  Name = ZINC000027729031
REMARK  3 active torsions:
REMARK  status: ('A' for Active; 'I' for Inactive)
REMARK    1  A    between atoms: C_1  and  O_2
REMARK    2  A    between atoms: O_2  and  C_3
REMARK    3  A    between atoms: N_12  and  C_13
REMARK                            x       y       z     vdW  Elec       q    Type
REMARK                         _______ _______ _______ _____ _____    ______ ____
ROOT
ATOM      1  C   UNL     1      -2.437   2.434 -21.432  0.00  0.00    +0.120 A 
ATOM      2  C   UNL     1      -1.196   2.418 -21.183  0.00  0.00    +0.046 A 
ATOM      3  C   UNL     1      -0.382   2.659 -22.125  0.00  0.00    +0.008 A 
ATOM      4  C   UNL     1      -0.903   2.946 -23.467  0.00  0.00    -0.038 A 
ATOM      5  C   UNL     1      -1.952   2.942 -23.601  0.00  0.00    -0.033 A 
ATOM      6  C   UNL     1      -2.487   3.100 -24.372  0.00  0.00    +0.015 C 
ATOM      7  C   UNL     1      -1.711   2.793 -22.907  0.00  0.00    +0.063 C 
ATOM      8  C   UNL     1      -0.243   2.827 -22.847  0.00  0.00    +0.132 C 
ATOM      9  N   UNL     1       0.365   3.069 -23.823  0.00  0.00    +0.236 N 
ATOM     10  H   UNL     1       0.564   3.296 -24.798  0.00  0.00    +0.203 HD
ATOM     11  C   UNL     1      -0.346   3.360 -25.212  0.00  0.00    +0.072 C 
ATOM     12  C   UNL     1       1.588   2.959 -23.162  0.00  0.00    +0.190 C 
ATOM     13  C   UNL     1      -3.733   3.095 -24.534  0.00  0.00    +0.086 C 
ATOM     14  C   UNL     1      -4.225   3.345 -25.706  0.00  0.00    +0.134 C 
ATOM     15  O   UNL     1      -5.499   3.342 -25.876  0.00  0.00    -0.297 OA
ATOM     16  C   UNL     1      -3.445   3.604 -26.733  0.00  0.00    +0.075 C 
ATOM     17  C   UNL     1      -2.157   3.617 -26.605  0.00  0.00    +0.017 C 
ATOM     18  C   UNL     1      -1.635   3.380 -25.485  0.00  0.00    +0.049 C 
ATOM     19  C   UNL     1      -0.083   3.186 -24.404  0.00  0.00    +0.090 C 
ATOM     20  C   UNL     1      -2.830   2.694 -22.635  0.00  0.00    +0.050 A 
ENDROOT
BRANCH   1  22
ATOM     21  C   UNL     1      -4.820   2.293 -20.894  0.00  0.00    +0.277 C 
ATOM     22  O   UNL     1      -3.586   2.218 -20.647  0.00  0.00    -0.495 OA
ENDBRANCH   1  22
TORSDOF 1
ENDMDL
MODEL 8
REMARK VINA RESULT:    -8.952      2.055      4.918
REMARK INTER + INTRA:          -9.568
REMARK INTER:                  -9.408
REMARK INTRA:                  -0.160
REMARK UNBOUND:                -0.093
REMARK  Name = ZINC000027729031
REMARK  3 active torsions:
REMARK  status: ('A' for Active; 'I' for Inactive)
REMARK    1  A    between atoms: C_1  and  O_2
REMARK    2  A    between atoms: O_2  and  C_3
REMARK    3  A    between atoms: N_12  and  C_13
REMARK                            x       y       z     vdW  Elec       q    Type
REMARK                         _______ _______ _______ _____ _____    ______ ____
ROOT
ATOM      1  C   UNL     1      -4.031   2.993 -22.352  0.00  0.00    +0.120 A 
ATOM      2  C   UNL     1      -4.456   3.431 -23.461  0.00  0.00    +0.046 A 
ATOM      3  C   UNL     1      -3.636   3.568 -24.418  0.00  0.00    +0.008 A 
ATOM      4  C   UNL     1      -2.226   3.214 -24.210  0.00  0.00    -0.038 A 
ATOM      5  C   UNL     1      -1.943   2.854 -23.256  0.00  0.00    -0.033 A 
ATOM      6  C   UNL     1      -1.099   2.574 -22.917  0.00  0.00    +0.015 C 
ATOM      7  C   UNL     1      -2.668   3.027 -23.338  0.00  0.00    +0.063 C 
ATOM      8  C   UNL     1      -2.937   3.514 -24.698  0.00  0.00    +0.132 C 
ATOM      9  N   UNL     1      -2.053   3.579 -25.469  0.00  0.00    +0.236 N 
ATOM     10  H   UNL     1      -1.111   3.510 -25.858  0.00  0.00    +0.203 HD
ATOM     11  C   UNL     1      -0.570   3.157 -25.092  0.00  0.00    +0.072 C 
ATOM     12  C   UNL     1      -2.885   4.068 -26.475  0.00  0.00    +0.190 C 
ATOM     13  C   UNL     1      -0.760   2.146 -21.785  0.00  0.00    +0.086 C 
ATOM     14  C   UNL     1       0.476   1.825 -21.568  0.00  0.00    +0.134 C 
ATOM     15  O   UNL     1       0.828   1.386 -20.412  0.00  0.00    -0.297 OA
ATOM     16  C   UNL     1       1.387   1.938 -22.511  0.00  0.00    +0.075 C 
ATOM     17  C   UNL     1       1.075   2.376 -23.689  0.00  0.00    +0.017 C 
ATOM     18  C   UNL     1      -0.114   2.699 -23.944  0.00  0.00    +0.049 C 
ATOM     19  C   UNL     1      -1.411   3.353 -25.171  0.00  0.00    +0.090 C 
ATOM     20  C   UNL     1      -2.779   2.700 -22.235  0.00  0.00    +0.050 A 
ENDROOT
BRANCH   1  22
ATOM     21  C   UNL     1      -4.194   2.528 -19.955  0.00  0.00    +0.277 C 
ATOM     22  O   UNL     1      -4.648   2.726 -21.115  0.00  0.00    -0.495 OA
ENDBRANCH   1  22
TORSDOF 1
ENDMDL
MODEL 9
REMARK VINA RESULT:    -8.352      2.937      6.052
REMARK INTER + INTRA:          -8.933
REMARK INTER:                  -8.840
REMARK INTRA:                  -0.093
REMARK UNBOUND:                -0.093
REMARK  Name = ZINC000027729031
REMARK  3 active torsions:
REMARK  status: ('A' for Active; 'I' for Inactive)
REMARK    1  A    between atoms: C_1  and  O_2
REMARK    2  A    between atoms: O_2  and  C_3
REMARK    3  A    between atoms: N_12  and  C_13
REMARK                            x       y       z     vdW  Elec       q    Type
REMARK                         _______ _______ _______ _____ _____    ______ ____
ROOT
ATOM      1  C   UNL     1      -1.138   2.956 -22.134  0.00  0.00    +0.120 A 
ATOM      2  C   UNL     1      -1.460   3.512 -23.225  0.00  0.00    +0.046 A 
ATOM      3  C   UNL     1      -0.639   3.480 -24.191  0.00  0.00    +0.008 A 
ATOM      4  C   UNL     1       0.652   2.804 -24.013  0.00  0.00    -0.038 A 
ATOM      5  C   UNL     1       0.853   2.362 -23.073  0.00  0.00    -0.033 A 
ATOM      6  C   UNL     1       1.612   1.884 -22.753  0.00  0.00    +0.015 C 
ATOM      7  C   UNL     1       0.187   2.701 -23.139  0.00  0.00    +0.063 C 
ATOM      8  C   UNL     1       0.026   3.274 -24.483  0.00  0.00    +0.132 C 
ATOM      9  N   UNL     1       0.894   3.153 -25.265  0.00  0.00    +0.236 N 
ATOM     10  H   UNL     1       1.790   2.879 -25.670  0.00  0.00    +0.203 HD
ATOM     11  C   UNL     1       2.242   2.388 -24.922  0.00  0.00    +0.072 C 
ATOM     12  C   UNL     1       0.189   3.849 -26.246  0.00  0.00    +0.190 C 
ATOM     13  C   UNL     1       1.852   1.359 -21.638  0.00  0.00    +0.086 C 
ATOM     14  C   UNL     1       2.982   0.754 -21.448  0.00  0.00    +0.134 C 
ATOM     15  O   UNL     1       3.233   0.214 -20.309  0.00  0.00    -0.297 OA
ATOM     16  C   UNL     1       3.885   0.679 -22.401  0.00  0.00    +0.075 C 
ATOM     17  C   UNL     1       3.673   1.209 -23.563  0.00  0.00    +0.017 C 
ATOM     18  C   UNL     1       2.590   1.806 -23.792  0.00  0.00    +0.049 C 
ATOM     19  C   UNL     1       1.469   2.777 -24.983  0.00  0.00    +0.090 C 
ATOM     20  C   UNL     1       0.013   2.378 -22.043  0.00  0.00    +0.050 A 
ENDROOT
BRANCH   1  22
ATOM     21  C   UNL     1      -2.785   3.376 -20.374  0.00  0.00    +0.277 C 
ATOM     22  O   UNL     1      -1.789   2.805 -20.895  0.00  0.00    -0.495 OA
ENDBRANCH   1  22
TORSDOF 1
ENDMDL
