MODEL 1
REMARK VINA RESULT:    -9.824      0.000      0.000
REMARK INTER + INTRA:         -10.111
REMARK INTER:                 -10.111
REMARK INTRA:                   0.000
REMARK UNBOUND:                 0.000
REMARK  Name = C[C@@H]1CC[C@@H]2[C@@H]1[C@@H]1[C@@H](CC[C@]2(C)O)C1(C)C             ZINC000239274937
REMARK  5 active torsions:
REMARK  status: ('A' for Active; 'I' for Inactive)
REMARK    1  A    between atoms: C_1  and  C_2
REMARK    2  A    between atoms: C_11  and  C_12
REMARK    3  A    between atoms: C_11  and  O_13
REMARK    4  A    between atoms: C_14  and  C_15
REMARK    5  A    between atoms: C_14  and  C_16
REMARK                            x       y       z     vdW  Elec       q    Type
REMARK                         _______ _______ _______ _____ _____    ______ ____
ROOT
ATOM      1  C   UNL     1      -1.453   3.734 -25.506  0.00  0.00    +0.008 C 
ATOM      2  C   UNL     1      -2.636   3.778 -24.970  0.00  0.00    -0.010 C 
ATOM      3  C   UNL     1      -3.709   4.258 -25.526  0.00  0.00    +0.004 C 
ATOM      4  C   UNL     1      -4.691   4.127 -24.684  0.00  0.00    +0.007 C 
ATOM      5  C   UNL     1      -4.225   3.568 -23.607  0.00  0.00    +0.024 C 
ATOM      6  C   UNL     1      -4.955   3.298 -22.567  0.00  0.00    +0.066 C 
ATOM      7  C   UNL     1      -6.066   3.267 -21.891  0.00  0.00    +0.041 C 
ATOM      8  C   UNL     1      -4.597   2.744 -21.446  0.00  0.00    +0.035 C 
ATOM      9  C   UNL     1      -3.419   2.325 -21.089  0.00  0.00    +0.007 C 
ATOM     10  C   UNL     1      -2.309   2.356 -21.765  0.00  0.00    -0.001 C 
ATOM     11  C   UNL     1      -1.119   2.302 -22.285  0.00  0.00    -0.028 C 
ATOM     12  C   UNL     1      -0.153   2.444 -23.144  0.00  0.00    +0.011 C 
ATOM     13  C   UNL     1      -0.470   1.743 -21.307  0.00  0.00    +0.011 C 
ATOM     14  C   UNL     1      -2.102   2.813 -22.964  0.00  0.00    +0.002 C 
ATOM     15  C   UNL     1      -2.955   3.353 -23.784  0.00  0.00    +0.002 C 
ENDROOT
BRANCH   6  16
ATOM     16  O   UNL     1      -5.807   3.837 -23.386  0.00  0.00    -0.389 OA
ATOM     17  H   UNL     1      -6.203   3.147 -23.942  0.00  0.00    +0.210 HD
ENDBRANCH   6  16
TORSDOF 1
ENDMDL
MODEL 2
REMARK VINA RESULT:    -9.440      1.666      3.609
REMARK INTER + INTRA:          -9.716
REMARK INTER:                  -9.716
REMARK INTRA:                   0.000
REMARK UNBOUND:                 0.000
REMARK  Name = C[C@@H]1CC[C@@H]2[C@@H]1[C@@H]1[C@@H](CC[C@]2(C)O)C1(C)C             ZINC000239274937
REMARK  5 active torsions:
REMARK  status: ('A' for Active; 'I' for Inactive)
REMARK    1  A    between atoms: C_1  and  C_2
REMARK    2  A    between atoms: C_11  and  C_12
REMARK    3  A    between atoms: C_11  and  O_13
REMARK    4  A    between atoms: C_14  and  C_15
REMARK    5  A    between atoms: C_14  and  C_16
REMARK                            x       y       z     vdW  Elec       q    Type
REMARK                         _______ _______ _______ _____ _____    ______ ____
ROOT
ATOM      1  C   UNL     1      -5.168   3.785 -24.874  0.00  0.00    +0.008 C 
ATOM      2  C   UNL     1      -3.889   3.574 -24.963  0.00  0.00    -0.010 C 
ATOM      3  C   UNL     1      -3.166   3.705 -26.036  0.00  0.00    +0.004 C 
ATOM      4  C   UNL     1      -1.937   3.408 -25.732  0.00  0.00    +0.007 C 
ATOM      5  C   UNL     1      -1.900   3.093 -24.471  0.00  0.00    +0.024 C 
ATOM      6  C   UNL     1      -0.812   2.745 -23.852  0.00  0.00    +0.066 C 
ATOM      7  C   UNL     1       0.460   2.494 -23.772  0.00  0.00    +0.041 C 
ATOM      8  C   UNL     1      -0.661   2.413 -22.604  0.00  0.00    +0.035 C 
ATOM      9  C   UNL     1      -1.561   2.348 -21.668  0.00  0.00    +0.007 C 
ATOM     10  C   UNL     1      -2.834   2.598 -21.748  0.00  0.00    -0.001 C 
ATOM     11  C   UNL     1      -4.113   2.804 -21.640  0.00  0.00    -0.028 C 
ATOM     12  C   UNL     1      -5.334   3.106 -21.969  0.00  0.00    +0.011 C 
ATOM     13  C   UNL     1      -4.280   2.527 -20.380  0.00  0.00    +0.011 C 
ATOM     14  C   UNL     1      -3.522   2.976 -22.784  0.00  0.00    +0.002 C 
ATOM     15  C   UNL     1      -3.107   3.197 -23.997  0.00  0.00    +0.002 C 
ENDROOT
BRANCH   6  16
ATOM     16  O   UNL     1      -0.398   2.965 -25.063  0.00  0.00    -0.389 OA
ATOM     17  H   UNL     1       0.509   2.634 -25.160  0.00  0.00    +0.210 HD
ENDBRANCH   6  16
TORSDOF 1
ENDMDL
MODEL 3
REMARK VINA RESULT:    -9.333      1.540      4.064
REMARK INTER + INTRA:          -9.606
REMARK INTER:                  -9.606
REMARK INTRA:                   0.000
REMARK UNBOUND:                 0.000
REMARK  Name = C[C@@H]1CC[C@@H]2[C@@H]1[C@@H]1[C@@H](CC[C@]2(C)O)C1(C)C             ZINC000239274937
REMARK  5 active torsions:
REMARK  status: ('A' for Active; 'I' for Inactive)
REMARK    1  A    between atoms: C_1  and  C_2
REMARK    2  A    between atoms: C_11  and  C_12
REMARK    3  A    between atoms: C_11  and  O_13
REMARK    4  A    between atoms: C_14  and  C_15
REMARK    5  A    between atoms: C_14  and  C_16
REMARK                            x       y       z     vdW  Elec       q    Type
REMARK                         _______ _______ _______ _____ _____    ______ ____
ROOT
ATOM      1  C   UNL     1      -1.272   2.610 -21.451  0.00  0.00    +0.008 C 
ATOM      2  C   UNL     1      -1.286   2.822 -22.733  0.00  0.00    -0.010 C 
ATOM      3  C   UNL     1      -0.250   2.818 -23.519  0.00  0.00    +0.004 C 
ATOM      4  C   UNL     1      -0.662   3.069 -24.727  0.00  0.00    +0.007 C 
ATOM      5  C   UNL     1      -1.951   3.227 -24.687  0.00  0.00    +0.024 C 
ATOM      6  C   UNL     1      -2.672   3.491 -25.735  0.00  0.00    +0.066 C 
ATOM      7  C   UNL     1      -2.859   3.722 -27.001  0.00  0.00    +0.041 C 
ATOM      8  C   UNL     1      -3.958   3.668 -25.811  0.00  0.00    +0.035 C 
ATOM      9  C   UNL     1      -4.840   3.625 -24.856  0.00  0.00    +0.007 C 
ATOM     10  C   UNL     1      -4.654   3.394 -23.591  0.00  0.00    -0.001 C 
ATOM     11  C   UNL     1      -4.660   3.184 -22.308  0.00  0.00    -0.028 C 
ATOM     12  C   UNL     1      -4.224   2.932 -21.109  0.00  0.00    +0.011 C 
ATOM     13  C   UNL     1      -5.931   3.307 -22.064  0.00  0.00    +0.011 C 
ATOM     14  C   UNL     1      -3.540   3.149 -22.967  0.00  0.00    +0.002 C 
ATOM     15  C   UNL     1      -2.337   3.075 -23.455  0.00  0.00    +0.002 C 
ENDROOT
BRANCH   6  16
ATOM     16  O   UNL     1      -1.471   3.417 -26.223  0.00  0.00    -0.389 OA
ATOM     17  H   UNL     1      -1.255   2.491 -26.414  0.00  0.00    +0.210 HD
ENDBRANCH   6  16
TORSDOF 1
ENDMDL
MODEL 4
REMARK VINA RESULT:    -9.258      0.870      3.098
REMARK INTER + INTRA:          -9.529
REMARK INTER:                  -9.529
REMARK INTRA:                   0.000
REMARK UNBOUND:                 0.000
REMARK  Name = C[C@@H]1CC[C@@H]2[C@@H]1[C@@H]1[C@@H](CC[C@]2(C)O)C1(C)C             ZINC000239274937
REMARK  5 active torsions:
REMARK  status: ('A' for Active; 'I' for Inactive)
REMARK    1  A    between atoms: C_1  and  C_2
REMARK    2  A    between atoms: C_11  and  C_12
REMARK    3  A    between atoms: C_11  and  O_13
REMARK    4  A    between atoms: C_14  and  C_15
REMARK    5  A    between atoms: C_14  and  C_16
REMARK                            x       y       z     vdW  Elec       q    Type
REMARK                         _______ _______ _______ _____ _____    ______ ____
ROOT
ATOM      1  C   UNL     1      -3.935   2.610 -20.608  0.00  0.00    +0.008 C 
ATOM      2  C   UNL     1      -4.237   3.003 -21.809  0.00  0.00    -0.010 C 
ATOM      3  C   UNL     1      -5.415   3.374 -22.218  0.00  0.00    +0.004 C 
ATOM      4  C   UNL     1      -5.321   3.694 -23.475  0.00  0.00    +0.007 C 
ATOM      5  C   UNL     1      -4.087   3.521 -23.843  0.00  0.00    +0.024 C 
ATOM      6  C   UNL     1      -3.660   3.754 -25.048  0.00  0.00    +0.066 C 
ATOM      7  C   UNL     1      -3.794   4.120 -26.288  0.00  0.00    +0.041 C 
ATOM      8  C   UNL     1      -2.457   3.617 -25.522  0.00  0.00    +0.035 C 
ATOM      9  C   UNL     1      -1.384   3.213 -24.908  0.00  0.00    +0.007 C 
ATOM     10  C   UNL     1      -1.250   2.847 -23.668  0.00  0.00    -0.001 C 
ATOM     11  C   UNL     1      -0.928   2.452 -22.472  0.00  0.00    -0.028 C 
ATOM     12  C   UNL     1      -1.047   2.137 -21.216  0.00  0.00    +0.011 C 
ATOM     13  C   UNL     1       0.339   2.219 -22.644  0.00  0.00    +0.011 C 
ATOM     14  C   UNL     1      -2.154   2.794 -22.736  0.00  0.00    +0.002 C 
ATOM     15  C   UNL     1      -3.417   3.094 -22.813  0.00  0.00    +0.002 C 
ENDROOT
BRANCH   6  16
ATOM     16  O   UNL     1      -4.921   4.054 -25.125  0.00  0.00    -0.389 OA
ATOM     17  H   UNL     1      -5.453   3.287 -24.860  0.00  0.00    +0.210 HD
ENDBRANCH   6  16
TORSDOF 1
ENDMDL
MODEL 5
REMARK VINA RESULT:    -9.217      1.590      4.431
REMARK INTER + INTRA:          -9.486
REMARK INTER:                  -9.486
REMARK INTRA:                   0.000
REMARK UNBOUND:                 0.000
REMARK  Name = C[C@@H]1CC[C@@H]2[C@@H]1[C@@H]1[C@@H](CC[C@]2(C)O)C1(C)C             ZINC000239274937
REMARK  5 active torsions:
REMARK  status: ('A' for Active; 'I' for Inactive)
REMARK    1  A    between atoms: C_1  and  C_2
REMARK    2  A    between atoms: C_11  and  C_12
REMARK    3  A    between atoms: C_11  and  O_13
REMARK    4  A    between atoms: C_14  and  C_15
REMARK    5  A    between atoms: C_14  and  C_16
REMARK                            x       y       z     vdW  Elec       q    Type
REMARK                         _______ _______ _______ _____ _____    ______ ____
ROOT
ATOM      1  C   UNL     1      -5.582   3.453 -22.499  0.00  0.00    +0.008 C 
ATOM      2  C   UNL     1      -4.382   3.172 -22.088  0.00  0.00    -0.010 C 
ATOM      3  C   UNL     1      -4.031   2.937 -20.858  0.00  0.00    +0.004 C 
ATOM      4  C   UNL     1      -2.754   2.696 -20.844  0.00  0.00    +0.007 C 
ATOM      5  C   UNL     1      -2.315   2.781 -22.064  0.00  0.00    +0.024 C 
ATOM      6  C   UNL     1      -1.072   2.592 -22.393  0.00  0.00    +0.066 C 
ATOM      7  C   UNL     1       0.176   2.325 -22.149  0.00  0.00    +0.041 C 
ATOM      8  C   UNL     1      -0.528   2.652 -23.572  0.00  0.00    +0.035 C 
ATOM      9  C   UNL     1      -1.093   2.914 -24.714  0.00  0.00    +0.007 C 
ATOM     10  C   UNL     1      -2.341   3.181 -24.957  0.00  0.00    -0.001 C 
ATOM     11  C   UNL     1      -3.535   3.464 -25.387  0.00  0.00    -0.028 C 
ATOM     12  C   UNL     1      -4.813   3.703 -25.376  0.00  0.00    +0.011 C 
ATOM     13  C   UNL     1      -3.293   3.593 -26.658  0.00  0.00    +0.011 C 
ATOM     14  C   UNL     1      -3.333   3.253 -24.121  0.00  0.00    +0.002 C 
ATOM     15  C   UNL     1      -3.322   3.075 -22.833  0.00  0.00    +0.002 C 
ENDROOT
BRANCH   6  16
ATOM     16  O   UNL     1      -1.061   2.414 -21.106  0.00  0.00    -0.389 OA
ATOM     17  H   UNL     1      -0.828   3.247 -20.666  0.00  0.00    +0.210 HD
ENDBRANCH   6  16
TORSDOF 1
ENDMDL
MODEL 6
REMARK VINA RESULT:    -8.767      0.856      3.159
REMARK INTER + INTRA:          -9.023
REMARK INTER:                  -9.023
REMARK INTRA:                   0.000
REMARK UNBOUND:                 0.000
REMARK  Name = C[C@@H]1CC[C@@H]2[C@@H]1[C@@H]1[C@@H](CC[C@]2(C)O)C1(C)C             ZINC000239274937
REMARK  5 active torsions:
REMARK  status: ('A' for Active; 'I' for Inactive)
REMARK    1  A    between atoms: C_1  and  C_2
REMARK    2  A    between atoms: C_11  and  C_12
REMARK    3  A    between atoms: C_11  and  O_13
REMARK    4  A    between atoms: C_14  and  C_15
REMARK    5  A    between atoms: C_14  and  C_16
REMARK                            x       y       z     vdW  Elec       q    Type
REMARK                         _______ _______ _______ _____ _____    ______ ____
ROOT
ATOM      1  C   UNL     1      -1.119   2.250 -21.060  0.00  0.00    +0.008 C 
ATOM      2  C   UNL     1      -2.282   2.588 -21.530  0.00  0.00    -0.010 C 
ATOM      3  C   UNL     1      -3.412   2.525 -20.889  0.00  0.00    +0.004 C 
ATOM      4  C   UNL     1      -4.350   2.946 -21.686  0.00  0.00    +0.007 C 
ATOM      5  C   UNL     1      -3.799   3.269 -22.819  0.00  0.00    +0.024 C 
ATOM      6  C   UNL     1      -4.467   3.728 -23.834  0.00  0.00    +0.066 C 
ATOM      7  C   UNL     1      -5.547   4.107 -24.451  0.00  0.00    +0.041 C 
ATOM      8  C   UNL     1      -4.023   4.080 -25.004  0.00  0.00    +0.035 C 
ATOM      9  C   UNL     1      -2.801   4.059 -25.448  0.00  0.00    +0.007 C 
ATOM     10  C   UNL     1      -1.722   3.681 -24.830  0.00  0.00    -0.001 C 
ATOM     11  C   UNL     1      -0.549   3.348 -24.378  0.00  0.00    -0.028 C 
ATOM     12  C   UNL     1       0.370   2.922 -23.562  0.00  0.00    +0.011 C 
ATOM     13  C   UNL     1       0.179   3.612 -25.421  0.00  0.00    +0.011 C 
ATOM     14  C   UNL     1      -1.597   3.230 -23.617  0.00  0.00    +0.002 C 
ATOM     15  C   UNL     1      -2.522   3.047 -22.722  0.00  0.00    +0.002 C 
ENDROOT
BRANCH   6  16
ATOM     16  O   UNL     1      -5.391   3.545 -22.939  0.00  0.00    -0.389 OA
ATOM     17  H   UNL     1      -6.127   3.049 -23.331  0.00  0.00    +0.210 HD
ENDBRANCH   6  16
TORSDOF 1
ENDMDL
MODEL 7
REMARK VINA RESULT:    -8.733      1.811      4.860
REMARK INTER + INTRA:          -8.988
REMARK INTER:                  -8.988
REMARK INTRA:                   0.000
REMARK UNBOUND:                 0.000
REMARK  Name = C[C@@H]1CC[C@@H]2[C@@H]1[C@@H]1[C@@H](CC[C@]2(C)O)C1(C)C             ZINC000239274937
REMARK  5 active torsions:
REMARK  status: ('A' for Active; 'I' for Inactive)
REMARK    1  A    between atoms: C_1  and  C_2
REMARK    2  A    between atoms: C_11  and  C_12
REMARK    3  A    between atoms: C_11  and  O_13
REMARK    4  A    between atoms: C_14  and  C_15
REMARK    5  A    between atoms: C_14  and  C_16
REMARK                            x       y       z     vdW  Elec       q    Type
REMARK                         _______ _______ _______ _____ _____    ______ ____
ROOT
ATOM      1  C   UNL     1      -3.642   2.687 -20.857  0.00  0.00    +0.008 C 
ATOM      2  C   UNL     1      -2.528   2.676 -21.525  0.00  0.00    -0.010 C 
ATOM      3  C   UNL     1      -1.362   2.336 -21.061  0.00  0.00    +0.004 C 
ATOM      4  C   UNL     1      -0.496   2.452 -22.024  0.00  0.00    +0.007 C 
ATOM      5  C   UNL     1      -1.127   2.863 -23.084  0.00  0.00    +0.024 C 
ATOM      6  C   UNL     1      -0.544   3.080 -24.224  0.00  0.00    +0.066 C 
ATOM      7  C   UNL     1       0.476   3.124 -25.029  0.00  0.00    +0.041 C 
ATOM      8  C   UNL     1      -1.073   3.489 -25.340  0.00  0.00    +0.035 C 
ATOM      9  C   UNL     1      -2.315   3.782 -25.589  0.00  0.00    +0.007 C 
ATOM     10  C   UNL     1      -3.335   3.739 -24.784  0.00  0.00    -0.001 C 
ATOM     11  C   UNL     1      -4.459   3.756 -24.132  0.00  0.00    -0.028 C 
ATOM     12  C   UNL     1      -5.305   3.632 -23.152  0.00  0.00    +0.011 C 
ATOM     13  C   UNL     1      -5.259   4.165 -25.071  0.00  0.00    +0.011 C 
ATOM     14  C   UNL     1      -3.365   3.391 -23.532  0.00  0.00    +0.002 C 
ATOM     15  C   UNL     1      -2.383   3.002 -22.775  0.00  0.00    +0.002 C 
ENDROOT
BRANCH   6  16
ATOM     16  O   UNL     1       0.437   2.691 -23.468  0.00  0.00    -0.389 OA
ATOM     17  H   UNL     1       0.454   1.721 -23.432  0.00  0.00    +0.210 HD
ENDBRANCH   6  16
TORSDOF 1
ENDMDL
MODEL 8
REMARK VINA RESULT:    -8.148      2.445      4.609
REMARK INTER + INTRA:          -8.387
REMARK INTER:                  -8.387
REMARK INTRA:                   0.000
REMARK UNBOUND:                 0.000
REMARK  Name = C[C@@H]1CC[C@@H]2[C@@H]1[C@@H]1[C@@H](CC[C@]2(C)O)C1(C)C             ZINC000239274937
REMARK  5 active torsions:
REMARK  status: ('A' for Active; 'I' for Inactive)
REMARK    1  A    between atoms: C_1  and  C_2
REMARK    2  A    between atoms: C_11  and  C_12
REMARK    3  A    between atoms: C_11  and  O_13
REMARK    4  A    between atoms: C_14  and  C_15
REMARK    5  A    between atoms: C_14  and  C_16
REMARK                            x       y       z     vdW  Elec       q    Type
REMARK                         _______ _______ _______ _____ _____    ______ ____
ROOT
ATOM      1  C   UNL     1      -1.766   3.801 -25.339  0.00  0.00    +0.008 C 
ATOM      2  C   UNL     1      -0.658   3.351 -24.831  0.00  0.00    -0.010 C 
ATOM      3  C   UNL     1       0.507   3.363 -25.408  0.00  0.00    +0.004 C 
ATOM      4  C   UNL     1       1.366   2.829 -24.590  0.00  0.00    +0.007 C 
ATOM      5  C   UNL     1       0.732   2.487 -23.508  0.00  0.00    +0.024 C 
ATOM      6  C   UNL     1       1.308   1.924 -22.489  0.00  0.00    +0.066 C 
ATOM      7  C   UNL     1       2.322   1.433 -21.840  0.00  0.00    +0.041 C 
ATOM      8  C   UNL     1       0.775   1.543 -21.366  0.00  0.00    +0.035 C 
ATOM      9  C   UNL     1      -0.465   1.633 -20.985  0.00  0.00    +0.007 C 
ATOM     10  C   UNL     1      -1.478   2.124 -21.633  0.00  0.00    -0.001 C 
ATOM     11  C   UNL     1      -2.596   2.569 -22.125  0.00  0.00    -0.028 C 
ATOM     12  C   UNL     1      -3.436   3.106 -22.960  0.00  0.00    +0.011 C 
ATOM     13  C   UNL     1      -3.399   2.303 -21.137  0.00  0.00    +0.011 C 
ATOM     14  C   UNL     1      -1.502   2.648 -22.823  0.00  0.00    +0.002 C 
ATOM     15  C   UNL     1      -0.519   2.810 -23.657  0.00  0.00    +0.002 C 
ENDROOT
BRANCH   6  16
ATOM     16  O   UNL     1       2.291   2.086 -23.323  0.00  0.00    -0.389 OA
ATOM     17  H   UNL     1       2.494   1.240 -23.752  0.00  0.00    +0.210 HD
ENDBRANCH   6  16
TORSDOF 1
ENDMDL
MODEL 9
REMARK VINA RESULT:    -7.933      2.395      3.421
REMARK INTER + INTRA:          -8.165
REMARK INTER:                  -8.165
REMARK INTRA:                   0.000
REMARK UNBOUND:                 0.000
REMARK  Name = C[C@@H]1CC[C@@H]2[C@@H]1[C@@H]1[C@@H](CC[C@]2(C)O)C1(C)C             ZINC000239274937
REMARK  5 active torsions:
REMARK  status: ('A' for Active; 'I' for Inactive)
REMARK    1  A    between atoms: C_1  and  C_2
REMARK    2  A    between atoms: C_11  and  C_12
REMARK    3  A    between atoms: C_11  and  O_13
REMARK    4  A    between atoms: C_14  and  C_15
REMARK    5  A    between atoms: C_14  and  C_16
REMARK                            x       y       z     vdW  Elec       q    Type
REMARK                         _______ _______ _______ _____ _____    ______ ____
ROOT
ATOM      1  C   UNL     1       1.764   4.933 -23.978  0.00  0.00    +0.008 C 
ATOM      2  C   UNL     1       0.585   4.686 -23.489  0.00  0.00    -0.010 C 
ATOM      3  C   UNL     1      -0.444   5.479 -23.540  0.00  0.00    +0.004 C 
ATOM      4  C   UNL     1      -1.438   4.886 -22.947  0.00  0.00    +0.007 C 
ATOM      5  C   UNL     1      -1.023   3.727 -22.529  0.00  0.00    +0.024 C 
ATOM      6  C   UNL     1      -1.778   2.883 -21.892  0.00  0.00    +0.066 C 
ATOM      7  C   UNL     1      -2.891   2.483 -21.352  0.00  0.00    +0.041 C 
ATOM      8  C   UNL     1      -1.470   1.706 -21.433  0.00  0.00    +0.035 C 
ATOM      9  C   UNL     1      -0.330   1.084 -21.497  0.00  0.00    +0.007 C 
ATOM     10  C   UNL     1       0.783   1.484 -22.037  0.00  0.00    -0.001 C 
ATOM     11  C   UNL     1       1.968   1.713 -22.519  0.00  0.00    -0.028 C 
ATOM     12  C   UNL     1       2.946   2.327 -23.117  0.00  0.00    +0.011 C 
ATOM     13  C   UNL     1       2.566   0.608 -22.184  0.00  0.00    +0.011 C 
ATOM     14  C   UNL     1       1.031   2.605 -22.645  0.00  0.00    +0.002 C 
ATOM     15  C   UNL     1       0.228   3.604 -22.865  0.00  0.00    +0.002 C 
ENDROOT
BRANCH   6  16
ATOM     16  O   UNL     1      -2.580   3.881 -22.111  0.00  0.00    -0.389 OA
ATOM     17  H   UNL     1      -2.462   4.550 -21.419  0.00  0.00    +0.210 HD
ENDBRANCH   6  16
TORSDOF 1
ENDMDL
