MODEL 1
REMARK VINA RESULT:    -8.394      0.000      0.000
REMARK INTER + INTRA:         -10.119
REMARK INTER:                  -9.869
REMARK INTRA:                  -0.250
REMARK UNBOUND:                -0.253
REMARK  Name = CN1[C@H]2CC[C@@H]1C[C@@H](OC(=O)c1ccccc1)C2                          ZINC000100392399
REMARK  4 active torsions:
REMARK  status: ('A' for Active; 'I' for Inactive)
REMARK    1  A    between atoms: C_1  and  N_2
REMARK    2  A    between atoms: C_8  and  O_9
REMARK    3  A    between atoms: O_9  and  C_10
REMARK    4  A    between atoms: C_10  and  C_12
REMARK                            x       y       z     vdW  Elec       q    Type
REMARK                         _______ _______ _______ _____ _____    ______ ____
ROOT
ATOM      1  C   UNL     1       0.792   2.198 -22.740  0.00  0.00    +0.191 C 
ATOM      2  N   UNL     1       1.441   2.064 -22.380  0.00  0.00    +0.238 N 
ATOM      3  H   UNL     1       2.320   1.883 -21.894  0.00  0.00    +0.204 HD
ATOM      4  C   UNL     1       2.206   2.435 -22.890  0.00  0.00    +0.068 C 
ATOM      5  C   UNL     1       3.240   2.085 -22.077  0.00  0.00    +0.060 C 
ATOM      6  C   UNL     1       2.545   1.438 -21.068  0.00  0.00    +0.060 C 
ATOM      7  C   UNL     1       1.450   2.847 -23.758  0.00  0.00    +0.099 C 
ATOM      8  C   UNL     1      -0.050   2.372 -23.206  0.00  0.00    +0.187 C 
ATOM      9  C   UNL     1       0.072   1.561 -21.755  0.00  0.00    +0.099 C 
ATOM     10  C   UNL     1       1.275   1.567 -21.536  0.00  0.00    +0.068 C 
ENDROOT
BRANCH   8  11
ATOM     11  O   UNL     1      -1.141   2.604 -23.823  0.00  0.00    -0.457 OA
BRANCH  11  12
ATOM     12  C   UNL     1      -1.790   3.691 -23.514  0.00  0.00    +0.339 C 
ATOM     13  O   UNL     1      -1.186   4.908 -23.602  0.00  0.00    -0.245 OA
BRANCH  12  14
ATOM     14  C   UNL     1      -3.011   3.580 -23.126  0.00  0.00    +0.059 A 
ATOM     15  C   UNL     1      -3.306   3.159 -21.865  0.00  0.00    +0.015 A 
ATOM     16  C   UNL     1      -4.602   3.048 -21.476  0.00  0.00    +0.001 A 
ATOM     17  C   UNL     1      -5.604   3.355 -22.339  0.00  0.00    +0.000 A 
ATOM     18  C   UNL     1      -5.307   3.776 -23.600  0.00  0.00    +0.001 A 
ATOM     19  C   UNL     1      -4.012   3.887 -23.989  0.00  0.00    +0.015 A 
ENDBRANCH  12  14
ENDBRANCH  11  12
ENDBRANCH   8  11
TORSDOF 3
ENDMDL
MODEL 2
REMARK VINA RESULT:    -8.365      1.480      2.262
REMARK INTER + INTRA:         -10.086
REMARK INTER:                  -9.823
REMARK INTRA:                  -0.263
REMARK UNBOUND:                -0.253
REMARK  Name = CN1[C@H]2CC[C@@H]1C[C@@H](OC(=O)c1ccccc1)C2                          ZINC000100392399
REMARK  4 active torsions:
REMARK  status: ('A' for Active; 'I' for Inactive)
REMARK    1  A    between atoms: C_1  and  N_2
REMARK    2  A    between atoms: C_8  and  O_9
REMARK    3  A    between atoms: O_9  and  C_10
REMARK    4  A    between atoms: C_10  and  C_12
REMARK                            x       y       z     vdW  Elec       q    Type
REMARK                         _______ _______ _______ _____ _____    ______ ____
ROOT
ATOM      1  C   UNL     1       1.037   3.546 -23.414  0.00  0.00    +0.191 C 
ATOM      2  N   UNL     1       1.701   3.893 -23.331  0.00  0.00    +0.238 N 
ATOM      3  H   UNL     1       2.600   4.363 -23.218  0.00  0.00    +0.204 HD
ATOM      4  C   UNL     1       1.588   4.877 -23.366  0.00  0.00    +0.068 C 
ATOM      5  C   UNL     1       2.877   5.281 -23.200  0.00  0.00    +0.060 C 
ATOM      6  C   UNL     1       3.503   4.050 -23.089  0.00  0.00    +0.060 C 
ATOM      7  C   UNL     1       0.383   4.751 -23.528  0.00  0.00    +0.099 C 
ATOM      8  C   UNL     1       0.175   3.096 -23.522  0.00  0.00    +0.187 C 
ATOM      9  C   UNL     1       1.628   2.307 -23.308  0.00  0.00    +0.099 C 
ATOM     10  C   UNL     1       2.429   3.227 -23.218  0.00  0.00    +0.068 C 
ENDROOT
BRANCH   8  11
ATOM     11  O   UNL     1      -0.954   2.521 -23.663  0.00  0.00    -0.457 OA
BRANCH  11  12
ATOM     12  C   UNL     1      -1.778   2.551 -22.654  0.00  0.00    +0.339 C 
ATOM     13  O   UNL     1      -1.365   2.180 -21.411  0.00  0.00    -0.245 OA
BRANCH  12  14
ATOM     14  C   UNL     1      -2.985   2.939 -22.868  0.00  0.00    +0.059 A 
ATOM     15  C   UNL     1      -3.362   3.401 -24.092  0.00  0.00    +0.015 A 
ATOM     16  C   UNL     1      -4.641   3.806 -24.297  0.00  0.00    +0.001 A 
ATOM     17  C   UNL     1      -5.546   3.751 -23.286  0.00  0.00    +0.000 A 
ATOM     18  C   UNL     1      -5.168   3.289 -22.063  0.00  0.00    +0.001 A 
ATOM     19  C   UNL     1      -3.889   2.884 -21.857  0.00  0.00    +0.015 A 
ENDBRANCH  12  14
ENDBRANCH  11  12
ENDBRANCH   8  11
TORSDOF 3
ENDMDL
MODEL 3
REMARK VINA RESULT:    -8.133      1.590      5.767
REMARK INTER + INTRA:          -9.813
REMARK INTER:                  -9.589
REMARK INTRA:                  -0.225
REMARK UNBOUND:                -0.253
REMARK  Name = CN1[C@H]2CC[C@@H]1C[C@@H](OC(=O)c1ccccc1)C2                          ZINC000100392399
REMARK  4 active torsions:
REMARK  status: ('A' for Active; 'I' for Inactive)
REMARK    1  A    between atoms: C_1  and  N_2
REMARK    2  A    between atoms: C_8  and  O_9
REMARK    3  A    between atoms: O_9  and  C_10
REMARK    4  A    between atoms: C_10  and  C_12
REMARK                            x       y       z     vdW  Elec       q    Type
REMARK                         _______ _______ _______ _____ _____    ______ ____
ROOT
ATOM      1  C   UNL     1      -3.071   3.260 -23.337  0.00  0.00    +0.191 C 
ATOM      2  N   UNL     1      -3.786   3.308 -23.102  0.00  0.00    +0.238 N 
ATOM      3  H   UNL     1      -4.753   3.375 -22.786  0.00  0.00    +0.204 HD
ATOM      4  C   UNL     1      -4.360   3.695 -23.812  0.00  0.00    +0.068 C 
ATOM      5  C   UNL     1      -5.568   3.688 -23.185  0.00  0.00    +0.060 C 
ATOM      6  C   UNL     1      -5.203   3.144 -21.964  0.00  0.00    +0.060 C 
ATOM      7  C   UNL     1      -3.398   3.797 -24.560  0.00  0.00    +0.099 C 
ATOM      8  C   UNL     1      -2.143   3.196 -23.641  0.00  0.00    +0.187 C 
ATOM      9  C   UNL     1      -2.675   2.717 -22.135  0.00  0.00    +0.099 C 
ATOM     10  C   UNL     1      -3.872   2.966 -22.174  0.00  0.00    +0.068 C 
ENDROOT
BRANCH   8  11
ATOM     11  O   UNL     1      -0.937   3.119 -24.048  0.00  0.00    -0.457 OA
BRANCH  11  12
ATOM     12  C   UNL     1      -0.088   3.994 -23.590  0.00  0.00    +0.339 C 
ATOM     13  O   UNL     1      -0.437   5.304 -23.472  0.00  0.00    -0.245 OA
BRANCH  12  14
ATOM     14  C   UNL     1       1.084   3.584 -23.254  0.00  0.00    +0.059 A 
ATOM     15  C   UNL     1       1.245   2.420 -22.565  0.00  0.00    +0.015 A 
ATOM     16  C   UNL     1       2.490   2.005 -22.221  0.00  0.00    +0.001 A 
ATOM     17  C   UNL     1       3.576   2.745 -22.561  0.00  0.00    +0.000 A 
ATOM     18  C   UNL     1       3.415   3.908 -23.250  0.00  0.00    +0.001 A 
ATOM     19  C   UNL     1       2.170   4.324 -23.595  0.00  0.00    +0.015 A 
ENDBRANCH  12  14
ENDBRANCH  11  12
ENDBRANCH   8  11
TORSDOF 3
ENDMDL
MODEL 4
REMARK VINA RESULT:    -8.023      1.617      5.955
REMARK INTER + INTRA:          -9.684
REMARK INTER:                  -9.647
REMARK INTRA:                  -0.037
REMARK UNBOUND:                -0.253
REMARK  Name = CN1[C@H]2CC[C@@H]1C[C@@H](OC(=O)c1ccccc1)C2                          ZINC000100392399
REMARK  4 active torsions:
REMARK  status: ('A' for Active; 'I' for Inactive)
REMARK    1  A    between atoms: C_1  and  N_2
REMARK    2  A    between atoms: C_8  and  O_9
REMARK    3  A    between atoms: O_9  and  C_10
REMARK    4  A    between atoms: C_10  and  C_12
REMARK                            x       y       z     vdW  Elec       q    Type
REMARK                         _______ _______ _______ _____ _____    ______ ____
ROOT
ATOM      1  C   UNL     1      -2.871   2.728 -23.056  0.00  0.00    +0.191 C 
ATOM      2  N   UNL     1      -3.563   3.016 -22.974  0.00  0.00    +0.238 N 
ATOM      3  H   UNL     1      -4.499   3.407 -22.865  0.00  0.00    +0.204 HD
ATOM      4  C   UNL     1      -3.901   3.363 -23.839  0.00  0.00    +0.068 C 
ATOM      5  C   UNL     1      -5.126   3.821 -23.462  0.00  0.00    +0.060 C 
ATOM      6  C   UNL     1      -5.098   3.502 -22.115  0.00  0.00    +0.060 C 
ATOM      7  C   UNL     1      -2.865   3.030 -24.397  0.00  0.00    +0.099 C 
ATOM      8  C   UNL     1      -1.974   2.354 -23.161  0.00  0.00    +0.187 C 
ATOM      9  C   UNL     1      -2.812   2.397 -21.721  0.00  0.00    +0.099 C 
ATOM     10  C   UNL     1      -3.865   2.936 -22.032  0.00  0.00    +0.068 C 
ENDROOT
BRANCH   8  11
ATOM     11  O   UNL     1      -0.804   1.869 -23.310  0.00  0.00    -0.457 OA
BRANCH  11  12
ATOM     12  C   UNL     1       0.209   2.665 -23.120  0.00  0.00    +0.339 C 
ATOM     13  O   UNL     1       0.014   3.996 -22.905  0.00  0.00    -0.245 OA
BRANCH  12  14
ATOM     14  C   UNL     1       1.391   2.160 -23.142  0.00  0.00    +0.059 A 
ATOM     15  C   UNL     1       2.306   2.566 -24.066  0.00  0.00    +0.015 A 
ATOM     16  C   UNL     1       3.548   2.019 -24.071  0.00  0.00    +0.001 A 
ATOM     17  C   UNL     1       3.882   1.070 -23.161  0.00  0.00    +0.000 A 
ATOM     18  C   UNL     1       2.966   0.664 -22.238  0.00  0.00    +0.001 A 
ATOM     19  C   UNL     1       1.724   1.210 -22.231  0.00  0.00    +0.015 A 
ENDBRANCH  12  14
ENDBRANCH  11  12
ENDBRANCH   8  11
TORSDOF 3
ENDMDL
MODEL 5
REMARK VINA RESULT:    -7.889      1.156      2.073
REMARK INTER + INTRA:          -9.526
REMARK INTER:                  -9.290
REMARK INTRA:                  -0.236
REMARK UNBOUND:                -0.253
REMARK  Name = CN1[C@H]2CC[C@@H]1C[C@@H](OC(=O)c1ccccc1)C2                          ZINC000100392399
REMARK  4 active torsions:
REMARK  status: ('A' for Active; 'I' for Inactive)
REMARK    1  A    between atoms: C_1  and  N_2
REMARK    2  A    between atoms: C_8  and  O_9
REMARK    3  A    between atoms: O_9  and  C_10
REMARK    4  A    between atoms: C_10  and  C_12
REMARK                            x       y       z     vdW  Elec       q    Type
REMARK                         _______ _______ _______ _____ _____    ______ ____
ROOT
ATOM      1  C   UNL     1       1.415   2.482 -23.174  0.00  0.00    +0.191 C 
ATOM      2  N   UNL     1       1.958   1.964 -23.240  0.00  0.00    +0.238 N 
ATOM      3  H   UNL     1       2.693   1.262 -23.330  0.00  0.00    +0.204 HD
ATOM      4  C   UNL     1       1.876   1.278 -22.529  0.00  0.00    +0.068 C 
ATOM      5  C   UNL     1       2.928   0.472 -22.838  0.00  0.00    +0.060 C 
ATOM      6  C   UNL     1       3.425   1.139 -23.946  0.00  0.00    +0.060 C 
ATOM      7  C   UNL     1       0.895   1.846 -22.071  0.00  0.00    +0.099 C 
ATOM      8  C   UNL     1       0.709   3.154 -23.088  0.00  0.00    +0.187 C 
ATOM      9  C   UNL     1       1.883   3.168 -24.271  0.00  0.00    +0.099 C 
ATOM     10  C   UNL     1       2.544   2.171 -24.015  0.00  0.00    +0.068 C 
ENDROOT
BRANCH   8  11
ATOM     11  O   UNL     1      -0.214   4.024 -22.965  0.00  0.00    -0.457 OA
BRANCH  11  12
ATOM     12  C   UNL     1      -1.360   3.773 -23.532  0.00  0.00    +0.339 C 
ATOM     13  O   UNL     1      -1.449   3.629 -24.883  0.00  0.00    -0.245 OA
BRANCH  12  14
ATOM     14  C   UNL     1      -2.398   3.665 -22.780  0.00  0.00    +0.059 A 
ATOM     15  C   UNL     1      -3.632   3.461 -23.320  0.00  0.00    +0.015 A 
ATOM     16  C   UNL     1      -4.714   3.350 -22.509  0.00  0.00    +0.001 A 
ATOM     17  C   UNL     1      -4.572   3.442 -21.162  0.00  0.00    +0.000 A 
ATOM     18  C   UNL     1      -3.338   3.646 -20.623  0.00  0.00    +0.001 A 
ATOM     19  C   UNL     1      -2.255   3.757 -21.434  0.00  0.00    +0.015 A 
ENDBRANCH  12  14
ENDBRANCH  11  12
ENDBRANCH   8  11
TORSDOF 3
ENDMDL
MODEL 6
REMARK VINA RESULT:    -7.344      1.860      5.875
REMARK INTER + INTRA:          -8.886
REMARK INTER:                  -8.568
REMARK INTRA:                  -0.318
REMARK UNBOUND:                -0.253
REMARK  Name = CN1[C@H]2CC[C@@H]1C[C@@H](OC(=O)c1ccccc1)C2                          ZINC000100392399
REMARK  4 active torsions:
REMARK  status: ('A' for Active; 'I' for Inactive)
REMARK    1  A    between atoms: C_1  and  N_2
REMARK    2  A    between atoms: C_8  and  O_9
REMARK    3  A    between atoms: O_9  and  C_10
REMARK    4  A    between atoms: C_10  and  C_12
REMARK                            x       y       z     vdW  Elec       q    Type
REMARK                         _______ _______ _______ _____ _____    ______ ____
ROOT
ATOM      1  C   UNL     1      -1.646   2.399 -22.939  0.00  0.00    +0.191 C 
ATOM      2  N   UNL     1      -2.196   2.881 -23.119  0.00  0.00    +0.238 N 
ATOM      3  H   UNL     1      -2.941   3.534 -23.363  0.00  0.00    +0.204 HD
ATOM      4  C   UNL     1      -2.861   2.942 -22.387  0.00  0.00    +0.068 C 
ATOM      5  C   UNL     1      -3.734   3.842 -22.917  0.00  0.00    +0.060 C 
ATOM      6  C   UNL     1      -3.120   4.083 -24.135  0.00  0.00    +0.060 C 
ATOM      7  C   UNL     1      -2.228   2.135 -21.721  0.00  0.00    +0.099 C 
ATOM      8  C   UNL     1      -0.932   1.772 -22.705  0.00  0.00    +0.187 C 
ATOM      9  C   UNL     1      -1.010   2.616 -24.141  0.00  0.00    +0.099 C 
ATOM     10  C   UNL     1      -2.039   3.267 -24.021  0.00  0.00    +0.068 C 
ENDROOT
BRANCH   8  11
ATOM     11  O   UNL     1      -0.006   0.954 -22.389  0.00  0.00    -0.457 OA
BRANCH  11  12
ATOM     12  C   UNL     1       1.000   1.416 -21.703  0.00  0.00    +0.339 C 
ATOM     13  O   UNL     1       0.919   1.535 -20.349  0.00  0.00    -0.245 OA
BRANCH  12  14
ATOM     14  C   UNL     1       2.065   1.753 -22.340  0.00  0.00    +0.059 A 
ATOM     15  C   UNL     1       2.946   0.809 -22.774  0.00  0.00    +0.015 A 
ATOM     16  C   UNL     1       4.064   1.186 -23.444  0.00  0.00    +0.001 A 
ATOM     17  C   UNL     1       4.308   2.500 -23.683  0.00  0.00    +0.000 A 
ATOM     18  C   UNL     1       3.427   3.443 -23.248  0.00  0.00    +0.001 A 
ATOM     19  C   UNL     1       2.308   3.067 -22.578  0.00  0.00    +0.015 A 
ENDBRANCH  12  14
ENDBRANCH  11  12
ENDBRANCH   8  11
TORSDOF 3
ENDMDL
MODEL 7
REMARK VINA RESULT:    -7.343      2.256      6.049
REMARK INTER + INTRA:          -8.884
REMARK INTER:                  -8.799
REMARK INTRA:                  -0.085
REMARK UNBOUND:                -0.253
REMARK  Name = CN1[C@H]2CC[C@@H]1C[C@@H](OC(=O)c1ccccc1)C2                          ZINC000100392399
REMARK  4 active torsions:
REMARK  status: ('A' for Active; 'I' for Inactive)
REMARK    1  A    between atoms: C_1  and  N_2
REMARK    2  A    between atoms: C_8  and  O_9
REMARK    3  A    between atoms: O_9  and  C_10
REMARK    4  A    between atoms: C_10  and  C_12
REMARK                            x       y       z     vdW  Elec       q    Type
REMARK                         _______ _______ _______ _____ _____    ______ ____
ROOT
ATOM      1  C   UNL     1      -0.212   2.587 -22.650  0.00  0.00    +0.191 C 
ATOM      2  N   UNL     1      -0.796   2.874 -22.270  0.00  0.00    +0.238 N 
ATOM      3  H   UNL     1      -1.587   3.263 -21.757  0.00  0.00    +0.204 HD
ATOM      4  C   UNL     1      -0.942   3.823 -22.519  0.00  0.00    +0.068 C 
ATOM      5  C   UNL     1      -2.014   4.123 -21.734  0.00  0.00    +0.060 C 
ATOM      6  C   UNL     1      -2.199   2.904 -21.102  0.00  0.00    +0.060 C 
ATOM      7  C   UNL     1       0.000   3.783 -23.296  0.00  0.00    +0.099 C 
ATOM      8  C   UNL     1       0.547   2.215 -23.143  0.00  0.00    +0.187 C 
ATOM      9  C   UNL     1      -0.368   1.363 -22.040  0.00  0.00    +0.099 C 
ATOM     10  C   UNL     1      -1.191   2.189 -21.670  0.00  0.00    +0.068 C 
ENDROOT
BRANCH   8  11
ATOM     11  O   UNL     1       1.537   1.741 -23.790  0.00  0.00    -0.457 OA
BRANCH  11  12
ATOM     12  C   UNL     1       2.489   1.171 -23.107  0.00  0.00    +0.339 C 
ATOM     13  O   UNL     1       2.388  -0.134 -22.732  0.00  0.00    -0.245 OA
BRANCH  12  14
ATOM     14  C   UNL     1       3.520   1.875 -22.798  0.00  0.00    +0.059 A 
ATOM     15  C   UNL     1       4.173   1.675 -21.620  0.00  0.00    +0.015 A 
ATOM     16  C   UNL     1       5.259   2.430 -21.314  0.00  0.00    +0.001 A 
ATOM     17  C   UNL     1       5.696   3.382 -22.177  0.00  0.00    +0.000 A 
ATOM     18  C   UNL     1       5.042   3.581 -23.354  0.00  0.00    +0.001 A 
ATOM     19  C   UNL     1       3.956   2.827 -23.661  0.00  0.00    +0.015 A 
ENDBRANCH  12  14
ENDBRANCH  11  12
ENDBRANCH   8  11
TORSDOF 3
ENDMDL
MODEL 8
REMARK VINA RESULT:    -7.168      1.695      2.724
REMARK INTER + INTRA:          -8.679
REMARK INTER:                  -8.435
REMARK INTRA:                  -0.244
REMARK UNBOUND:                -0.253
REMARK  Name = CN1[C@H]2CC[C@@H]1C[C@@H](OC(=O)c1ccccc1)C2                          ZINC000100392399
REMARK  4 active torsions:
REMARK  status: ('A' for Active; 'I' for Inactive)
REMARK    1  A    between atoms: C_1  and  N_2
REMARK    2  A    between atoms: C_8  and  O_9
REMARK    3  A    between atoms: O_9  and  C_10
REMARK    4  A    between atoms: C_10  and  C_12
REMARK                            x       y       z     vdW  Elec       q    Type
REMARK                         _______ _______ _______ _____ _____    ______ ____
ROOT
ATOM      1  C   UNL     1       2.726   2.283 -22.360  0.00  0.00    +0.191 C 
ATOM      2  N   UNL     1       3.215   1.792 -22.061  0.00  0.00    +0.238 N 
ATOM      3  H   UNL     1       3.875   1.129 -21.657  0.00  0.00    +0.204 HD
ATOM      4  C   UNL     1       2.741   1.119 -21.508  0.00  0.00    +0.068 C 
ATOM      5  C   UNL     1       3.790   0.363 -21.084  0.00  0.00    +0.060 C 
ATOM      6  C   UNL     1       4.834   1.030 -21.704  0.00  0.00    +0.060 C 
ATOM      7  C   UNL     1       1.665   1.645 -21.760  0.00  0.00    +0.099 C 
ATOM      8  C   UNL     1       2.092   2.918 -22.747  0.00  0.00    +0.187 C 
ATOM      9  C   UNL     1       3.741   2.968 -22.989  0.00  0.00    +0.099 C 
ATOM     10  C   UNL     1       4.142   2.013 -22.339  0.00  0.00    +0.068 C 
ENDROOT
BRANCH   8  11
ATOM     11  O   UNL     1       1.256   3.742 -23.247  0.00  0.00    -0.457 OA
BRANCH  11  12
ATOM     12  C   UNL     1       0.596   3.365 -24.305  0.00  0.00    +0.339 C 
ATOM     13  O   UNL     1       1.246   2.830 -25.375  0.00  0.00    -0.245 OA
BRANCH  12  14
ATOM     14  C   UNL     1      -0.682   3.513 -24.307  0.00  0.00    +0.059 A 
ATOM     15  C   UNL     1      -1.369   3.654 -23.140  0.00  0.00    +0.015 A 
ATOM     16  C   UNL     1      -2.717   3.809 -23.164  0.00  0.00    +0.001 A 
ATOM     17  C   UNL     1      -3.383   3.823 -24.347  0.00  0.00    +0.000 A 
ATOM     18  C   UNL     1      -2.694   3.682 -25.514  0.00  0.00    +0.001 A 
ATOM     19  C   UNL     1      -1.347   3.527 -25.490  0.00  0.00    +0.015 A 
ENDBRANCH  12  14
ENDBRANCH  11  12
ENDBRANCH   8  11
TORSDOF 3
ENDMDL
MODEL 9
REMARK VINA RESULT:    -7.164      2.251      6.190
REMARK INTER + INTRA:          -8.674
REMARK INTER:                  -8.421
REMARK INTRA:                  -0.253
REMARK UNBOUND:                -0.253
REMARK  Name = CN1[C@H]2CC[C@@H]1C[C@@H](OC(=O)c1ccccc1)C2                          ZINC000100392399
REMARK  4 active torsions:
REMARK  status: ('A' for Active; 'I' for Inactive)
REMARK    1  A    between atoms: C_1  and  N_2
REMARK    2  A    between atoms: C_8  and  O_9
REMARK    3  A    between atoms: O_9  and  C_10
REMARK    4  A    between atoms: C_10  and  C_12
REMARK                            x       y       z     vdW  Elec       q    Type
REMARK                         _______ _______ _______ _____ _____    ______ ____
ROOT
ATOM      1  C   UNL     1      -0.321   3.065 -24.292  0.00  0.00    +0.191 C 
ATOM      2  N   UNL     1      -1.054   3.054 -24.470  0.00  0.00    +0.238 N 
ATOM      3  H   UNL     1      -2.045   3.040 -24.711  0.00  0.00    +0.204 HD
ATOM      4  C   UNL     1      -1.211   3.519 -25.331  0.00  0.00    +0.068 C 
ATOM      5  C   UNL     1      -2.560   3.379 -25.447  0.00  0.00    +0.060 C 
ATOM      6  C   UNL     1      -2.830   2.677 -24.284  0.00  0.00    +0.060 C 
ATOM      7  C   UNL     1      -0.017   3.762 -25.438  0.00  0.00    +0.099 C 
ATOM      8  C   UNL     1       0.629   3.079 -24.061  0.00  0.00    +0.187 C 
ATOM      9  C   UNL     1      -0.556   2.369 -23.128  0.00  0.00    +0.099 C 
ATOM     10  C   UNL     1      -1.575   2.578 -23.771  0.00  0.00    +0.068 C 
ENDROOT
BRANCH   8  11
ATOM     11  O   UNL     1       1.870   3.104 -23.770  0.00  0.00    -0.457 OA
BRANCH  11  12
ATOM     12  C   UNL     1       2.517   1.973 -23.788  0.00  0.00    +0.339 C 
ATOM     13  O   UNL     1       2.378   1.110 -24.832  0.00  0.00    -0.245 OA
BRANCH  12  14
ATOM     14  C   UNL     1       3.287   1.698 -22.794  0.00  0.00    +0.059 A 
ATOM     15  C   UNL     1       4.342   2.503 -22.487  0.00  0.00    +0.015 A 
ATOM     16  C   UNL     1       5.142   2.195 -21.435  0.00  0.00    +0.001 A 
ATOM     17  C   UNL     1       4.894   1.089 -20.688  0.00  0.00    +0.000 A 
ATOM     18  C   UNL     1       3.838   0.286 -20.995  0.00  0.00    +0.001 A 
ATOM     19  C   UNL     1       3.038   0.593 -22.047  0.00  0.00    +0.015 A 
ENDBRANCH  12  14
ENDBRANCH  11  12
ENDBRANCH   8  11
TORSDOF 3
ENDMDL
