MODEL 1
REMARK VINA RESULT:    -8.882      0.000      0.000
REMARK INTER + INTRA:         -10.218
REMARK INTER:                  -9.989
REMARK INTRA:                  -0.229
REMARK UNBOUND:                 0.221
REMARK  Name = ZINC000000402468
REMARK  5 active torsions:
REMARK  status: ('A' for Active; 'I' for Inactive)
REMARK    1  A    between atoms: C_1  and  C_2
REMARK    2  A    between atoms: C_2  and  C_3
REMARK    3  A    between atoms: C_2  and  C_4
REMARK    4  A    between atoms: C_4  and  C_5
REMARK    5  A    between atoms: C_5  and  C_6
REMARK                            x       y       z     vdW  Elec       q    Type
REMARK                         _______ _______ _______ _____ _____    ______ ____
ROOT
ATOM      1  C   UNL     1      -1.147   2.804 -23.494  0.00  0.00    -0.009 C 
ATOM      2  C   UNL     1      -1.671   3.382 -24.533  0.00  0.00    +0.228 C 
ATOM      3  C   UNL     1      -2.933   3.694 -24.536  0.00  0.00    +0.233 C 
ATOM      4  C   UNL     1      -3.671   3.427 -23.500  0.00  0.00    +0.032 A 
ATOM      5  C   UNL     1      -4.933   3.739 -23.503  0.00  0.00    +0.012 A 
ATOM      6  C   UNL     1      -5.671   3.473 -22.466  0.00  0.00    +0.001 A 
ATOM      7  C   UNL     1      -5.147   2.894 -21.426  0.00  0.00    +0.001 A 
ATOM      8  C   UNL     1      -3.885   2.582 -21.424  0.00  0.00    +0.007 A 
ATOM      9  C   UNL     1      -3.147   2.849 -22.460  0.00  0.00    -0.027 A 
ATOM     10  O   UNL     1      -3.457   4.273 -25.576  0.00  0.00    -0.283 OA
ATOM     11  O   UNL     1      -0.933   3.649 -25.570  0.00  0.00    -0.284 OA
ATOM     12  C   UNL     1      -1.885   2.537 -22.457  0.00  0.00    -0.126 C 
ATOM     13  O   UNL     1      -1.362   1.959 -21.417  0.00  0.00    -0.828 OA
ENDROOT
BRANCH   1  14
ATOM     14  C   UNL     1       0.115   2.492 -23.490  0.00  0.00    +0.038 C 
BRANCH  14  15
ATOM     15  C   UNL     1       0.967   3.233 -22.846  0.00  0.00    +0.008 C 
BRANCH  15  17
ATOM     16  C   UNL     1       2.858   3.181 -24.068  0.00  0.00    +0.007 C 
ATOM     17  C   UNL     1       1.906   3.856 -23.494  0.00  0.00    -0.017 C 
ATOM     18  C   UNL     1       1.894   5.154 -23.570  0.00  0.00    +0.007 C 
ENDBRANCH  15  17
ENDBRANCH  14  15
ENDBRANCH   1  14
TORSDOF 3
ENDMDL
MODEL 2
REMARK VINA RESULT:    -8.735      0.977      2.657
REMARK INTER + INTRA:         -10.046
REMARK INTER:                  -9.815
REMARK INTRA:                  -0.231
REMARK UNBOUND:                 0.221
REMARK  Name = ZINC000000402468
REMARK  5 active torsions:
REMARK  status: ('A' for Active; 'I' for Inactive)
REMARK    1  A    between atoms: C_1  and  C_2
REMARK    2  A    between atoms: C_2  and  C_3
REMARK    3  A    between atoms: C_2  and  C_4
REMARK    4  A    between atoms: C_4  and  C_5
REMARK    5  A    between atoms: C_5  and  C_6
REMARK                            x       y       z     vdW  Elec       q    Type
REMARK                         _______ _______ _______ _____ _____    ______ ____
ROOT
ATOM      1  C   UNL     1      -0.891   3.051 -23.908  0.00  0.00    -0.009 C 
ATOM      2  C   UNL     1      -1.089   2.778 -22.653  0.00  0.00    +0.228 C 
ATOM      3  C   UNL     1      -2.286   2.863 -22.150  0.00  0.00    +0.233 C 
ATOM      4  C   UNL     1      -3.283   3.221 -22.903  0.00  0.00    +0.032 A 
ATOM      5  C   UNL     1      -4.479   3.306 -22.400  0.00  0.00    +0.012 A 
ATOM      6  C   UNL     1      -5.477   3.664 -23.153  0.00  0.00    +0.001 A 
ATOM      7  C   UNL     1      -5.279   3.938 -24.408  0.00  0.00    +0.001 A 
ATOM      8  C   UNL     1      -4.082   3.853 -24.911  0.00  0.00    +0.007 A 
ATOM      9  C   UNL     1      -3.085   3.495 -24.158  0.00  0.00    -0.027 A 
ATOM     10  O   UNL     1      -2.484   2.589 -20.895  0.00  0.00    -0.283 OA
ATOM     11  O   UNL     1      -0.092   2.419 -21.901  0.00  0.00    -0.284 OA
ATOM     12  C   UNL     1      -1.890   3.410 -24.661  0.00  0.00    -0.126 C 
ATOM     13  O   UNL     1      -1.691   3.684 -25.916  0.00  0.00    -0.828 OA
ENDROOT
BRANCH   1  14
ATOM     14  C   UNL     1       0.304   2.967 -24.412  0.00  0.00    +0.038 C 
BRANCH  14  15
ATOM     15  C   UNL     1       1.009   4.043 -24.600  0.00  0.00    +0.008 C 
BRANCH  15  17
ATOM     16  C   UNL     1       2.283   5.349 -23.281  0.00  0.00    +0.007 C 
ATOM     17  C   UNL     1       2.100   4.232 -23.919  0.00  0.00    -0.017 C 
ATOM     18  C   UNL     1       3.010   3.303 -23.877  0.00  0.00    +0.007 C 
ENDBRANCH  15  17
ENDBRANCH  14  15
ENDBRANCH   1  14
TORSDOF 3
ENDMDL
MODEL 3
REMARK VINA RESULT:    -8.607      1.788      6.149
REMARK INTER + INTRA:          -9.895
REMARK INTER:                  -9.671
REMARK INTRA:                  -0.224
REMARK UNBOUND:                 0.221
REMARK  Name = ZINC000000402468
REMARK  5 active torsions:
REMARK  status: ('A' for Active; 'I' for Inactive)
REMARK    1  A    between atoms: C_1  and  C_2
REMARK    2  A    between atoms: C_2  and  C_3
REMARK    3  A    between atoms: C_2  and  C_4
REMARK    4  A    between atoms: C_4  and  C_5
REMARK    5  A    between atoms: C_5  and  C_6
REMARK                            x       y       z     vdW  Elec       q    Type
REMARK                         _______ _______ _______ _____ _____    ______ ____
ROOT
ATOM      1  C   UNL     1      -0.019   3.170 -22.914  0.00  0.00    -0.009 C 
ATOM      2  C   UNL     1       0.371   2.012 -22.470  0.00  0.00    +0.228 C 
ATOM      3  C   UNL     1       1.639   1.767 -22.318  0.00  0.00    +0.233 C 
ATOM      4  C   UNL     1       2.517   2.680 -22.609  0.00  0.00    +0.032 A 
ATOM      5  C   UNL     1       3.784   2.436 -22.456  0.00  0.00    +0.012 A 
ATOM      6  C   UNL     1       4.663   3.349 -22.748  0.00  0.00    +0.001 A 
ATOM      7  C   UNL     1       4.273   4.508 -23.191  0.00  0.00    +0.001 A 
ATOM      8  C   UNL     1       3.005   4.752 -23.344  0.00  0.00    +0.007 A 
ATOM      9  C   UNL     1       2.127   3.839 -23.053  0.00  0.00    -0.027 A 
ATOM     10  O   UNL     1       2.029   0.609 -21.874  0.00  0.00    -0.283 OA
ATOM     11  O   UNL     1      -0.507   1.098 -22.179  0.00  0.00    -0.284 OA
ATOM     12  C   UNL     1       0.860   4.083 -23.205  0.00  0.00    -0.126 C 
ATOM     13  O   UNL     1       0.471   5.241 -23.649  0.00  0.00    -0.828 OA
ENDROOT
BRANCH   1  14
ATOM     14  C   UNL     1      -1.286   3.415 -23.067  0.00  0.00    +0.038 C 
BRANCH  14  15
ATOM     15  C   UNL     1      -1.927   4.109 -22.174  0.00  0.00    +0.008 C 
BRANCH  15  17
ATOM     16  C   UNL     1      -3.037   3.697 -20.259  0.00  0.00    +0.007 C 
ATOM     17  C   UNL     1      -2.942   3.588 -21.551  0.00  0.00    -0.017 C 
ATOM     18  C   UNL     1      -3.861   2.956 -22.220  0.00  0.00    +0.007 C 
ENDBRANCH  15  17
ENDBRANCH  14  15
ENDBRANCH   1  14
TORSDOF 3
ENDMDL
MODEL 4
REMARK VINA RESULT:    -8.539      1.599      5.508
REMARK INTER + INTRA:          -9.815
REMARK INTER:                  -9.641
REMARK INTRA:                  -0.174
REMARK UNBOUND:                 0.221
REMARK  Name = ZINC000000402468
REMARK  5 active torsions:
REMARK  status: ('A' for Active; 'I' for Inactive)
REMARK    1  A    between atoms: C_1  and  C_2
REMARK    2  A    between atoms: C_2  and  C_3
REMARK    3  A    between atoms: C_2  and  C_4
REMARK    4  A    between atoms: C_4  and  C_5
REMARK    5  A    between atoms: C_5  and  C_6
REMARK                            x       y       z     vdW  Elec       q    Type
REMARK                         _______ _______ _______ _____ _____    ______ ____
ROOT
ATOM      1  C   UNL     1      -0.830   3.366 -22.338  0.00  0.00    -0.009 C 
ATOM      2  C   UNL     1      -0.312   4.350 -23.012  0.00  0.00    +0.228 C 
ATOM      3  C   UNL     1       0.906   4.262 -23.459  0.00  0.00    +0.233 C 
ATOM      4  C   UNL     1       1.606   3.190 -23.232  0.00  0.00    +0.032 A 
ATOM      5  C   UNL     1       2.823   3.103 -23.679  0.00  0.00    +0.012 A 
ATOM      6  C   UNL     1       3.524   2.031 -23.452  0.00  0.00    +0.001 A 
ATOM      7  C   UNL     1       3.006   1.047 -22.779  0.00  0.00    +0.001 A 
ATOM      8  C   UNL     1       1.788   1.135 -22.332  0.00  0.00    +0.007 A 
ATOM      9  C   UNL     1       1.088   2.206 -22.558  0.00  0.00    -0.027 A 
ATOM     10  O   UNL     1       1.423   5.246 -24.132  0.00  0.00    -0.283 OA
ATOM     11  O   UNL     1      -1.012   5.421 -23.239  0.00  0.00    -0.284 OA
ATOM     12  C   UNL     1      -0.129   2.294 -22.112  0.00  0.00    -0.126 C 
ATOM     13  O   UNL     1      -0.647   1.309 -21.438  0.00  0.00    -0.828 OA
ENDROOT
BRANCH   1  14
ATOM     14  C   UNL     1      -2.047   3.452 -21.891  0.00  0.00    +0.038 C 
BRANCH  14  15
ATOM     15  C   UNL     1      -3.043   3.077 -22.638  0.00  0.00    +0.008 C 
BRANCH  15  17
ATOM     16  C   UNL     1      -4.442   2.389 -21.014  0.00  0.00    +0.007 C 
ATOM     17  C   UNL     1      -4.241   3.010 -22.138  0.00  0.00    -0.017 C 
ATOM     18  C   UNL     1      -5.239   3.564 -22.763  0.00  0.00    +0.007 C 
ENDBRANCH  15  17
ENDBRANCH  14  15
ENDBRANCH   1  14
TORSDOF 3
ENDMDL
MODEL 5
REMARK VINA RESULT:    -8.116      1.916      5.725
REMARK INTER + INTRA:          -9.318
REMARK INTER:                  -9.084
REMARK INTRA:                  -0.234
REMARK UNBOUND:                 0.221
REMARK  Name = ZINC000000402468
REMARK  5 active torsions:
REMARK  status: ('A' for Active; 'I' for Inactive)
REMARK    1  A    between atoms: C_1  and  C_2
REMARK    2  A    between atoms: C_2  and  C_3
REMARK    3  A    between atoms: C_2  and  C_4
REMARK    4  A    between atoms: C_4  and  C_5
REMARK    5  A    between atoms: C_5  and  C_6
REMARK                            x       y       z     vdW  Elec       q    Type
REMARK                         _______ _______ _______ _____ _____    ______ ____
ROOT
ATOM      1  C   UNL     1      -0.884   3.134 -23.114  0.00  0.00    -0.009 C 
ATOM      2  C   UNL     1      -0.816   2.338 -22.088  0.00  0.00    +0.228 C 
ATOM      3  C   UNL     1       0.340   1.911 -21.671  0.00  0.00    +0.233 C 
ATOM      4  C   UNL     1       1.427   2.282 -22.279  0.00  0.00    +0.032 A 
ATOM      5  C   UNL     1       2.582   1.856 -21.862  0.00  0.00    +0.012 A 
ATOM      6  C   UNL     1       3.670   2.226 -22.471  0.00  0.00    +0.001 A 
ATOM      7  C   UNL     1       3.603   3.022 -23.496  0.00  0.00    +0.001 A 
ATOM      8  C   UNL     1       2.447   3.449 -23.913  0.00  0.00    +0.007 A 
ATOM      9  C   UNL     1       1.359   3.078 -23.305  0.00  0.00    -0.027 A 
ATOM     10  O   UNL     1       0.407   1.115 -20.646  0.00  0.00    -0.283 OA
ATOM     11  O   UNL     1      -1.904   1.967 -21.480  0.00  0.00    -0.284 OA
ATOM     12  C   UNL     1       0.205   3.504 -23.722  0.00  0.00    -0.126 C 
ATOM     13  O   UNL     1       0.137   4.301 -24.747  0.00  0.00    -0.828 OA
ENDROOT
BRANCH   1  14
ATOM     14  C   UNL     1      -2.039   3.561 -23.531  0.00  0.00    +0.038 C 
BRANCH  14  15
ATOM     15  C   UNL     1      -2.662   2.927 -24.480  0.00  0.00    +0.008 C 
BRANCH  15  17
ATOM     16  C   UNL     1      -3.019   3.472 -26.635  0.00  0.00    +0.007 C 
ATOM     17  C   UNL     1      -3.327   3.591 -25.377  0.00  0.00    -0.017 C 
ATOM     18  C   UNL     1      -4.301   4.375 -25.018  0.00  0.00    +0.007 C 
ENDBRANCH  15  17
ENDBRANCH  14  15
ENDBRANCH   1  14
TORSDOF 3
ENDMDL
MODEL 6
REMARK VINA RESULT:    -7.899      1.825      3.742
REMARK INTER + INTRA:          -9.063
REMARK INTER:                  -8.849
REMARK INTRA:                  -0.214
REMARK UNBOUND:                 0.221
REMARK  Name = ZINC000000402468
REMARK  5 active torsions:
REMARK  status: ('A' for Active; 'I' for Inactive)
REMARK    1  A    between atoms: C_1  and  C_2
REMARK    2  A    between atoms: C_2  and  C_3
REMARK    3  A    between atoms: C_2  and  C_4
REMARK    4  A    between atoms: C_4  and  C_5
REMARK    5  A    between atoms: C_5  and  C_6
REMARK                            x       y       z     vdW  Elec       q    Type
REMARK                         _______ _______ _______ _____ _____    ______ ____
ROOT
ATOM      1  C   UNL     1       1.539   3.099 -23.235  0.00  0.00    -0.009 C 
ATOM      2  C   UNL     1       1.437   2.240 -22.265  0.00  0.00    +0.228 C 
ATOM      3  C   UNL     1       0.270   1.963 -21.761  0.00  0.00    +0.233 C 
ATOM      4  C   UNL     1      -0.794   2.546 -22.229  0.00  0.00    +0.032 A 
ATOM      5  C   UNL     1      -1.960   2.269 -21.726  0.00  0.00    +0.012 A 
ATOM      6  C   UNL     1      -3.025   2.851 -22.193  0.00  0.00    +0.001 A 
ATOM      7  C   UNL     1      -2.923   3.710 -23.164  0.00  0.00    +0.001 A 
ATOM      8  C   UNL     1      -1.756   3.986 -23.667  0.00  0.00    +0.007 A 
ATOM      9  C   UNL     1      -0.692   3.404 -23.200  0.00  0.00    -0.027 A 
ATOM     10  O   UNL     1       0.168   1.105 -20.791  0.00  0.00    -0.283 OA
ATOM     11  O   UNL     1       2.501   1.658 -21.797  0.00  0.00    -0.284 OA
ATOM     12  C   UNL     1       0.474   3.681 -23.703  0.00  0.00    -0.126 C 
ATOM     13  O   UNL     1       0.576   4.539 -24.674  0.00  0.00    -0.828 OA
ENDROOT
BRANCH   1  14
ATOM     14  C   UNL     1       2.705   3.376 -23.739  0.00  0.00    +0.038 C 
BRANCH  14  15
ATOM     15  C   UNL     1       3.439   4.307 -23.207  0.00  0.00    +0.008 C 
BRANCH  15  17
ATOM     16  C   UNL     1       5.278   3.044 -23.513  0.00  0.00    +0.007 C 
ATOM     17  C   UNL     1       4.731   4.170 -23.162  0.00  0.00    -0.017 C 
ATOM     18  C   UNL     1       5.477   5.160 -22.767  0.00  0.00    +0.007 C 
ENDBRANCH  15  17
ENDBRANCH  14  15
ENDBRANCH   1  14
TORSDOF 3
ENDMDL
MODEL 7
REMARK VINA RESULT:    -7.647      2.014      2.942
REMARK INTER + INTRA:          -8.767
REMARK INTER:                  -8.570
REMARK INTRA:                  -0.197
REMARK UNBOUND:                 0.221
REMARK  Name = ZINC000000402468
REMARK  5 active torsions:
REMARK  status: ('A' for Active; 'I' for Inactive)
REMARK    1  A    between atoms: C_1  and  C_2
REMARK    2  A    between atoms: C_2  and  C_3
REMARK    3  A    between atoms: C_2  and  C_4
REMARK    4  A    between atoms: C_4  and  C_5
REMARK    5  A    between atoms: C_5  and  C_6
REMARK                            x       y       z     vdW  Elec       q    Type
REMARK                         _______ _______ _______ _____ _____    ______ ____
ROOT
ATOM      1  C   UNL     1       1.328   2.801 -22.903  0.00  0.00    -0.009 C 
ATOM      2  C   UNL     1       1.037   3.997 -23.321  0.00  0.00    +0.228 C 
ATOM      3  C   UNL     1      -0.161   4.472 -23.149  0.00  0.00    +0.233 C 
ATOM      4  C   UNL     1      -1.068   3.752 -22.559  0.00  0.00    +0.032 A 
ATOM      5  C   UNL     1      -2.265   4.227 -22.388  0.00  0.00    +0.012 A 
ATOM      6  C   UNL     1      -3.173   3.506 -21.797  0.00  0.00    +0.001 A 
ATOM      7  C   UNL     1      -2.882   2.310 -21.379  0.00  0.00    +0.001 A 
ATOM      8  C   UNL     1      -1.684   1.835 -21.551  0.00  0.00    +0.007 A 
ATOM      9  C   UNL     1      -0.777   2.556 -22.141  0.00  0.00    -0.027 A 
ATOM     10  O   UNL     1      -0.452   5.668 -23.567  0.00  0.00    -0.283 OA
ATOM     11  O   UNL     1       1.944   4.718 -23.911  0.00  0.00    -0.284 OA
ATOM     12  C   UNL     1       0.420   2.080 -22.313  0.00  0.00    -0.126 C 
ATOM     13  O   UNL     1       0.711   0.884 -21.894  0.00  0.00    -0.828 OA
ENDROOT
BRANCH   1  14
ATOM     14  C   UNL     1       2.525   2.325 -23.074  0.00  0.00    +0.038 C 
BRANCH  14  15
ATOM     15  C   UNL     1       3.397   2.394 -22.112  0.00  0.00    +0.008 C 
BRANCH  15  17
ATOM     16  C   UNL     1       5.547   2.527 -21.456  0.00  0.00    +0.007 C 
ATOM     17  C   UNL     1       4.641   2.659 -22.379  0.00  0.00    -0.017 C 
ATOM     18  C   UNL     1       4.980   3.056 -23.571  0.00  0.00    +0.007 C 
ENDBRANCH  15  17
ENDBRANCH  14  15
ENDBRANCH   1  14
TORSDOF 3
ENDMDL
MODEL 8
REMARK VINA RESULT:    -7.085      3.020      5.130
REMARK INTER + INTRA:          -8.107
REMARK INTER:                  -7.885
REMARK INTRA:                  -0.222
REMARK UNBOUND:                 0.221
REMARK  Name = ZINC000000402468
REMARK  5 active torsions:
REMARK  status: ('A' for Active; 'I' for Inactive)
REMARK    1  A    between atoms: C_1  and  C_2
REMARK    2  A    between atoms: C_2  and  C_3
REMARK    3  A    between atoms: C_2  and  C_4
REMARK    4  A    between atoms: C_4  and  C_5
REMARK    5  A    between atoms: C_5  and  C_6
REMARK                            x       y       z     vdW  Elec       q    Type
REMARK                         _______ _______ _______ _____ _____    ______ ____
ROOT
ATOM      1  C   UNL     1       3.406   3.534 -23.150  0.00  0.00    -0.009 C 
ATOM      2  C   UNL     1       3.087   2.283 -22.999  0.00  0.00    +0.228 C 
ATOM      3  C   UNL     1       1.836   1.935 -22.925  0.00  0.00    +0.233 C 
ATOM      4  C   UNL     1       0.905   2.839 -23.002  0.00  0.00    +0.032 A 
ATOM      5  C   UNL     1      -0.345   2.491 -22.928  0.00  0.00    +0.012 A 
ATOM      6  C   UNL     1      -1.278   3.394 -23.006  0.00  0.00    +0.001 A 
ATOM      7  C   UNL     1      -0.959   4.646 -23.157  0.00  0.00    +0.001 A 
ATOM      8  C   UNL     1       0.292   4.993 -23.231  0.00  0.00    +0.007 A 
ATOM      9  C   UNL     1       1.223   4.090 -23.153  0.00  0.00    -0.027 A 
ATOM     10  O   UNL     1       1.518   0.684 -22.774  0.00  0.00    -0.283 OA
ATOM     11  O   UNL     1       4.019   1.380 -22.921  0.00  0.00    -0.284 OA
ATOM     12  C   UNL     1       2.474   4.438 -23.227  0.00  0.00    -0.126 C 
ATOM     13  O   UNL     1       2.792   5.689 -23.379  0.00  0.00    -0.828 OA
ENDROOT
BRANCH   1  14
ATOM     14  C   UNL     1       4.656   3.883 -23.224  0.00  0.00    +0.038 C 
BRANCH  14  15
ATOM     15  C   UNL     1       5.302   4.221 -22.148  0.00  0.00    +0.008 C 
BRANCH  15  17
ATOM     16  C   UNL     1       7.121   3.118 -22.884  0.00  0.00    +0.007 C 
ATOM     17  C   UNL     1       6.553   3.897 -22.012  0.00  0.00    -0.017 C 
ATOM     18  C   UNL     1       7.237   4.352 -21.003  0.00  0.00    +0.007 C 
ENDBRANCH  15  17
ENDBRANCH  14  15
ENDBRANCH   1  14
TORSDOF 3
ENDMDL
MODEL 9
REMARK VINA RESULT:    -6.613      2.864      4.646
REMARK INTER + INTRA:          -7.552
REMARK INTER:                  -7.773
REMARK INTRA:                   0.221
REMARK UNBOUND:                 0.221
REMARK  Name = ZINC000000402468
REMARK  5 active torsions:
REMARK  status: ('A' for Active; 'I' for Inactive)
REMARK    1  A    between atoms: C_1  and  C_2
REMARK    2  A    between atoms: C_2  and  C_3
REMARK    3  A    between atoms: C_2  and  C_4
REMARK    4  A    between atoms: C_4  and  C_5
REMARK    5  A    between atoms: C_5  and  C_6
REMARK                            x       y       z     vdW  Elec       q    Type
REMARK                         _______ _______ _______ _____ _____    ______ ____
ROOT
ATOM      1  C   UNL     1       3.231   2.878 -22.300  0.00  0.00    -0.009 C 
ATOM      2  C   UNL     1       2.920   3.932 -22.994  0.00  0.00    +0.228 C 
ATOM      3  C   UNL     1       1.685   4.135 -23.348  0.00  0.00    +0.233 C 
ATOM      4  C   UNL     1       0.763   3.285 -23.009  0.00  0.00    +0.032 A 
ATOM      5  C   UNL     1      -0.471   3.488 -23.363  0.00  0.00    +0.012 A 
ATOM      6  C   UNL     1      -1.394   2.637 -23.023  0.00  0.00    +0.001 A 
ATOM      7  C   UNL     1      -1.083   1.583 -22.329  0.00  0.00    +0.001 A 
ATOM      8  C   UNL     1       0.152   1.380 -21.975  0.00  0.00    +0.007 A 
ATOM      9  C   UNL     1       1.074   2.231 -22.314  0.00  0.00    -0.027 A 
ATOM     10  O   UNL     1       1.373   5.190 -24.042  0.00  0.00    -0.283 OA
ATOM     11  O   UNL     1       3.842   4.783 -23.333  0.00  0.00    -0.284 OA
ATOM     12  C   UNL     1       2.308   2.027 -21.960  0.00  0.00    -0.126 C 
ATOM     13  O   UNL     1       2.619   0.973 -21.266  0.00  0.00    -0.828 OA
ENDROOT
BRANCH   1  14
ATOM     14  C   UNL     1       4.465   2.673 -21.945  0.00  0.00    +0.038 C 
BRANCH  14  15
ATOM     15  C   UNL     1       5.396   2.584 -22.848  0.00  0.00    +0.008 C 
BRANCH  15  17
ATOM     16  C   UNL     1       7.446   3.145 -23.591  0.00  0.00    +0.007 C 
ATOM     17  C   UNL     1       6.554   3.138 -22.645  0.00  0.00    -0.017 C 
ATOM     18  C   UNL     1       6.820   3.685 -21.496  0.00  0.00    +0.007 C 
ENDBRANCH  15  17
ENDBRANCH  14  15
ENDBRANCH   1  14
TORSDOF 3
ENDMDL
