MODEL 1
REMARK VINA RESULT:    -8.473      0.000      0.000
REMARK INTER + INTRA:         -11.565
REMARK INTER:                 -12.118
REMARK INTRA:                   0.553
REMARK UNBOUND:                 0.871
REMARK  Name = ZINC000002585423
REMARK  15 active torsions:
REMARK  status: ('A' for Active; 'I' for Inactive)
REMARK    1  A    between atoms: C_1  and  O_2
REMARK    2  A    between atoms: O_2  and  C_3
REMARK    3  A    between atoms: C_5  and  C_6
REMARK    4  A    between atoms: C_9  and  O_10
REMARK    5  A    between atoms: O_10  and  C_11
REMARK    6  A    between atoms: C_12  and  O_13
REMARK    7  A    between atoms: O_13  and  C_14
REMARK    8  A    between atoms: C_16  and  O_17
REMARK    9  A    between atoms: O_17  and  C_18
REMARK   10  A    between atoms: C_22  and  O_23
REMARK   11  A    between atoms: O_23  and  C_24
REMARK   12  A    between atoms: C_26  and  O_27
REMARK   13  A    between atoms: O_27  and  C_28
REMARK   14  A    between atoms: C_29  and  O_30
REMARK   15  A    between atoms: O_30  and  C_31
REMARK                            x       y       z     vdW  Elec       q    Type
REMARK                         _______ _______ _______ _____ _____    ______ ____
ROOT
ATOM      1  C   UNL     1       0.411   3.289 -23.416  0.00  0.00    +0.181 A 
ATOM      2  O   UNL     1      -0.533   3.189 -22.529  0.00  0.00    -0.447 OA
ATOM      3  C   UNL     1      -1.779   3.222 -22.899  0.00  0.00    +0.188 A 
ATOM      4  C   UNL     1      -2.724   3.122 -22.012  0.00  0.00    +0.205 A 
ATOM      5  C   UNL     1      -3.970   3.154 -22.383  0.00  0.00    +0.169 A 
ATOM      6  C   UNL     1      -4.271   3.286 -23.641  0.00  0.00    +0.096 A 
ATOM      7  C   UNL     1      -3.326   3.386 -24.528  0.00  0.00    +0.138 A 
ATOM      8  C   UNL     1      -2.080   3.353 -24.157  0.00  0.00    +0.113 A 
ATOM      9  C   UNL     1      -1.135   3.453 -25.044  0.00  0.00    +0.238 A 
ATOM     10  O   UNL     1      -1.436   3.585 -26.302  0.00  0.00    -0.283 OA
ATOM     11  C   UNL     1       0.110   3.420 -24.673  0.00  0.00    +0.211 A 
ENDROOT
BRANCH   1  14
ATOM     12  C   UNL     1       3.440   2.103 -22.297  0.00  0.00    +0.166 A 
ATOM     13  C   UNL     1       2.194   2.135 -22.666  0.00  0.00    +0.061 A 
ATOM     14  C   UNL     1       1.656   3.256 -23.046  0.00  0.00    +0.028 A 
ATOM     15  C   UNL     1       2.365   4.346 -23.055  0.00  0.00    +0.061 A 
ATOM     16  C   UNL     1       3.611   4.314 -22.685  0.00  0.00    +0.166 A 
ATOM     17  C   UNL     1       4.148   3.193 -22.306  0.00  0.00    +0.204 A 
BRANCH  16  18
ATOM     18  O   UNL     1       4.320   5.404 -22.694  0.00  0.00    -0.491 OA
ATOM     19  C   UNL     1       3.753   6.550 -22.461  0.00  0.00    +0.277 C 
ENDBRANCH  16  18
BRANCH  12  21
ATOM     20  C   UNL     1       3.672   0.474 -20.760  0.00  0.00    +0.277 C 
ATOM     21  O   UNL     1       3.977   0.982 -21.917  0.00  0.00    -0.491 OA
ENDBRANCH  12  21
BRANCH  17  22
ATOM     22  O   UNL     1       5.394   3.162 -21.936  0.00  0.00    -0.488 OA
ATOM     23  C   UNL     1       6.334   3.033 -22.826  0.00  0.00    +0.277 C 
ENDBRANCH  17  22
ENDBRANCH   1  14
BRANCH   7  24
ATOM     24  O   UNL     1      -3.627   3.517 -25.786  0.00  0.00    -0.494 OA
ATOM     25  C   UNL     1      -4.711   2.974 -26.255  0.00  0.00    +0.277 C 
ENDBRANCH   7  24
BRANCH   5  26
ATOM     26  O   UNL     1      -4.914   3.055 -21.496  0.00  0.00    -0.491 OA
ATOM     27  C   UNL     1      -6.151   2.917 -21.875  0.00  0.00    +0.277 C 
ENDBRANCH   5  26
BRANCH   4  28
ATOM     28  O   UNL     1      -2.424   2.990 -20.754  0.00  0.00    -0.488 OA
ATOM     29  C   UNL     1      -2.887   3.837 -19.883  0.00  0.00    +0.277 C 
ENDBRANCH   4  28
BRANCH  11  30
ATOM     30  O   UNL     1       1.055   3.520 -25.561  0.00  0.00    -0.488 OA
ATOM     31  C   UNL     1       1.625   2.449 -26.029  0.00  0.00    +0.277 C 
ENDBRANCH  11  30
TORSDOF 8
ENDMDL
MODEL 2
REMARK VINA RESULT:    -8.458      0.083      2.127
REMARK INTER + INTRA:         -11.543
REMARK INTER:                 -12.152
REMARK INTRA:                   0.609
REMARK UNBOUND:                 0.871
REMARK  Name = ZINC000002585423
REMARK  15 active torsions:
REMARK  status: ('A' for Active; 'I' for Inactive)
REMARK    1  A    between atoms: C_1  and  O_2
REMARK    2  A    between atoms: O_2  and  C_3
REMARK    3  A    between atoms: C_5  and  C_6
REMARK    4  A    between atoms: C_9  and  O_10
REMARK    5  A    between atoms: O_10  and  C_11
REMARK    6  A    between atoms: C_12  and  O_13
REMARK    7  A    between atoms: O_13  and  C_14
REMARK    8  A    between atoms: C_16  and  O_17
REMARK    9  A    between atoms: O_17  and  C_18
REMARK   10  A    between atoms: C_22  and  O_23
REMARK   11  A    between atoms: O_23  and  C_24
REMARK   12  A    between atoms: C_26  and  O_27
REMARK   13  A    between atoms: O_27  and  C_28
REMARK   14  A    between atoms: C_29  and  O_30
REMARK   15  A    between atoms: O_30  and  C_31
REMARK                            x       y       z     vdW  Elec       q    Type
REMARK                         _______ _______ _______ _____ _____    ______ ____
ROOT
ATOM      1  C   UNL     1       0.377   3.220 -23.409  0.00  0.00    +0.181 A 
ATOM      2  O   UNL     1      -0.573   3.127 -22.527  0.00  0.00    -0.447 OA
ATOM      3  C   UNL     1      -1.816   3.171 -22.905  0.00  0.00    +0.188 A 
ATOM      4  C   UNL     1      -2.767   3.079 -22.023  0.00  0.00    +0.205 A 
ATOM      5  C   UNL     1      -4.010   3.123 -22.400  0.00  0.00    +0.169 A 
ATOM      6  C   UNL     1      -4.303   3.259 -23.659  0.00  0.00    +0.096 A 
ATOM      7  C   UNL     1      -3.353   3.351 -24.541  0.00  0.00    +0.138 A 
ATOM      8  C   UNL     1      -2.109   3.307 -24.164  0.00  0.00    +0.113 A 
ATOM      9  C   UNL     1      -1.159   3.400 -25.046  0.00  0.00    +0.238 A 
ATOM     10  O   UNL     1      -1.451   3.536 -26.305  0.00  0.00    -0.283 OA
ATOM     11  C   UNL     1       0.084   3.356 -24.668  0.00  0.00    +0.211 A 
ENDROOT
BRANCH   1  14
ATOM     12  C   UNL     1       3.583   4.214 -22.659  0.00  0.00    +0.166 A 
ATOM     13  C   UNL     1       2.340   4.259 -23.036  0.00  0.00    +0.061 A 
ATOM     14  C   UNL     1       1.620   3.176 -23.033  0.00  0.00    +0.028 A 
ATOM     15  C   UNL     1       2.144   2.049 -22.652  0.00  0.00    +0.061 A 
ATOM     16  C   UNL     1       3.388   2.004 -22.275  0.00  0.00    +0.166 A 
ATOM     17  C   UNL     1       4.107   3.087 -22.279  0.00  0.00    +0.204 A 
BRANCH  16  18
ATOM     18  O   UNL     1       3.912   0.877 -21.895  0.00  0.00    -0.491 OA
ATOM     19  C   UNL     1       3.696   0.433 -20.692  0.00  0.00    +0.277 C 
ENDBRANCH  16  18
BRANCH  12  21
ATOM     20  C   UNL     1       3.737   6.454 -22.480  0.00  0.00    +0.277 C 
ATOM     21  O   UNL     1       4.302   5.297 -22.663  0.00  0.00    -0.491 OA
ENDBRANCH  12  21
BRANCH  17  22
ATOM     22  O   UNL     1       5.350   3.042 -21.902  0.00  0.00    -0.488 OA
ATOM     23  C   UNL     1       6.295   2.935 -22.789  0.00  0.00    +0.277 C 
ENDBRANCH  17  22
ENDBRANCH   1  14
BRANCH   7  24
ATOM     24  O   UNL     1      -3.646   3.487 -25.800  0.00  0.00    -0.494 OA
ATOM     25  C   UNL     1      -4.745   2.977 -26.271  0.00  0.00    +0.277 C 
ENDBRANCH   7  24
BRANCH   5  26
ATOM     26  O   UNL     1      -4.961   3.031 -21.518  0.00  0.00    -0.491 OA
ATOM     27  C   UNL     1      -6.200   2.949 -21.904  0.00  0.00    +0.277 C 
ENDBRANCH   5  26
BRANCH   4  28
ATOM     28  O   UNL     1      -2.475   2.943 -20.763  0.00  0.00    -0.488 OA
ATOM     29  C   UNL     1      -2.934   3.793 -19.894  0.00  0.00    +0.277 C 
ENDBRANCH   4  28
BRANCH  11  30
ATOM     30  O   UNL     1       1.034   3.448 -25.551  0.00  0.00    -0.488 OA
ATOM     31  C   UNL     1       1.608   2.374 -26.005  0.00  0.00    +0.277 C 
ENDBRANCH  11  30
TORSDOF 8
ENDMDL
MODEL 3
REMARK VINA RESULT:    -8.029      1.473      7.509
REMARK INTER + INTRA:         -10.913
REMARK INTER:                 -11.514
REMARK INTRA:                   0.601
REMARK UNBOUND:                 0.871
REMARK  Name = ZINC000002585423
REMARK  15 active torsions:
REMARK  status: ('A' for Active; 'I' for Inactive)
REMARK    1  A    between atoms: C_1  and  O_2
REMARK    2  A    between atoms: O_2  and  C_3
REMARK    3  A    between atoms: C_5  and  C_6
REMARK    4  A    between atoms: C_9  and  O_10
REMARK    5  A    between atoms: O_10  and  C_11
REMARK    6  A    between atoms: C_12  and  O_13
REMARK    7  A    between atoms: O_13  and  C_14
REMARK    8  A    between atoms: C_16  and  O_17
REMARK    9  A    between atoms: O_17  and  C_18
REMARK   10  A    between atoms: C_22  and  O_23
REMARK   11  A    between atoms: O_23  and  C_24
REMARK   12  A    between atoms: C_26  and  O_27
REMARK   13  A    between atoms: O_27  and  C_28
REMARK   14  A    between atoms: C_29  and  O_30
REMARK   15  A    between atoms: O_30  and  C_31
REMARK                            x       y       z     vdW  Elec       q    Type
REMARK                         _______ _______ _______ _____ _____    ______ ____
ROOT
ATOM      1  C   UNL     1       0.373   2.900 -22.897  0.00  0.00    +0.181 A 
ATOM      2  O   UNL     1       1.283   3.810 -23.080  0.00  0.00    -0.447 OA
ATOM      3  C   UNL     1       2.541   3.494 -23.008  0.00  0.00    +0.188 A 
ATOM      4  C   UNL     1       3.452   4.404 -23.192  0.00  0.00    +0.205 A 
ATOM      5  C   UNL     1       4.711   4.087 -23.120  0.00  0.00    +0.169 A 
ATOM      6  C   UNL     1       5.060   2.861 -22.865  0.00  0.00    +0.096 A 
ATOM      7  C   UNL     1       4.150   1.952 -22.682  0.00  0.00    +0.138 A 
ATOM      8  C   UNL     1       2.890   2.268 -22.754  0.00  0.00    +0.113 A 
ATOM      9  C   UNL     1       1.980   1.358 -22.570  0.00  0.00    +0.238 A 
ATOM     10  O   UNL     1       2.329   0.132 -22.315  0.00  0.00    -0.283 OA
ATOM     11  C   UNL     1       0.722   1.674 -22.642  0.00  0.00    +0.211 A 
ENDROOT
BRANCH   1  14
ATOM     12  C   UNL     1      -2.774   3.445 -24.173  0.00  0.00    +0.166 A 
ATOM     13  C   UNL     1      -1.515   3.129 -24.103  0.00  0.00    +0.061 A 
ATOM     14  C   UNL     1      -0.886   3.216 -22.968  0.00  0.00    +0.028 A 
ATOM     15  C   UNL     1      -1.516   3.618 -21.905  0.00  0.00    +0.061 A 
ATOM     16  C   UNL     1      -2.775   3.934 -21.976  0.00  0.00    +0.166 A 
ATOM     17  C   UNL     1      -3.404   3.848 -23.110  0.00  0.00    +0.204 A 
BRANCH  16  18
ATOM     18  O   UNL     1      -3.405   4.337 -20.912  0.00  0.00    -0.491 OA
ATOM     19  C   UNL     1      -3.227   3.724 -19.780  0.00  0.00    +0.277 C 
ENDBRANCH  16  18
BRANCH  12  21
ATOM     20  C   UNL     1      -2.748   3.476 -26.425  0.00  0.00    +0.277 C 
ATOM     21  O   UNL     1      -3.403   3.358 -25.308  0.00  0.00    -0.491 OA
ENDBRANCH  12  21
BRANCH  17  22
ATOM     22  O   UNL     1      -4.663   4.163 -23.181  0.00  0.00    -0.488 OA
ATOM     23  C   UNL     1      -5.560   3.380 -22.658  0.00  0.00    +0.277 C 
ENDBRANCH  17  22
ENDBRANCH   1  14
BRANCH   7  24
ATOM     24  O   UNL     1       4.498   0.725 -22.427  0.00  0.00    -0.494 OA
ATOM     25  C   UNL     1       5.578   0.486 -21.742  0.00  0.00    +0.277 C 
ENDBRANCH   7  24
BRANCH   5  26
ATOM     26  O   UNL     1       5.621   4.997 -23.303  0.00  0.00    -0.491 OA
ATOM     27  C   UNL     1       6.608   5.108 -22.464  0.00  0.00    +0.277 C 
ENDBRANCH   5  26
BRANCH   4  28
ATOM     28  O   UNL     1       3.103   5.630 -23.447  0.00  0.00    -0.488 OA
ATOM     29  C   UNL     1       3.188   6.536 -22.519  0.00  0.00    +0.277 C 
ENDBRANCH   4  28
BRANCH  11  30
ATOM     30  O   UNL     1      -0.188   0.764 -22.458  0.00  0.00    -0.488 OA
ATOM     31  C   UNL     1      -0.837   0.708 -21.333  0.00  0.00    +0.277 C 
ENDBRANCH  11  30
TORSDOF 8
ENDMDL
MODEL 4
REMARK VINA RESULT:    -8.011      1.469      7.482
REMARK INTER + INTRA:         -10.887
REMARK INTER:                 -11.610
REMARK INTRA:                   0.723
REMARK UNBOUND:                 0.871
REMARK  Name = ZINC000002585423
REMARK  15 active torsions:
REMARK  status: ('A' for Active; 'I' for Inactive)
REMARK    1  A    between atoms: C_1  and  O_2
REMARK    2  A    between atoms: O_2  and  C_3
REMARK    3  A    between atoms: C_5  and  C_6
REMARK    4  A    between atoms: C_9  and  O_10
REMARK    5  A    between atoms: O_10  and  C_11
REMARK    6  A    between atoms: C_12  and  O_13
REMARK    7  A    between atoms: O_13  and  C_14
REMARK    8  A    between atoms: C_16  and  O_17
REMARK    9  A    between atoms: O_17  and  C_18
REMARK   10  A    between atoms: C_22  and  O_23
REMARK   11  A    between atoms: O_23  and  C_24
REMARK   12  A    between atoms: C_26  and  O_27
REMARK   13  A    between atoms: O_27  and  C_28
REMARK   14  A    between atoms: C_29  and  O_30
REMARK   15  A    between atoms: O_30  and  C_31
REMARK                            x       y       z     vdW  Elec       q    Type
REMARK                         _______ _______ _______ _____ _____    ______ ____
ROOT
ATOM      1  C   UNL     1       0.430   2.898 -22.897  0.00  0.00    +0.181 A 
ATOM      2  O   UNL     1       1.349   3.799 -23.077  0.00  0.00    -0.447 OA
ATOM      3  C   UNL     1       2.604   3.470 -22.997  0.00  0.00    +0.188 A 
ATOM      4  C   UNL     1       3.525   4.371 -23.177  0.00  0.00    +0.205 A 
ATOM      5  C   UNL     1       4.780   4.043 -23.097  0.00  0.00    +0.169 A 
ATOM      6  C   UNL     1       5.115   2.814 -22.838  0.00  0.00    +0.096 A 
ATOM      7  C   UNL     1       4.196   1.913 -22.659  0.00  0.00    +0.138 A 
ATOM      8  C   UNL     1       2.940   2.241 -22.738  0.00  0.00    +0.113 A 
ATOM      9  C   UNL     1       2.020   1.341 -22.559  0.00  0.00    +0.238 A 
ATOM     10  O   UNL     1       2.355   0.112 -22.300  0.00  0.00    -0.283 OA
ATOM     11  C   UNL     1       0.765   1.669 -22.638  0.00  0.00    +0.211 A 
ENDROOT
BRANCH   1  14
ATOM     12  C   UNL     1      -2.710   3.982 -22.002  0.00  0.00    +0.166 A 
ATOM     13  C   UNL     1      -1.454   3.655 -21.922  0.00  0.00    +0.061 A 
ATOM     14  C   UNL     1      -0.825   3.226 -22.976  0.00  0.00    +0.028 A 
ATOM     15  C   UNL     1      -1.453   3.124 -24.111  0.00  0.00    +0.061 A 
ATOM     16  C   UNL     1      -2.709   3.452 -24.190  0.00  0.00    +0.166 A 
ATOM     17  C   UNL     1      -3.337   3.881 -23.136  0.00  0.00    +0.204 A 
BRANCH  16  18
ATOM     18  O   UNL     1      -3.336   3.351 -25.324  0.00  0.00    -0.491 OA
ATOM     19  C   UNL     1      -2.679   3.448 -26.442  0.00  0.00    +0.277 C 
ENDBRANCH  16  18
BRANCH  12  21
ATOM     20  C   UNL     1      -3.270   3.743 -19.834  0.00  0.00    +0.277 C 
ATOM     21  O   UNL     1      -3.338   4.411 -20.948  0.00  0.00    -0.491 OA
ENDBRANCH  12  21
BRANCH  17  22
ATOM     22  O   UNL     1      -4.592   4.208 -23.216  0.00  0.00    -0.488 OA
ATOM     23  C   UNL     1      -5.505   3.400 -22.764  0.00  0.00    +0.277 C 
ENDBRANCH  17  22
ENDBRANCH   1  14
BRANCH   7  24
ATOM     24  O   UNL     1       4.531   0.684 -22.400  0.00  0.00    -0.494 OA
ATOM     25  C   UNL     1       5.371   0.428 -21.440  0.00  0.00    +0.277 C 
ENDBRANCH   7  24
BRANCH   5  26
ATOM     26  O   UNL     1       5.700   4.943 -23.277  0.00  0.00    -0.491 OA
ATOM     27  C   UNL     1       6.726   4.993 -22.479  0.00  0.00    +0.277 C 
ENDBRANCH   5  26
BRANCH   4  28
ATOM     28  O   UNL     1       3.190   5.600 -23.436  0.00  0.00    -0.488 OA
ATOM     29  C   UNL     1       3.314   6.514 -22.520  0.00  0.00    +0.277 C 
ENDBRANCH   4  28
BRANCH  11  30
ATOM     30  O   UNL     1      -0.154   0.768 -22.459  0.00  0.00    -0.488 OA
ATOM     31  C   UNL     1      -0.824   0.733 -21.345  0.00  0.00    +0.277 C 
ENDBRANCH  11  30
TORSDOF 8
ENDMDL
MODEL 5
REMARK VINA RESULT:    -6.809      1.500      7.285
REMARK INTER + INTRA:          -9.122
REMARK INTER:                 -10.208
REMARK INTRA:                   1.086
REMARK UNBOUND:                 0.871
REMARK  Name = ZINC000002585423
REMARK  15 active torsions:
REMARK  status: ('A' for Active; 'I' for Inactive)
REMARK    1  A    between atoms: C_1  and  O_2
REMARK    2  A    between atoms: O_2  and  C_3
REMARK    3  A    between atoms: C_5  and  C_6
REMARK    4  A    between atoms: C_9  and  O_10
REMARK    5  A    between atoms: O_10  and  C_11
REMARK    6  A    between atoms: C_12  and  O_13
REMARK    7  A    between atoms: O_13  and  C_14
REMARK    8  A    between atoms: C_16  and  O_17
REMARK    9  A    between atoms: O_17  and  C_18
REMARK   10  A    between atoms: C_22  and  O_23
REMARK   11  A    between atoms: O_23  and  C_24
REMARK   12  A    between atoms: C_26  and  O_27
REMARK   13  A    between atoms: O_27  and  C_28
REMARK   14  A    between atoms: C_29  and  O_30
REMARK   15  A    between atoms: O_30  and  C_31
REMARK                            x       y       z     vdW  Elec       q    Type
REMARK                         _______ _______ _______ _____ _____    ______ ____
ROOT
ATOM      1  C   UNL     1       0.398   3.361 -22.991  0.00  0.00    +0.181 A 
ATOM      2  O   UNL     1       1.161   2.371 -22.633  0.00  0.00    -0.447 OA
ATOM      3  C   UNL     1       2.449   2.530 -22.581  0.00  0.00    +0.188 A 
ATOM      4  C   UNL     1       3.213   1.540 -22.222  0.00  0.00    +0.205 A 
ATOM      5  C   UNL     1       4.502   1.698 -22.170  0.00  0.00    +0.169 A 
ATOM      6  C   UNL     1       5.028   2.847 -22.475  0.00  0.00    +0.096 A 
ATOM      7  C   UNL     1       4.266   3.837 -22.833  0.00  0.00    +0.138 A 
ATOM      8  C   UNL     1       2.976   3.679 -22.886  0.00  0.00    +0.113 A 
ATOM      9  C   UNL     1       2.214   4.669 -23.244  0.00  0.00    +0.238 A 
ATOM     10  O   UNL     1       2.741   5.817 -23.549  0.00  0.00    -0.283 OA
ATOM     11  C   UNL     1       0.925   4.510 -23.297  0.00  0.00    +0.211 A 
ENDROOT
BRANCH   1  14
ATOM     12  C   UNL     1      -2.889   3.114 -22.011  0.00  0.00    +0.166 A 
ATOM     13  C   UNL     1      -1.600   3.272 -21.957  0.00  0.00    +0.061 A 
ATOM     14  C   UNL     1      -0.890   3.203 -23.044  0.00  0.00    +0.028 A 
ATOM     15  C   UNL     1      -1.470   2.977 -24.185  0.00  0.00    +0.061 A 
ATOM     16  C   UNL     1      -2.760   2.819 -24.239  0.00  0.00    +0.166 A 
ATOM     17  C   UNL     1      -3.469   2.887 -23.152  0.00  0.00    +0.204 A 
BRANCH  16  18
ATOM     18  O   UNL     1      -3.341   2.592 -25.380  0.00  0.00    -0.491 OA
ATOM     19  C   UNL     1      -3.255   3.466 -26.338  0.00  0.00    +0.277 C 
ENDBRANCH  16  18
BRANCH  12  21
ATOM     20  C   UNL     1      -3.115   3.769 -19.868  0.00  0.00    +0.277 C 
ATOM     21  O   UNL     1      -3.598   3.183 -20.923  0.00  0.00    -0.491 OA
ENDBRANCH  12  21
BRANCH  17  22
ATOM     22  O   UNL     1      -4.758   2.729 -23.206  0.00  0.00    -0.488 OA
ATOM     23  C   UNL     1      -5.534   3.761 -23.367  0.00  0.00    +0.277 C 
ENDBRANCH  17  22
ENDBRANCH   1  14
BRANCH   7  24
ATOM     24  O   UNL     1       4.793   4.986 -23.138  0.00  0.00    -0.494 OA
ATOM     25  C   UNL     1       6.007   5.264 -22.765  0.00  0.00    +0.277 C 
ENDBRANCH   7  24
BRANCH   5  26
ATOM     26  O   UNL     1       5.264   0.709 -21.812  0.00  0.00    -0.491 OA
ATOM     27  C   UNL     1       5.340   0.366 -20.559  0.00  0.00    +0.277 C 
ENDBRANCH   5  26
BRANCH   4  28
ATOM     28  O   UNL     1       2.686   0.391 -21.917  0.00  0.00    -0.488 OA
ATOM     29  C   UNL     1       2.165  -0.353 -22.847  0.00  0.00    +0.277 C 
ENDBRANCH   4  28
BRANCH  11  30
ATOM     30  O   UNL     1       0.163   5.501 -23.655  0.00  0.00    -0.488 OA
ATOM     31  C   UNL     1      -0.646   6.044 -22.795  0.00  0.00    +0.277 C 
ENDBRANCH  11  30
TORSDOF 8
ENDMDL
MODEL 6
REMARK VINA RESULT:    -6.798      1.505      7.340
REMARK INTER + INTRA:          -9.106
REMARK INTER:                 -10.090
REMARK INTRA:                   0.984
REMARK UNBOUND:                 0.871
REMARK  Name = ZINC000002585423
REMARK  15 active torsions:
REMARK  status: ('A' for Active; 'I' for Inactive)
REMARK    1  A    between atoms: C_1  and  O_2
REMARK    2  A    between atoms: O_2  and  C_3
REMARK    3  A    between atoms: C_5  and  C_6
REMARK    4  A    between atoms: C_9  and  O_10
REMARK    5  A    between atoms: O_10  and  C_11
REMARK    6  A    between atoms: C_12  and  O_13
REMARK    7  A    between atoms: O_13  and  C_14
REMARK    8  A    between atoms: C_16  and  O_17
REMARK    9  A    between atoms: O_17  and  C_18
REMARK   10  A    between atoms: C_22  and  O_23
REMARK   11  A    between atoms: O_23  and  C_24
REMARK   12  A    between atoms: C_26  and  O_27
REMARK   13  A    between atoms: O_27  and  C_28
REMARK   14  A    between atoms: C_29  and  O_30
REMARK   15  A    between atoms: O_30  and  C_31
REMARK                            x       y       z     vdW  Elec       q    Type
REMARK                         _______ _______ _______ _____ _____    ______ ____
ROOT
ATOM      1  C   UNL     1       0.436   3.270 -22.979  0.00  0.00    +0.181 A 
ATOM      2  O   UNL     1       1.183   2.265 -22.631  0.00  0.00    -0.447 OA
ATOM      3  C   UNL     1       2.475   2.400 -22.584  0.00  0.00    +0.188 A 
ATOM      4  C   UNL     1       3.222   1.395 -22.236  0.00  0.00    +0.205 A 
ATOM      5  C   UNL     1       4.514   1.530 -22.189  0.00  0.00    +0.169 A 
ATOM      6  C   UNL     1       5.059   2.671 -22.492  0.00  0.00    +0.096 A 
ATOM      7  C   UNL     1       4.313   3.676 -22.840  0.00  0.00    +0.138 A 
ATOM      8  C   UNL     1       3.020   3.541 -22.887  0.00  0.00    +0.113 A 
ATOM      9  C   UNL     1       2.273   4.546 -23.235  0.00  0.00    +0.238 A 
ATOM     10  O   UNL     1       2.819   5.687 -23.538  0.00  0.00    -0.283 OA
ATOM     11  C   UNL     1       0.982   4.411 -23.282  0.00  0.00    +0.211 A 
ENDROOT
BRANCH   1  14
ATOM     12  C   UNL     1      -2.744   2.838 -24.215  0.00  0.00    +0.166 A 
ATOM     13  C   UNL     1      -1.452   2.973 -24.170  0.00  0.00    +0.061 A 
ATOM     14  C   UNL     1      -0.855   3.135 -23.026  0.00  0.00    +0.028 A 
ATOM     15  C   UNL     1      -1.551   3.163 -21.928  0.00  0.00    +0.061 A 
ATOM     16  C   UNL     1      -2.844   3.028 -21.974  0.00  0.00    +0.166 A 
ATOM     17  C   UNL     1      -3.440   2.866 -23.118  0.00  0.00    +0.204 A 
BRANCH  16  18
ATOM     18  O   UNL     1      -3.540   3.055 -20.876  0.00  0.00    -0.491 OA
ATOM     19  C   UNL     1      -3.210   3.869 -19.918  0.00  0.00    +0.277 C 
ENDBRANCH  16  18
BRANCH  12  21
ATOM     20  C   UNL     1      -3.150   3.532 -26.319  0.00  0.00    +0.277 C 
ATOM     21  O   UNL     1      -3.340   2.676 -25.359  0.00  0.00    -0.491 OA
ENDBRANCH  12  21
BRANCH  17  22
ATOM     22  O   UNL     1      -4.732   2.731 -23.163  0.00  0.00    -0.488 OA
ATOM     23  C   UNL     1      -5.491   3.779 -23.296  0.00  0.00    +0.277 C 
ENDBRANCH  17  22
ENDBRANCH   1  14
BRANCH   7  24
ATOM     24  O   UNL     1       4.858   4.817 -23.143  0.00  0.00    -0.494 OA
ATOM     25  C   UNL     1       6.084   5.066 -22.787  0.00  0.00    +0.277 C 
ENDBRANCH   7  24
BRANCH   5  26
ATOM     26  O   UNL     1       5.260   0.525 -21.841  0.00  0.00    -0.491 OA
ATOM     27  C   UNL     1       5.399   0.223 -20.583  0.00  0.00    +0.277 C 
ENDBRANCH   5  26
BRANCH   4  28
ATOM     28  O   UNL     1       2.677   0.254 -21.933  0.00  0.00    -0.488 OA
ATOM     29  C   UNL     1       2.093  -0.452 -22.855  0.00  0.00    +0.277 C 
ENDBRANCH   4  28
BRANCH  11  30
ATOM     30  O   UNL     1       0.235   5.417 -23.630  0.00  0.00    -0.488 OA
ATOM     31  C   UNL     1      -0.544   5.983 -22.758  0.00  0.00    +0.277 C 
ENDBRANCH  11  30
TORSDOF 8
ENDMDL
MODEL 7
REMARK VINA RESULT:    -6.451      2.117      7.803
REMARK INTER + INTRA:          -8.598
REMARK INTER:                  -9.469
REMARK INTRA:                   0.871
REMARK UNBOUND:                 0.871
REMARK  Name = ZINC000002585423
REMARK  15 active torsions:
REMARK  status: ('A' for Active; 'I' for Inactive)
REMARK    1  A    between atoms: C_1  and  O_2
REMARK    2  A    between atoms: O_2  and  C_3
REMARK    3  A    between atoms: C_5  and  C_6
REMARK    4  A    between atoms: C_9  and  O_10
REMARK    5  A    between atoms: O_10  and  C_11
REMARK    6  A    between atoms: C_12  and  O_13
REMARK    7  A    between atoms: O_13  and  C_14
REMARK    8  A    between atoms: C_16  and  O_17
REMARK    9  A    between atoms: O_17  and  C_18
REMARK   10  A    between atoms: C_22  and  O_23
REMARK   11  A    between atoms: O_23  and  C_24
REMARK   12  A    between atoms: C_26  and  O_27
REMARK   13  A    between atoms: O_27  and  C_28
REMARK   14  A    between atoms: C_29  and  O_30
REMARK   15  A    between atoms: O_30  and  C_31
REMARK                            x       y       z     vdW  Elec       q    Type
REMARK                         _______ _______ _______ _____ _____    ______ ____
ROOT
ATOM      1  C   UNL     1       3.119   3.990 -23.204  0.00  0.00    +0.181 A 
ATOM      2  O   UNL     1       3.506   5.103 -22.656  0.00  0.00    -0.447 OA
ATOM      3  C   UNL     1       4.767   5.415 -22.640  0.00  0.00    +0.188 A 
ATOM      4  C   UNL     1       5.155   6.529 -22.093  0.00  0.00    +0.205 A 
ATOM      5  C   UNL     1       6.417   6.841 -22.077  0.00  0.00    +0.169 A 
ATOM      6  C   UNL     1       7.291   6.040 -22.608  0.00  0.00    +0.096 A 
ATOM      7  C   UNL     1       6.905   4.926 -23.155  0.00  0.00    +0.138 A 
ATOM      8  C   UNL     1       5.642   4.614 -23.172  0.00  0.00    +0.113 A 
ATOM      9  C   UNL     1       5.255   3.500 -23.719  0.00  0.00    +0.238 A 
ATOM     10  O   UNL     1       6.130   2.699 -24.250  0.00  0.00    -0.283 OA
ATOM     11  C   UNL     1       3.994   3.188 -23.735  0.00  0.00    +0.211 A 
ENDROOT
BRANCH   1  14
ATOM     12  C   UNL     1       0.109   2.575 -22.326  0.00  0.00    +0.166 A 
ATOM     13  C   UNL     1       1.371   2.888 -22.309  0.00  0.00    +0.061 A 
ATOM     14  C   UNL     1       1.858   3.677 -23.220  0.00  0.00    +0.028 A 
ATOM     15  C   UNL     1       1.082   4.154 -24.148  0.00  0.00    +0.061 A 
ATOM     16  C   UNL     1      -0.180   3.842 -24.165  0.00  0.00    +0.166 A 
ATOM     17  C   UNL     1      -0.666   3.052 -23.254  0.00  0.00    +0.204 A 
BRANCH  16  18
ATOM     18  O   UNL     1      -0.955   4.319 -25.093  0.00  0.00    -0.491 OA
ATOM     19  C   UNL     1      -1.559   3.512 -25.914  0.00  0.00    +0.277 C 
ENDBRANCH  16  18
BRANCH  12  21
ATOM     20  C   UNL     1       0.385   1.356 -20.452  0.00  0.00    +0.277 C 
ATOM     21  O   UNL     1      -0.377   1.786 -21.415  0.00  0.00    -0.491 OA
ENDBRANCH  12  21
BRANCH  17  22
ATOM     22  O   UNL     1      -1.928   2.740 -23.271  0.00  0.00    -0.488 OA
ATOM     23  C   UNL     1      -2.759   3.347 -22.475  0.00  0.00    +0.277 C 
ENDBRANCH  17  22
ENDBRANCH   1  14
BRANCH   7  24
ATOM     24  O   UNL     1       7.779   4.125 -23.687  0.00  0.00    -0.494 OA
ATOM     25  C   UNL     1       9.019   4.501 -23.803  0.00  0.00    +0.277 C 
ENDBRANCH   7  24
BRANCH   5  26
ATOM     26  O   UNL     1       6.804   7.955 -21.529  0.00  0.00    -0.491 OA
ATOM     27  C   UNL     1       7.630   7.933 -20.525  0.00  0.00    +0.277 C 
ENDBRANCH   5  26
BRANCH   4  28
ATOM     28  O   UNL     1       4.280   7.331 -21.561  0.00  0.00    -0.488 OA
ATOM     29  C   UNL     1       4.057   8.495 -22.095  0.00  0.00    +0.277 C 
ENDBRANCH   4  28
BRANCH  11  30
ATOM     30  O   UNL     1       3.607   2.074 -24.283  0.00  0.00    -0.488 OA
ATOM     31  C   UNL     1       3.706   0.957 -23.626  0.00  0.00    +0.277 C 
ENDBRANCH  11  30
TORSDOF 8
ENDMDL
MODEL 8
REMARK VINA RESULT:    -6.417      2.214      4.782
REMARK INTER + INTRA:          -8.547
REMARK INTER:                  -8.744
REMARK INTRA:                   0.196
REMARK UNBOUND:                 0.871
REMARK  Name = ZINC000002585423
REMARK  15 active torsions:
REMARK  status: ('A' for Active; 'I' for Inactive)
REMARK    1  A    between atoms: C_1  and  O_2
REMARK    2  A    between atoms: O_2  and  C_3
REMARK    3  A    between atoms: C_5  and  C_6
REMARK    4  A    between atoms: C_9  and  O_10
REMARK    5  A    between atoms: O_10  and  C_11
REMARK    6  A    between atoms: C_12  and  O_13
REMARK    7  A    between atoms: O_13  and  C_14
REMARK    8  A    between atoms: C_16  and  O_17
REMARK    9  A    between atoms: O_17  and  C_18
REMARK   10  A    between atoms: C_22  and  O_23
REMARK   11  A    between atoms: O_23  and  C_24
REMARK   12  A    between atoms: C_26  and  O_27
REMARK   13  A    between atoms: O_27  and  C_28
REMARK   14  A    between atoms: C_29  and  O_30
REMARK   15  A    between atoms: O_30  and  C_31
REMARK                            x       y       z     vdW  Elec       q    Type
REMARK                         _______ _______ _______ _____ _____    ______ ____
ROOT
ATOM      1  C   UNL     1       3.785   3.501 -22.771  0.00  0.00    +0.181 A 
ATOM      2  O   UNL     1       2.779   3.896 -23.493  0.00  0.00    -0.447 OA
ATOM      3  C   UNL     1       1.597   3.396 -23.288  0.00  0.00    +0.188 A 
ATOM      4  C   UNL     1       0.589   3.791 -24.010  0.00  0.00    +0.205 A 
ATOM      5  C   UNL     1      -0.593   3.291 -23.806  0.00  0.00    +0.169 A 
ATOM      6  C   UNL     1      -0.769   2.396 -22.880  0.00  0.00    +0.096 A 
ATOM      7  C   UNL     1       0.237   2.000 -22.158  0.00  0.00    +0.138 A 
ATOM      8  C   UNL     1       1.420   2.501 -22.362  0.00  0.00    +0.113 A 
ATOM      9  C   UNL     1       2.427   2.106 -21.641  0.00  0.00    +0.238 A 
ATOM     10  O   UNL     1       2.251   1.210 -20.715  0.00  0.00    -0.283 OA
ATOM     11  C   UNL     1       3.609   2.606 -21.845  0.00  0.00    +0.211 A 
ENDROOT
BRANCH   1  14
ATOM     12  C   UNL     1       6.970   3.916 -23.999  0.00  0.00    +0.166 A 
ATOM     13  C   UNL     1       5.788   3.416 -23.796  0.00  0.00    +0.061 A 
ATOM     14  C   UNL     1       4.967   4.001 -22.975  0.00  0.00    +0.028 A 
ATOM     15  C   UNL     1       5.329   5.086 -22.357  0.00  0.00    +0.061 A 
ATOM     16  C   UNL     1       6.512   5.586 -22.561  0.00  0.00    +0.166 A 
ATOM     17  C   UNL     1       7.332   5.001 -23.382  0.00  0.00    +0.204 A 
BRANCH  16  18
ATOM     18  O   UNL     1       6.874   6.671 -21.943  0.00  0.00    -0.491 OA
ATOM     19  C   UNL     1       6.804   6.735 -20.647  0.00  0.00    +0.277 C 
ENDBRANCH  16  18
BRANCH  12  21
ATOM     20  C   UNL     1       8.725   2.551 -24.361  0.00  0.00    +0.277 C 
ATOM     21  O   UNL     1       7.791   3.331 -24.820  0.00  0.00    -0.491 OA
ENDBRANCH  12  21
BRANCH  17  22
ATOM     22  O   UNL     1       8.515   5.501 -23.585  0.00  0.00    -0.488 OA
ATOM     23  C   UNL     1       8.699   6.370 -24.536  0.00  0.00    +0.277 C 
ENDBRANCH  17  22
ENDBRANCH   1  14
BRANCH   7  24
ATOM     24  O   UNL     1       0.061   1.105 -21.232  0.00  0.00    -0.494 OA
ATOM     25  C   UNL     1      -1.143   0.773 -20.870  0.00  0.00    +0.277 C 
ENDBRANCH   7  24
BRANCH   5  26
ATOM     26  O   UNL     1      -1.599   3.686 -24.527  0.00  0.00    -0.491 OA
ATOM     27  C   UNL     1      -2.540   2.847 -24.846  0.00  0.00    +0.277 C 
ENDBRANCH   5  26
BRANCH   4  28
ATOM     28  O   UNL     1       0.765   4.687 -24.936  0.00  0.00    -0.488 OA
ATOM     29  C   UNL     1       1.143   4.325 -26.126  0.00  0.00    +0.277 C 
ENDBRANCH   4  28
BRANCH  11  30
ATOM     30  O   UNL     1       4.615   2.210 -21.123  0.00  0.00    -0.488 OA
ATOM     31  C   UNL     1       5.053   0.991 -21.229  0.00  0.00    +0.277 C 
ENDBRANCH  11  30
TORSDOF 8
ENDMDL
MODEL 9
REMARK VINA RESULT:    -6.338      2.247      5.070
REMARK INTER + INTRA:          -8.431
REMARK INTER:                  -8.578
REMARK INTRA:                   0.147
REMARK UNBOUND:                 0.871
REMARK  Name = ZINC000002585423
REMARK  15 active torsions:
REMARK  status: ('A' for Active; 'I' for Inactive)
REMARK    1  A    between atoms: C_1  and  O_2
REMARK    2  A    between atoms: O_2  and  C_3
REMARK    3  A    between atoms: C_5  and  C_6
REMARK    4  A    between atoms: C_9  and  O_10
REMARK    5  A    between atoms: O_10  and  C_11
REMARK    6  A    between atoms: C_12  and  O_13
REMARK    7  A    between atoms: O_13  and  C_14
REMARK    8  A    between atoms: C_16  and  O_17
REMARK    9  A    between atoms: O_17  and  C_18
REMARK   10  A    between atoms: C_22  and  O_23
REMARK   11  A    between atoms: O_23  and  C_24
REMARK   12  A    between atoms: C_26  and  O_27
REMARK   13  A    between atoms: O_27  and  C_28
REMARK   14  A    between atoms: C_29  and  O_30
REMARK   15  A    between atoms: O_30  and  C_31
REMARK                            x       y       z     vdW  Elec       q    Type
REMARK                         _______ _______ _______ _____ _____    ______ ____
ROOT
ATOM      1  C   UNL     1       3.896   3.462 -22.718  0.00  0.00    +0.181 A 
ATOM      2  O   UNL     1       2.911   3.902 -23.443  0.00  0.00    -0.447 OA
ATOM      3  C   UNL     1       1.712   3.434 -23.263  0.00  0.00    +0.188 A 
ATOM      4  C   UNL     1       0.727   3.874 -23.989  0.00  0.00    +0.205 A 
ATOM      5  C   UNL     1      -0.472   3.406 -23.809  0.00  0.00    +0.169 A 
ATOM      6  C   UNL     1      -0.687   2.497 -22.904  0.00  0.00    +0.096 A 
ATOM      7  C   UNL     1       0.298   2.057 -22.179  0.00  0.00    +0.138 A 
ATOM      8  C   UNL     1       1.498   2.525 -22.358  0.00  0.00    +0.113 A 
ATOM      9  C   UNL     1       2.483   2.085 -21.633  0.00  0.00    +0.238 A 
ATOM     10  O   UNL     1       2.268   1.177 -20.728  0.00  0.00    -0.283 OA
ATOM     11  C   UNL     1       3.682   2.554 -21.813  0.00  0.00    +0.211 A 
ENDROOT
BRANCH   1  14
ATOM     12  C   UNL     1       6.721   5.390 -22.355  0.00  0.00    +0.166 A 
ATOM     13  C   UNL     1       5.521   4.923 -22.175  0.00  0.00    +0.061 A 
ATOM     14  C   UNL     1       5.095   3.929 -22.897  0.00  0.00    +0.028 A 
ATOM     15  C   UNL     1       5.869   3.403 -23.800  0.00  0.00    +0.061 A 
ATOM     16  C   UNL     1       7.069   3.871 -23.979  0.00  0.00    +0.166 A 
ATOM     17  C   UNL     1       7.495   4.864 -23.257  0.00  0.00    +0.204 A 
BRANCH  16  18
ATOM     18  O   UNL     1       7.844   3.345 -24.882  0.00  0.00    -0.491 OA
ATOM     19  C   UNL     1       8.749   2.478 -24.536  0.00  0.00    +0.277 C 
ENDBRANCH  16  18
BRANCH  12  21
ATOM     20  C   UNL     1       7.148   6.290 -20.335  0.00  0.00    +0.277 C 
ATOM     21  O   UNL     1       7.146   6.383 -21.633  0.00  0.00    -0.491 OA
ENDBRANCH  12  21
BRANCH  17  22
ATOM     22  O   UNL     1       8.694   5.331 -23.437  0.00  0.00    -0.488 OA
ATOM     23  C   UNL     1       8.906   6.253 -24.329  0.00  0.00    +0.277 C 
ENDBRANCH  17  22
ENDBRANCH   1  14
BRANCH   7  24
ATOM     24  O   UNL     1       0.083   1.149 -21.274  0.00  0.00    -0.494 OA
ATOM     25  C   UNL     1      -1.134   0.790 -20.989  0.00  0.00    +0.277 C 
ENDBRANCH   7  24
BRANCH   5  26
ATOM     26  O   UNL     1      -1.457   3.846 -24.534  0.00  0.00    -0.491 OA
ATOM     27  C   UNL     1      -2.253   3.006 -25.128  0.00  0.00    +0.277 C 
ENDBRANCH   5  26
BRANCH   4  28
ATOM     28  O   UNL     1       0.941   4.782 -24.894  0.00  0.00    -0.488 OA
ATOM     29  C   UNL     1       1.217   4.431 -26.114  0.00  0.00    +0.277 C 
ENDBRANCH   4  28
BRANCH  11  30
ATOM     30  O   UNL     1       4.666   2.113 -21.087  0.00  0.00    -0.488 OA
ATOM     31  C   UNL     1       5.088   0.892 -21.233  0.00  0.00    +0.277 C 
ENDBRANCH  11  30
TORSDOF 8
ENDMDL
