MODEL 1
REMARK VINA RESULT:   -10.959      0.000      0.000
REMARK INTER + INTRA:         -12.867
REMARK INTER:                 -12.065
REMARK INTRA:                  -0.802
REMARK UNBOUND:                 0.655
REMARK  Name = ZINC000014557836
REMARK  7 active torsions:
REMARK  status: ('A' for Active; 'I' for Inactive)
REMARK    1  A    between atoms: C_1  and  C_2
REMARK    2  A    between atoms: C_2  and  C_3
REMARK    3  A    between atoms: C_10  and  C_11
REMARK    4  A    between atoms: C_11  and  C_13
REMARK    5  A    between atoms: C_14  and  C_15
REMARK    6  A    between atoms: C_18  and  O_19
REMARK    7  A    between atoms: C_22  and  O_23
REMARK                            x       y       z     vdW  Elec       q    Type
REMARK                         _______ _______ _______ _____ _____    ______ ____
ROOT
ATOM      1  C   UNL     1      -4.974   3.101 -21.790  0.00  0.00    +0.060 C 
ATOM      2  C   UNL     1      -4.266   3.329 -22.856  0.00  0.00    +0.124 C 
ATOM      3  C   UNL     1      -3.961   3.705 -24.062  0.00  0.00    +0.020 C 
ATOM      4  C   UNL     1      -2.742   3.577 -24.494  0.00  0.00    +0.015 C 
ATOM      5  C   UNL     1      -1.827   3.073 -23.719  0.00  0.00    +0.059 A 
ATOM      6  C   UNL     1      -2.132   2.697 -22.513  0.00  0.00    +0.132 A 
ATOM      7  C   UNL     1      -1.217   2.194 -21.739  0.00  0.00    +0.047 A 
ATOM      8  C   UNL     1       0.002   2.066 -22.170  0.00  0.00    +0.019 A 
ATOM      9  C   UNL     1       0.306   2.442 -23.377  0.00  0.00    +0.064 A 
ATOM     10  C   UNL     1      -0.608   2.946 -24.151  0.00  0.00    +0.138 A 
ATOM     11  C   UNL     1      -5.427   3.753 -23.259  0.00  0.00    +0.060 C 
ATOM     12  O   UNL     1      -3.352   2.826 -22.081  0.00  0.00    -0.482 OA
ENDROOT
BRANCH   9  13
ATOM     13  C   UNL     1       1.526   2.314 -23.809  0.00  0.00    +0.190 C 
ATOM     14  O   UNL     1       1.750   1.783 -24.974  0.00  0.00    -0.287 OA
BRANCH  13  15
ATOM     15  C   UNL     1       2.521   2.719 -23.077  0.00  0.00    +0.052 C 
ATOM     16  C   UNL     1       3.736   2.647 -23.534  0.00  0.00    +0.012 C 
BRANCH  16  17
ATOM     17  C   UNL     1       4.731   3.051 -22.801  0.00  0.00    -0.025 A 
ATOM     18  C   UNL     1       5.046   2.405 -21.718  0.00  0.00    +0.011 A 
ATOM     19  C   UNL     1       6.041   2.809 -20.986  0.00  0.00    +0.046 A 
ATOM     20  C   UNL     1       6.722   3.861 -21.337  0.00  0.00    +0.117 A 
ATOM     21  C   UNL     1       6.407   4.506 -22.420  0.00  0.00    +0.046 A 
ATOM     22  C   UNL     1       5.412   4.102 -23.152  0.00  0.00    +0.011 A 
BRANCH  20  23
ATOM     23  O   UNL     1       7.717   4.265 -20.605  0.00  0.00    -0.507 OA
ATOM     24  H   UNL     1       7.767   4.013 -19.703  0.00  0.00    +0.292 HD
ENDBRANCH  20  23
ENDBRANCH  16  17
ENDBRANCH  13  15
ENDBRANCH   9  13
BRANCH  10  25
ATOM     25  O   UNL     1      -0.303   3.322 -25.359  0.00  0.00    -0.505 OA
ATOM     26  H   UNL     1       0.433   2.940 -25.796  0.00  0.00    +0.292 HD
ENDBRANCH  10  25
TORSDOF 5
ENDMDL
MODEL 2
REMARK VINA RESULT:   -10.923      1.551      2.139
REMARK INTER + INTRA:         -12.823
REMARK INTER:                 -11.821
REMARK INTRA:                  -1.002
REMARK UNBOUND:                 0.655
REMARK  Name = ZINC000014557836
REMARK  7 active torsions:
REMARK  status: ('A' for Active; 'I' for Inactive)
REMARK    1  A    between atoms: C_1  and  C_2
REMARK    2  A    between atoms: C_2  and  C_3
REMARK    3  A    between atoms: C_10  and  C_11
REMARK    4  A    between atoms: C_11  and  C_13
REMARK    5  A    between atoms: C_14  and  C_15
REMARK    6  A    between atoms: C_18  and  O_19
REMARK    7  A    between atoms: C_22  and  O_23
REMARK                            x       y       z     vdW  Elec       q    Type
REMARK                         _______ _______ _______ _____ _____    ______ ____
ROOT
ATOM      1  C   UNL     1      -5.163   3.888 -23.655  0.00  0.00    +0.060 C 
ATOM      2  C   UNL     1      -4.432   3.331 -22.736  0.00  0.00    +0.124 C 
ATOM      3  C   UNL     1      -4.100   2.781 -21.606  0.00  0.00    +0.020 C 
ATOM      4  C   UNL     1      -2.873   2.404 -21.402  0.00  0.00    +0.015 C 
ATOM      5  C   UNL     1      -1.977   2.577 -22.329  0.00  0.00    +0.059 A 
ATOM      6  C   UNL     1      -2.309   3.127 -23.459  0.00  0.00    +0.132 A 
ATOM      7  C   UNL     1      -1.413   3.300 -24.384  0.00  0.00    +0.047 A 
ATOM      8  C   UNL     1      -0.186   2.923 -24.181  0.00  0.00    +0.019 A 
ATOM      9  C   UNL     1       0.145   2.373 -23.051  0.00  0.00    +0.064 A 
ATOM     10  C   UNL     1      -0.750   2.200 -22.125  0.00  0.00    +0.138 A 
ATOM     11  C   UNL     1      -5.582   3.352 -22.130  0.00  0.00    +0.060 C 
ATOM     12  O   UNL     1      -3.536   3.504 -23.662  0.00  0.00    -0.482 OA
ENDROOT
BRANCH   9  13
ATOM     13  C   UNL     1       1.373   1.996 -22.847  0.00  0.00    +0.190 C 
ATOM     14  O   UNL     1       1.642   0.740 -22.647  0.00  0.00    -0.287 OA
BRANCH  13  15
ATOM     15  C   UNL     1       2.331   2.875 -22.842  0.00  0.00    +0.052 C 
ATOM     16  C   UNL     1       3.532   2.530 -23.200  0.00  0.00    +0.012 C 
BRANCH  16  17
ATOM     17  C   UNL     1       4.490   3.409 -23.196  0.00  0.00    -0.025 A 
ATOM     18  C   UNL     1       5.688   3.067 -23.567  0.00  0.00    +0.011 A 
ATOM     19  C   UNL     1       6.645   3.946 -23.562  0.00  0.00    +0.046 A 
ATOM     20  C   UNL     1       6.404   5.168 -23.185  0.00  0.00    +0.117 A 
ATOM     21  C   UNL     1       5.207   5.509 -22.815  0.00  0.00    +0.046 A 
ATOM     22  C   UNL     1       4.249   4.630 -22.819  0.00  0.00    +0.011 A 
BRANCH  20  23
ATOM     23  O   UNL     1       7.363   6.047 -23.181  0.00  0.00    -0.507 OA
ATOM     24  H   UNL     1       7.264   6.845 -22.699  0.00  0.00    +0.292 HD
ENDBRANCH  20  23
ENDBRANCH  16  17
ENDBRANCH  13  15
ENDBRANCH   9  13
BRANCH  10  25
ATOM     25  O   UNL     1      -0.418   1.650 -20.994  0.00  0.00    -0.505 OA
ATOM     26  H   UNL     1      -0.016   2.166 -20.323  0.00  0.00    +0.292 HD
ENDBRANCH  10  25
TORSDOF 5
ENDMDL
MODEL 3
REMARK VINA RESULT:   -10.545      1.629      2.311
REMARK INTER + INTRA:         -12.356
REMARK INTER:                 -11.393
REMARK INTRA:                  -0.964
REMARK UNBOUND:                 0.655
REMARK  Name = ZINC000014557836
REMARK  7 active torsions:
REMARK  status: ('A' for Active; 'I' for Inactive)
REMARK    1  A    between atoms: C_1  and  C_2
REMARK    2  A    between atoms: C_2  and  C_3
REMARK    3  A    between atoms: C_10  and  C_11
REMARK    4  A    between atoms: C_11  and  C_13
REMARK    5  A    between atoms: C_14  and  C_15
REMARK    6  A    between atoms: C_18  and  O_19
REMARK    7  A    between atoms: C_22  and  O_23
REMARK                            x       y       z     vdW  Elec       q    Type
REMARK                         _______ _______ _______ _____ _____    ______ ____
ROOT
ATOM      1  C   UNL     1      -5.499   3.737 -23.263  0.00  0.00    +0.060 C 
ATOM      2  C   UNL     1      -4.499   3.236 -22.600  0.00  0.00    +0.124 C 
ATOM      3  C   UNL     1      -3.833   2.669 -21.638  0.00  0.00    +0.020 C 
ATOM      4  C   UNL     1      -2.556   2.465 -21.766  0.00  0.00    +0.015 C 
ATOM      5  C   UNL     1      -1.944   2.827 -22.855  0.00  0.00    +0.059 A 
ATOM      6  C   UNL     1      -2.611   3.394 -23.817  0.00  0.00    +0.132 A 
ATOM      7  C   UNL     1      -1.999   3.756 -24.904  0.00  0.00    +0.047 A 
ATOM      8  C   UNL     1      -0.722   3.552 -25.032  0.00  0.00    +0.019 A 
ATOM      9  C   UNL     1      -0.056   2.985 -24.070  0.00  0.00    +0.064 A 
ATOM     10  C   UNL     1      -0.667   2.623 -22.982  0.00  0.00    +0.138 A 
ATOM     11  C   UNL     1      -5.458   3.048 -21.742  0.00  0.00    +0.060 C 
ATOM     12  O   UNL     1      -3.888   3.598 -23.688  0.00  0.00    -0.482 OA
ENDROOT
BRANCH   9  13
ATOM     13  C   UNL     1       1.221   2.781 -24.197  0.00  0.00    +0.190 C 
ATOM     14  O   UNL     1       1.660   1.610 -24.555  0.00  0.00    -0.287 OA
BRANCH  13  15
ATOM     15  C   UNL     1       2.061   3.747 -23.966  0.00  0.00    +0.052 C 
ATOM     16  C   UNL     1       3.034   3.574 -23.122  0.00  0.00    +0.012 C 
BRANCH  16  17
ATOM     17  C   UNL     1       3.874   4.540 -22.891  0.00  0.00    -0.025 A 
ATOM     18  C   UNL     1       5.150   4.296 -22.848  0.00  0.00    +0.011 A 
ATOM     19  C   UNL     1       5.988   5.262 -22.617  0.00  0.00    +0.046 A 
ATOM     20  C   UNL     1       5.551   6.472 -22.429  0.00  0.00    +0.117 A 
ATOM     21  C   UNL     1       4.275   6.715 -22.472  0.00  0.00    +0.046 A 
ATOM     22  C   UNL     1       3.437   5.750 -22.703  0.00  0.00    +0.011 A 
BRANCH  20  23
ATOM     23  O   UNL     1       6.390   7.438 -22.198  0.00  0.00    -0.507 OA
ATOM     24  H   UNL     1       6.085   8.323 -22.153  0.00  0.00    +0.292 HD
ENDBRANCH  20  23
ENDBRANCH  16  17
ENDBRANCH  13  15
ENDBRANCH   9  13
BRANCH  10  25
ATOM     25  O   UNL     1      -0.000   2.056 -22.019  0.00  0.00    -0.505 OA
ATOM     26  H   UNL     1       0.928   1.949 -22.093  0.00  0.00    +0.292 HD
ENDBRANCH  10  25
TORSDOF 5
ENDMDL
MODEL 4
REMARK VINA RESULT:   -10.185      1.583      2.365
REMARK INTER + INTRA:         -11.912
REMARK INTER:                 -12.654
REMARK INTRA:                   0.742
REMARK UNBOUND:                 0.655
REMARK  Name = ZINC000014557836
REMARK  7 active torsions:
REMARK  status: ('A' for Active; 'I' for Inactive)
REMARK    1  A    between atoms: C_1  and  C_2
REMARK    2  A    between atoms: C_2  and  C_3
REMARK    3  A    between atoms: C_10  and  C_11
REMARK    4  A    between atoms: C_11  and  C_13
REMARK    5  A    between atoms: C_14  and  C_15
REMARK    6  A    between atoms: C_18  and  O_19
REMARK    7  A    between atoms: C_22  and  O_23
REMARK                            x       y       z     vdW  Elec       q    Type
REMARK                         _______ _______ _______ _____ _____    ______ ____
ROOT
ATOM      1  C   UNL     1      -5.707   3.732 -23.547  0.00  0.00    +0.060 C 
ATOM      2  C   UNL     1      -4.658   3.381 -22.865  0.00  0.00    +0.124 C 
ATOM      3  C   UNL     1      -3.926   2.988 -21.865  0.00  0.00    +0.020 C 
ATOM      4  C   UNL     1      -2.644   2.838 -22.018  0.00  0.00    +0.015 C 
ATOM      5  C   UNL     1      -2.093   3.081 -23.171  0.00  0.00    +0.059 A 
ATOM      6  C   UNL     1      -2.825   3.474 -24.171  0.00  0.00    +0.132 A 
ATOM      7  C   UNL     1      -2.275   3.717 -25.322  0.00  0.00    +0.047 A 
ATOM      8  C   UNL     1      -0.993   3.567 -25.475  0.00  0.00    +0.019 A 
ATOM      9  C   UNL     1      -0.261   3.174 -24.476  0.00  0.00    +0.064 A 
ATOM     10  C   UNL     1      -0.811   2.931 -23.323  0.00  0.00    +0.138 A 
ATOM     11  C   UNL     1      -5.573   3.261 -21.950  0.00  0.00    +0.060 C 
ATOM     12  O   UNL     1      -4.107   3.624 -24.017  0.00  0.00    -0.482 OA
ENDROOT
BRANCH   9  13
ATOM     13  C   UNL     1       1.021   3.024 -24.628  0.00  0.00    +0.190 C 
ATOM     14  O   UNL     1       1.558   3.172 -25.802  0.00  0.00    -0.287 OA
BRANCH  13  15
ATOM     15  C   UNL     1       1.767   2.725 -23.605  0.00  0.00    +0.052 C 
ATOM     16  C   UNL     1       2.839   2.008 -23.770  0.00  0.00    +0.012 C 
BRANCH  16  17
ATOM     17  C   UNL     1       3.585   1.710 -22.747  0.00  0.00    -0.025 A 
ATOM     18  C   UNL     1       3.264   0.712 -21.978  0.00  0.00    +0.011 A 
ATOM     19  C   UNL     1       4.010   0.414 -20.957  0.00  0.00    +0.046 A 
ATOM     20  C   UNL     1       5.077   1.114 -20.703  0.00  0.00    +0.117 A 
ATOM     21  C   UNL     1       5.397   2.111 -21.472  0.00  0.00    +0.046 A 
ATOM     22  C   UNL     1       4.651   2.409 -22.494  0.00  0.00    +0.011 A 
BRANCH  20  23
ATOM     23  O   UNL     1       5.823   0.815 -19.681  0.00  0.00    -0.507 OA
ATOM     24  H   UNL     1       6.638   1.259 -19.550  0.00  0.00    +0.292 HD
ENDBRANCH  20  23
ENDBRANCH  16  17
ENDBRANCH  13  15
ENDBRANCH   9  13
BRANCH  10  25
ATOM     25  O   UNL     1      -0.079   2.538 -22.323  0.00  0.00    -0.505 OA
ATOM     26  H   UNL     1       0.663   1.986 -22.474  0.00  0.00    +0.292 HD
ENDBRANCH  10  25
TORSDOF 5
ENDMDL
MODEL 5
REMARK VINA RESULT:    -8.586      2.075      2.993
REMARK INTER + INTRA:          -9.939
REMARK INTER:                  -9.535
REMARK INTRA:                  -0.404
REMARK UNBOUND:                 0.655
REMARK  Name = ZINC000014557836
REMARK  7 active torsions:
REMARK  status: ('A' for Active; 'I' for Inactive)
REMARK    1  A    between atoms: C_1  and  C_2
REMARK    2  A    between atoms: C_2  and  C_3
REMARK    3  A    between atoms: C_10  and  C_11
REMARK    4  A    between atoms: C_11  and  C_13
REMARK    5  A    between atoms: C_14  and  C_15
REMARK    6  A    between atoms: C_18  and  O_19
REMARK    7  A    between atoms: C_22  and  O_23
REMARK                            x       y       z     vdW  Elec       q    Type
REMARK                         _______ _______ _______ _____ _____    ______ ____
ROOT
ATOM      1  C   UNL     1      -2.724   2.233 -21.918  0.00  0.00    +0.060 C 
ATOM      2  C   UNL     1      -2.067   3.158 -22.553  0.00  0.00    +0.124 C 
ATOM      3  C   UNL     1      -1.831   4.236 -23.240  0.00  0.00    +0.020 C 
ATOM      4  C   UNL     1      -0.611   4.550 -23.558  0.00  0.00    +0.015 C 
ATOM      5  C   UNL     1       0.374   3.786 -23.189  0.00  0.00    +0.059 A 
ATOM      6  C   UNL     1       0.139   2.708 -22.502  0.00  0.00    +0.132 A 
ATOM      7  C   UNL     1       1.124   1.945 -22.134  0.00  0.00    +0.047 A 
ATOM      8  C   UNL     1       2.344   2.259 -22.451  0.00  0.00    +0.019 A 
ATOM      9  C   UNL     1       2.580   3.337 -23.138  0.00  0.00    +0.064 A 
ATOM     10  C   UNL     1       1.595   4.101 -23.507  0.00  0.00    +0.138 A 
ATOM     11  C   UNL     1      -3.281   3.600 -22.701  0.00  0.00    +0.060 C 
ATOM     12  O   UNL     1      -1.082   2.394 -22.184  0.00  0.00    -0.482 OA
ENDROOT
BRANCH   9  13
ATOM     13  C   UNL     1       3.800   3.652 -23.456  0.00  0.00    +0.190 C 
ATOM     14  O   UNL     1       4.442   2.950 -24.343  0.00  0.00    -0.287 OA
BRANCH  13  15
ATOM     15  C   UNL     1       4.379   4.668 -22.888  0.00  0.00    +0.052 C 
ATOM     16  C   UNL     1       5.597   4.559 -22.447  0.00  0.00    +0.012 C 
BRANCH  16  17
ATOM     17  C   UNL     1       6.176   5.575 -21.878  0.00  0.00    -0.025 A 
ATOM     18  C   UNL     1       5.734   6.779 -22.093  0.00  0.00    +0.011 A 
ATOM     19  C   UNL     1       6.313   7.794 -21.525  0.00  0.00    +0.046 A 
ATOM     20  C   UNL     1       7.334   7.606 -20.741  0.00  0.00    +0.117 A 
ATOM     21  C   UNL     1       7.775   6.402 -20.526  0.00  0.00    +0.046 A 
ATOM     22  C   UNL     1       7.196   5.387 -21.095  0.00  0.00    +0.011 A 
BRANCH  20  23
ATOM     23  O   UNL     1       7.913   8.622 -20.172  0.00  0.00    -0.507 OA
ATOM     24  H   UNL     1       7.853   9.473 -20.561  0.00  0.00    +0.292 HD
ENDBRANCH  20  23
ENDBRANCH  16  17
ENDBRANCH  13  15
ENDBRANCH   9  13
BRANCH  10  25
ATOM     25  O   UNL     1       1.830   5.180 -24.195  0.00  0.00    -0.505 OA
ATOM     26  H   UNL     1       2.101   5.963 -23.758  0.00  0.00    +0.292 HD
ENDBRANCH  10  25
TORSDOF 5
ENDMDL
