MODEL 1
REMARK VINA RESULT:    -9.769      0.000      0.000
REMARK INTER + INTRA:          -9.769
REMARK INTER:                  -9.769
REMARK INTRA:                   0.000
REMARK UNBOUND:                 0.000
REMARK  Name = ZINC000071789706
REMARK  2 active torsions:
REMARK  status: ('A' for Active; 'I' for Inactive)
REMARK    1  A    between atoms: C_9  and  C_10
REMARK    2  A    between atoms: C_14  and  C_15
REMARK                            x       y       z     vdW  Elec       q    Type
REMARK                         _______ _______ _______ _____ _____    ______ ____
ROOT
ATOM      1  C   UNL     1       0.167   2.619 -24.406  0.00  0.00    +0.020 C 
ATOM      2  C   UNL     1      -0.413   2.552 -23.245  0.00  0.00    +0.036 C 
ATOM      3  C   UNL     1       0.164   2.257 -22.118  0.00  0.00    +0.335 C 
ATOM      4  O   UNL     1      -0.738   2.291 -21.183  0.00  0.00    -0.455 OA
ATOM      5  C   UNL     1      -1.873   2.608 -21.732  0.00  0.00    +0.216 C 
ATOM      6  C   UNL     1      -3.064   2.771 -21.236  0.00  0.00    +0.192 C 
ATOM      7  O   UNL     1      -4.254   2.933 -20.740  0.00  0.00    -0.361 OA
ATOM      8  C   UNL     1      -4.053   3.095 -22.014  0.00  0.00    +0.097 C 
ATOM      9  C   UNL     1      -3.852   3.256 -23.288  0.00  0.00    +0.041 C 
ATOM     10  C   UNL     1      -4.842   3.580 -24.066  0.00  0.00    +0.030 C 
ATOM     11  C   UNL     1      -4.641   3.741 -25.340  0.00  0.00    -0.028 C 
ATOM     12  C   UNL     1      -3.451   3.579 -25.836  0.00  0.00    -0.077 C 
ATOM     13  C   UNL     1      -2.461   3.255 -25.059  0.00  0.00    +0.031 C 
ATOM     14  C   UNL     1      -2.662   3.093 -23.784  0.00  0.00    +0.016 C 
ATOM     15  C   UNL     1      -3.249   3.740 -27.110  0.00  0.00    +0.039 C 
ATOM     16  C   UNL     1      -5.312   3.375 -22.177  0.00  0.00    +0.044 C 
ATOM     17  O   UNL     1       1.423   1.976 -21.955  0.00  0.00    -0.245 OA
ATOM     18  C   UNL     1      -1.672   2.770 -23.006  0.00  0.00    +0.069 C 
ENDROOT
TORSDOF 0
ENDMDL
MODEL 2
REMARK VINA RESULT:    -9.762      1.931      3.502
REMARK INTER + INTRA:          -9.762
REMARK INTER:                  -9.762
REMARK INTRA:                   0.000
REMARK UNBOUND:                 0.000
REMARK  Name = ZINC000071789706
REMARK  2 active torsions:
REMARK  status: ('A' for Active; 'I' for Inactive)
REMARK    1  A    between atoms: C_9  and  C_10
REMARK    2  A    between atoms: C_14  and  C_15
REMARK                            x       y       z     vdW  Elec       q    Type
REMARK                         _______ _______ _______ _____ _____    ______ ____
ROOT
ATOM      1  C   UNL     1      -0.260   2.252 -22.336  0.00  0.00    +0.020 C 
ATOM      2  C   UNL     1      -0.628   2.758 -23.476  0.00  0.00    +0.036 C 
ATOM      3  C   UNL     1       0.142   2.968 -24.502  0.00  0.00    +0.335 C 
ATOM      4  O   UNL     1      -0.584   3.482 -25.451  0.00  0.00    -0.455 OA
ATOM      5  C   UNL     1      -1.802   3.588 -25.010  0.00  0.00    +0.216 C 
ATOM      6  C   UNL     1      -2.891   4.035 -25.563  0.00  0.00    +0.192 C 
ATOM      7  O   UNL     1      -3.980   4.481 -26.116  0.00  0.00    -0.361 OA
ATOM      8  C   UNL     1      -4.006   4.033 -24.896  0.00  0.00    +0.097 C 
ATOM      9  C   UNL     1      -4.033   3.586 -23.676  0.00  0.00    +0.041 C 
ATOM     10  C   UNL     1      -5.149   3.585 -23.008  0.00  0.00    +0.030 C 
ATOM     11  C   UNL     1      -5.176   3.137 -21.788  0.00  0.00    -0.028 C 
ATOM     12  C   UNL     1      -4.087   2.690 -21.235  0.00  0.00    -0.077 C 
ATOM     13  C   UNL     1      -2.972   2.691 -21.902  0.00  0.00    +0.031 C 
ATOM     14  C   UNL     1      -2.944   3.139 -23.123  0.00  0.00    +0.016 C 
ATOM     15  C   UNL     1      -4.114   2.243 -20.015  0.00  0.00    +0.039 C 
ATOM     16  C   UNL     1      -5.279   4.291 -24.830  0.00  0.00    +0.044 C 
ATOM     17  O   UNL     1       1.415   2.711 -24.569  0.00  0.00    -0.245 OA
ATOM     18  C   UNL     1      -1.829   3.140 -23.790  0.00  0.00    +0.069 C 
ENDROOT
TORSDOF 0
ENDMDL
MODEL 3
REMARK VINA RESULT:    -9.610      2.131      4.971
REMARK INTER + INTRA:          -9.610
REMARK INTER:                  -9.610
REMARK INTRA:                   0.000
REMARK UNBOUND:                 0.000
REMARK  Name = ZINC000071789706
REMARK  2 active torsions:
REMARK  status: ('A' for Active; 'I' for Inactive)
REMARK    1  A    between atoms: C_9  and  C_10
REMARK    2  A    between atoms: C_14  and  C_15
REMARK                            x       y       z     vdW  Elec       q    Type
REMARK                         _______ _______ _______ _____ _____    ______ ____
ROOT
ATOM      1  C   UNL     1      -3.953   2.437 -20.672  0.00  0.00    +0.020 C 
ATOM      2  C   UNL     1      -4.141   2.889 -21.877  0.00  0.00    +0.036 C 
ATOM      3  C   UNL     1      -5.274   3.287 -22.374  0.00  0.00    +0.335 C 
ATOM      4  O   UNL     1      -5.064   3.667 -23.600  0.00  0.00    -0.455 OA
ATOM      5  C   UNL     1      -3.800   3.503 -23.859  0.00  0.00    +0.216 C 
ATOM      6  C   UNL     1      -3.095   3.729 -24.928  0.00  0.00    +0.192 C 
ATOM      7  O   UNL     1      -2.391   3.955 -25.997  0.00  0.00    -0.361 OA
ATOM      8  C   UNL     1      -1.821   3.475 -24.932  0.00  0.00    +0.097 C 
ATOM      9  C   UNL     1      -1.251   2.995 -23.867  0.00  0.00    +0.041 C 
ATOM     10  C   UNL     1       0.024   2.740 -23.870  0.00  0.00    +0.030 C 
ATOM     11  C   UNL     1       0.594   2.260 -22.805  0.00  0.00    -0.028 C 
ATOM     12  C   UNL     1      -0.111   2.034 -21.736  0.00  0.00    -0.077 C 
ATOM     13  C   UNL     1      -1.386   2.288 -21.733  0.00  0.00    +0.031 C 
ATOM     14  C   UNL     1      -1.956   2.768 -22.798  0.00  0.00    +0.016 C 
ATOM     15  C   UNL     1       0.458   1.553 -20.671  0.00  0.00    +0.039 C 
ATOM     16  C   UNL     1      -0.678   3.459 -25.550  0.00  0.00    +0.044 C 
ATOM     17  O   UNL     1      -6.417   3.303 -21.756  0.00  0.00    -0.245 OA
ATOM     18  C   UNL     1      -3.231   3.022 -22.794  0.00  0.00    +0.069 C 
ENDROOT
TORSDOF 0
ENDMDL
MODEL 4
REMARK VINA RESULT:    -9.129      2.355      4.125
REMARK INTER + INTRA:          -9.129
REMARK INTER:                  -9.129
REMARK INTRA:                   0.000
REMARK UNBOUND:                 0.000
REMARK  Name = ZINC000071789706
REMARK  2 active torsions:
REMARK  status: ('A' for Active; 'I' for Inactive)
REMARK    1  A    between atoms: C_9  and  C_10
REMARK    2  A    between atoms: C_14  and  C_15
REMARK                            x       y       z     vdW  Elec       q    Type
REMARK                         _______ _______ _______ _____ _____    ______ ____
ROOT
ATOM      1  C   UNL     1      -1.559   3.438 -25.933  0.00  0.00    +0.020 C 
ATOM      2  C   UNL     1      -2.773   3.641 -25.516  0.00  0.00    +0.036 C 
ATOM      3  C   UNL     1      -3.763   4.084 -26.234  0.00  0.00    +0.335 C 
ATOM      4  O   UNL     1      -4.813   4.154 -25.470  0.00  0.00    -0.455 OA
ATOM      5  C   UNL     1      -4.472   3.754 -24.281  0.00  0.00    +0.216 C 
ATOM      6  C   UNL     1      -5.147   3.638 -23.176  0.00  0.00    +0.192 C 
ATOM      7  O   UNL     1      -5.822   3.521 -22.071  0.00  0.00    -0.361 OA
ATOM      8  C   UNL     1      -4.561   3.204 -22.100  0.00  0.00    +0.097 C 
ATOM      9  C   UNL     1      -3.301   2.888 -22.128  0.00  0.00    +0.041 C 
ATOM     10  C   UNL     1      -2.715   2.454 -21.052  0.00  0.00    +0.030 C 
ATOM     11  C   UNL     1      -1.454   2.137 -21.080  0.00  0.00    -0.028 C 
ATOM     12  C   UNL     1      -0.780   2.254 -22.185  0.00  0.00    -0.077 C 
ATOM     13  C   UNL     1      -1.365   2.687 -23.262  0.00  0.00    +0.031 C 
ATOM     14  C   UNL     1      -2.626   3.004 -23.233  0.00  0.00    +0.016 C 
ATOM     15  C   UNL     1       0.481   1.937 -22.214  0.00  0.00    +0.039 C 
ATOM     16  C   UNL     1      -4.613   2.887 -20.840  0.00  0.00    +0.044 C 
ATOM     17  O   UNL     1      -3.712   4.402 -27.493  0.00  0.00    -0.245 OA
ATOM     18  C   UNL     1      -3.212   3.437 -24.310  0.00  0.00    +0.069 C 
ENDROOT
TORSDOF 0
ENDMDL
MODEL 5
REMARK VINA RESULT:    -8.655      1.487      4.424
REMARK INTER + INTRA:          -8.655
REMARK INTER:                  -8.655
REMARK INTRA:                   0.000
REMARK UNBOUND:                 0.000
REMARK  Name = ZINC000071789706
REMARK  2 active torsions:
REMARK  status: ('A' for Active; 'I' for Inactive)
REMARK    1  A    between atoms: C_9  and  C_10
REMARK    2  A    between atoms: C_14  and  C_15
REMARK                            x       y       z     vdW  Elec       q    Type
REMARK                         _______ _______ _______ _____ _____    ______ ____
ROOT
ATOM      1  C   UNL     1      -2.919   4.079 -24.215  0.00  0.00    +0.020 C 
ATOM      2  C   UNL     1      -2.697   3.372 -23.147  0.00  0.00    +0.036 C 
ATOM      3  C   UNL     1      -3.586   3.018 -22.267  0.00  0.00    +0.335 C 
ATOM      4  O   UNL     1      -2.985   2.322 -21.347  0.00  0.00    -0.455 OA
ATOM      5  C   UNL     1      -1.726   2.246 -21.660  0.00  0.00    +0.216 C 
ATOM      6  C   UNL     1      -0.718   1.670 -21.075  0.00  0.00    +0.192 C 
ATOM      7  O   UNL     1       0.290   1.093 -20.490  0.00  0.00    -0.361 OA
ATOM      8  C   UNL     1       0.468   1.742 -21.602  0.00  0.00    +0.097 C 
ATOM      9  C   UNL     1       0.646   2.391 -22.714  0.00  0.00    +0.041 C 
ATOM     10  C   UNL     1       1.832   2.463 -23.242  0.00  0.00    +0.030 C 
ATOM     11  C   UNL     1       2.010   3.112 -24.355  0.00  0.00    -0.028 C 
ATOM     12  C   UNL     1       1.002   3.689 -24.939  0.00  0.00    -0.077 C 
ATOM     13  C   UNL     1      -0.184   3.616 -24.412  0.00  0.00    +0.031 C 
ATOM     14  C   UNL     1      -0.362   2.967 -23.299  0.00  0.00    +0.016 C 
ATOM     15  C   UNL     1       1.180   4.337 -26.052  0.00  0.00    +0.039 C 
ATOM     16  C   UNL     1       1.734   1.451 -21.569  0.00  0.00    +0.044 C 
ATOM     17  O   UNL     1      -4.852   3.309 -22.299  0.00  0.00    -0.245 OA
ATOM     18  C   UNL     1      -1.548   2.895 -22.772  0.00  0.00    +0.069 C 
ENDROOT
TORSDOF 0
ENDMDL
MODEL 6
REMARK VINA RESULT:    -8.385      2.395      4.166
REMARK INTER + INTRA:          -8.385
REMARK INTER:                  -8.385
REMARK INTRA:                   0.000
REMARK UNBOUND:                 0.000
REMARK  Name = ZINC000071789706
REMARK  2 active torsions:
REMARK  status: ('A' for Active; 'I' for Inactive)
REMARK    1  A    between atoms: C_9  and  C_10
REMARK    2  A    between atoms: C_14  and  C_15
REMARK                            x       y       z     vdW  Elec       q    Type
REMARK                         _______ _______ _______ _____ _____    ______ ____
ROOT
ATOM      1  C   UNL     1       0.187   1.327 -20.589  0.00  0.00    +0.020 C 
ATOM      2  C   UNL     1       0.979   1.573 -21.590  0.00  0.00    +0.036 C 
ATOM      3  C   UNL     1       2.239   1.263 -21.661  0.00  0.00    +0.335 C 
ATOM      4  O   UNL     1       2.689   1.670 -22.811  0.00  0.00    -0.455 OA
ATOM      5  C   UNL     1       1.707   2.233 -23.450  0.00  0.00    +0.216 C 
ATOM      6  C   UNL     1       1.638   2.792 -24.621  0.00  0.00    +0.192 C 
ATOM      7  O   UNL     1       1.570   3.352 -25.793  0.00  0.00    -0.361 OA
ATOM      8  C   UNL     1       0.513   3.291 -25.039  0.00  0.00    +0.097 C 
ATOM      9  C   UNL     1      -0.544   3.231 -24.284  0.00  0.00    +0.041 C 
ATOM     10  C   UNL     1      -1.670   3.730 -24.701  0.00  0.00    +0.030 C 
ATOM     11  C   UNL     1      -2.726   3.670 -23.947  0.00  0.00    -0.028 C 
ATOM     12  C   UNL     1      -2.658   3.111 -22.775  0.00  0.00    -0.077 C 
ATOM     13  C   UNL     1      -1.533   2.612 -22.358  0.00  0.00    +0.031 C 
ATOM     14  C   UNL     1      -0.475   2.672 -23.113  0.00  0.00    +0.016 C 
ATOM     15  C   UNL     1      -3.715   3.050 -22.021  0.00  0.00    +0.039 C 
ATOM     16  C   UNL     1      -0.176   3.902 -25.955  0.00  0.00    +0.044 C 
ATOM     17  O   UNL     1       2.929   0.652 -20.744  0.00  0.00    -0.245 OA
ATOM     18  C   UNL     1       0.650   2.173 -22.695  0.00  0.00    +0.069 C 
ENDROOT
TORSDOF 0
ENDMDL
MODEL 7
REMARK VINA RESULT:    -8.289      1.912      3.858
REMARK INTER + INTRA:          -8.289
REMARK INTER:                  -8.289
REMARK INTRA:                   0.000
REMARK UNBOUND:                 0.000
REMARK  Name = ZINC000071789706
REMARK  2 active torsions:
REMARK  status: ('A' for Active; 'I' for Inactive)
REMARK    1  A    between atoms: C_9  and  C_10
REMARK    2  A    between atoms: C_14  and  C_15
REMARK                            x       y       z     vdW  Elec       q    Type
REMARK                         _______ _______ _______ _____ _____    ______ ____
ROOT
ATOM      1  C   UNL     1      -1.734   2.589 -20.910  0.00  0.00    +0.020 C 
ATOM      2  C   UNL     1      -2.844   2.797 -21.554  0.00  0.00    +0.036 C 
ATOM      3  C   UNL     1      -4.040   2.761 -21.045  0.00  0.00    +0.335 C 
ATOM      4  O   UNL     1      -4.889   3.019 -21.995  0.00  0.00    -0.455 OA
ATOM      5  C   UNL     1      -4.217   3.215 -23.091  0.00  0.00    +0.216 C 
ATOM      6  C   UNL     1      -4.593   3.501 -24.302  0.00  0.00    +0.192 C 
ATOM      7  O   UNL     1      -4.970   3.787 -25.513  0.00  0.00    -0.361 OA
ATOM      8  C   UNL     1      -3.706   3.649 -25.240  0.00  0.00    +0.097 C 
ATOM      9  C   UNL     1      -2.443   3.512 -24.967  0.00  0.00    +0.041 C 
ATOM     10  C   UNL     1      -1.555   3.660 -25.905  0.00  0.00    +0.030 C 
ATOM     11  C   UNL     1      -0.291   3.523 -25.632  0.00  0.00    -0.028 C 
ATOM     12  C   UNL     1       0.085   3.237 -24.421  0.00  0.00    -0.077 C 
ATOM     13  C   UNL     1      -0.803   3.089 -23.483  0.00  0.00    +0.031 C 
ATOM     14  C   UNL     1      -2.067   3.226 -23.756  0.00  0.00    +0.016 C 
ATOM     15  C   UNL     1       1.348   3.100 -24.148  0.00  0.00    +0.039 C 
ATOM     16  C   UNL     1      -3.411   3.900 -26.481  0.00  0.00    +0.044 C 
ATOM     17  O   UNL     1      -4.336   2.510 -19.804  0.00  0.00    -0.245 OA
ATOM     18  C   UNL     1      -2.954   3.078 -22.818  0.00  0.00    +0.069 C 
ENDROOT
TORSDOF 0
ENDMDL
MODEL 8
REMARK VINA RESULT:    -8.122      2.956      5.808
REMARK INTER + INTRA:          -8.122
REMARK INTER:                  -8.122
REMARK INTRA:                   0.000
REMARK UNBOUND:                 0.000
REMARK  Name = ZINC000071789706
REMARK  2 active torsions:
REMARK  status: ('A' for Active; 'I' for Inactive)
REMARK    1  A    between atoms: C_9  and  C_10
REMARK    2  A    between atoms: C_14  and  C_15
REMARK                            x       y       z     vdW  Elec       q    Type
REMARK                         _______ _______ _______ _____ _____    ______ ____
ROOT
ATOM      1  C   UNL     1       1.217   3.979 -25.519  0.00  0.00    +0.020 C 
ATOM      2  C   UNL     1       0.474   3.384 -24.633  0.00  0.00    +0.036 C 
ATOM      3  C   UNL     1      -0.817   3.236 -24.693  0.00  0.00    +0.335 C 
ATOM      4  O   UNL     1      -1.198   2.594 -23.629  0.00  0.00    -0.455 OA
ATOM      5  C   UNL     1      -0.142   2.345 -22.911  0.00  0.00    +0.216 C 
ATOM      6  C   UNL     1       0.011   1.737 -21.773  0.00  0.00    +0.192 C 
ATOM      7  O   UNL     1       0.165   1.128 -20.634  0.00  0.00    -0.361 OA
ATOM      8  C   UNL     1       1.197   1.617 -21.255  0.00  0.00    +0.097 C 
ATOM      9  C   UNL     1       2.229   2.105 -21.875  0.00  0.00    +0.041 C 
ATOM     10  C   UNL     1       3.416   1.985 -21.357  0.00  0.00    +0.030 C 
ATOM     11  C   UNL     1       4.449   2.474 -21.978  0.00  0.00    -0.028 C 
ATOM     12  C   UNL     1       4.295   3.082 -23.116  0.00  0.00    -0.077 C 
ATOM     13  C   UNL     1       3.109   3.202 -23.634  0.00  0.00    +0.031 C 
ATOM     14  C   UNL     1       2.076   2.714 -23.014  0.00  0.00    +0.016 C 
ATOM     15  C   UNL     1       5.327   3.571 -23.737  0.00  0.00    +0.039 C 
ATOM     16  C   UNL     1       1.971   1.196 -20.298  0.00  0.00    +0.044 C 
ATOM     17  O   UNL     1      -1.590   3.656 -25.649  0.00  0.00    -0.245 OA
ATOM     18  C   UNL     1       0.890   2.833 -23.532  0.00  0.00    +0.069 C 
ENDROOT
TORSDOF 0
ENDMDL
MODEL 9
REMARK VINA RESULT:    -8.102      1.703      4.178
REMARK INTER + INTRA:          -8.102
REMARK INTER:                  -8.102
REMARK INTRA:                   0.000
REMARK UNBOUND:                 0.000
REMARK  Name = ZINC000071789706
REMARK  2 active torsions:
REMARK  status: ('A' for Active; 'I' for Inactive)
REMARK    1  A    between atoms: C_9  and  C_10
REMARK    2  A    between atoms: C_14  and  C_15
REMARK                            x       y       z     vdW  Elec       q    Type
REMARK                         _______ _______ _______ _____ _____    ______ ____
ROOT
ATOM      1  C   UNL     1      -2.694   3.753 -26.420  0.00  0.00    +0.020 C 
ATOM      2  C   UNL     1      -3.261   3.617 -25.258  0.00  0.00    +0.036 C 
ATOM      3  C   UNL     1      -4.524   3.786 -24.999  0.00  0.00    +0.335 C 
ATOM      4  O   UNL     1      -4.708   3.561 -23.732  0.00  0.00    -0.455 OA
ATOM      5  C   UNL     1      -3.559   3.254 -23.207  0.00  0.00    +0.216 C 
ATOM      6  C   UNL     1      -3.211   2.947 -21.993  0.00  0.00    +0.192 C 
ATOM      7  O   UNL     1      -2.864   2.641 -20.778  0.00  0.00    -0.361 OA
ATOM      8  C   UNL     1      -1.970   2.675 -21.721  0.00  0.00    +0.097 C 
ATOM      9  C   UNL     1      -1.076   2.710 -22.664  0.00  0.00    +0.041 C 
ATOM     10  C   UNL     1       0.167   2.437 -22.393  0.00  0.00    +0.030 C 
ATOM     11  C   UNL     1       1.060   2.472 -23.336  0.00  0.00    -0.028 C 
ATOM     12  C   UNL     1       0.713   2.778 -24.551  0.00  0.00    -0.077 C 
ATOM     13  C   UNL     1      -0.529   3.050 -24.822  0.00  0.00    +0.031 C 
ATOM     14  C   UNL     1      -1.423   3.016 -23.879  0.00  0.00    +0.016 C 
ATOM     15  C   UNL     1       1.607   2.813 -25.494  0.00  0.00    +0.039 C 
ATOM     16  C   UNL     1      -1.052   2.341 -20.864  0.00  0.00    +0.044 C 
ATOM     17  O   UNL     1      -5.441   4.120 -25.857  0.00  0.00    -0.245 OA
ATOM     18  C   UNL     1      -2.665   3.288 -24.150  0.00  0.00    +0.069 C 
ENDROOT
TORSDOF 0
ENDMDL
