MODEL 1
REMARK VINA RESULT:    -8.851      0.000      0.000
REMARK INTER + INTRA:         -10.981
REMARK INTER:                 -11.308
REMARK INTRA:                   0.327
REMARK UNBOUND:                -0.060
REMARK  Name = ZINC000000689942
REMARK  8 active torsions:
REMARK  status: ('A' for Active; 'I' for Inactive)
REMARK    1  A    between atoms: C_1  and  O_2
REMARK    2  A    between atoms: O_2  and  C_3
REMARK    3  A    between atoms: C_8  and  O_9
REMARK    4  A    between atoms: O_9  and  C_10
REMARK    5  A    between atoms: C_15  and  O_16
REMARK    6  A    between atoms: O_16  and  C_17
REMARK    7  A    between atoms: C_18  and  O_19
REMARK    8  A    between atoms: O_19  and  C_20
REMARK                            x       y       z     vdW  Elec       q    Type
REMARK                         _______ _______ _______ _____ _____    ______ ____
ROOT
ATOM      1  C   UNL     1      -4.349   3.459 -22.636  0.00  0.00    +0.162 A 
ATOM      2  C   UNL     1      -3.898   3.626 -23.843  0.00  0.00    +0.053 A 
ATOM      3  C   UNL     1      -2.631   3.468 -24.091  0.00  0.00    -0.033 A 
ATOM      4  C   UNL     1      -1.817   3.144 -23.131  0.00  0.00    +0.006 A 
ATOM      5  C   UNL     1      -0.550   2.986 -23.380  0.00  0.00    +0.053 A 
ATOM      6  C   UNL     1       0.265   2.662 -22.420  0.00  0.00    +0.035 A 
ATOM      7  C   UNL     1       1.531   2.505 -22.667  0.00  0.00    -0.007 A 
ATOM      8  C   UNL     1       2.346   2.180 -21.708  0.00  0.00    +0.058 A 
ATOM      9  C   UNL     1       3.612   2.023 -21.955  0.00  0.00    +0.162 A 
ATOM     10  C   UNL     1       4.063   2.190 -23.162  0.00  0.00    +0.162 A 
ATOM     11  C   UNL     1       3.249   2.514 -24.122  0.00  0.00    +0.063 A 
ATOM     12  C   UNL     1       1.983   2.671 -23.875  0.00  0.00    +0.050 A 
ATOM     13  C   UNL     1       1.168   2.996 -24.834  0.00  0.00    +0.260 A 
ATOM     14  O   UNL     1       1.620   3.163 -26.042  0.00  0.00    -0.267 OA
ATOM     15  N   UNL     1      -0.098   3.153 -24.587  0.00  0.00    -0.307 N 
ATOM     16  C   UNL     1      -0.913   3.478 -25.546  0.00  0.00    +0.130 C 
ATOM     17  C   UNL     1      -2.268   2.977 -21.924  0.00  0.00    +0.059 A 
ATOM     18  C   UNL     1      -2.179   3.635 -25.299  0.00  0.00    +0.057 C 
ATOM     19  C   UNL     1      -3.534   3.134 -21.677  0.00  0.00    +0.162 A 
ENDROOT
BRANCH   1  21
ATOM     20  C   UNL     1      -6.308   2.636 -21.888  0.00  0.00    +0.277 C 
ATOM     21  O   UNL     1      -5.616   3.616 -22.388  0.00  0.00    -0.491 OA
ENDBRANCH   1  21
BRANCH  10  22
ATOM     22  O   UNL     1       5.330   2.032 -23.411  0.00  0.00    -0.491 OA
ATOM     23  C   UNL     1       6.110   3.069 -23.495  0.00  0.00    +0.277 C 
ENDBRANCH  10  22
BRANCH   9  24
ATOM     24  O   UNL     1       4.427   1.698 -20.996  0.00  0.00    -0.491 OA
ATOM     25  C   UNL     1       4.545   0.454 -20.637  0.00  0.00    +0.277 C 
ENDBRANCH   9  24
BRANCH  19  26
ATOM     26  O   UNL     1      -3.987   2.967 -20.468  0.00  0.00    -0.491 OA
ATOM     27  C   UNL     1      -3.404   3.559 -19.469  0.00  0.00    +0.277 C 
ENDBRANCH  19  26
TORSDOF 4
ENDMDL
MODEL 2
REMARK VINA RESULT:    -8.543      1.104      7.093
REMARK INTER + INTRA:         -10.600
REMARK INTER:                 -10.290
REMARK INTRA:                  -0.310
REMARK UNBOUND:                -0.060
REMARK  Name = ZINC000000689942
REMARK  8 active torsions:
REMARK  status: ('A' for Active; 'I' for Inactive)
REMARK    1  A    between atoms: C_1  and  O_2
REMARK    2  A    between atoms: O_2  and  C_3
REMARK    3  A    between atoms: C_8  and  O_9
REMARK    4  A    between atoms: O_9  and  C_10
REMARK    5  A    between atoms: C_15  and  O_16
REMARK    6  A    between atoms: O_16  and  C_17
REMARK    7  A    between atoms: C_18  and  O_19
REMARK    8  A    between atoms: O_19  and  C_20
REMARK                            x       y       z     vdW  Elec       q    Type
REMARK                         _______ _______ _______ _____ _____    ______ ____
ROOT
ATOM      1  C   UNL     1       4.513   2.072 -22.815  0.00  0.00    +0.162 A 
ATOM      2  C   UNL     1       4.099   2.433 -23.993  0.00  0.00    +0.053 A 
ATOM      3  C   UNL     1       2.837   2.669 -24.195  0.00  0.00    -0.033 A 
ATOM      4  C   UNL     1       1.988   2.543 -23.219  0.00  0.00    +0.006 A 
ATOM      5  C   UNL     1       0.725   2.779 -23.421  0.00  0.00    +0.053 A 
ATOM      6  C   UNL     1      -0.124   2.653 -22.444  0.00  0.00    +0.035 A 
ATOM      7  C   UNL     1      -1.386   2.889 -22.645  0.00  0.00    -0.007 A 
ATOM      8  C   UNL     1      -2.235   2.764 -21.669  0.00  0.00    +0.058 A 
ATOM      9  C   UNL     1      -3.497   2.999 -21.871  0.00  0.00    +0.162 A 
ATOM     10  C   UNL     1      -3.910   3.361 -23.049  0.00  0.00    +0.162 A 
ATOM     11  C   UNL     1      -3.062   3.487 -24.026  0.00  0.00    +0.063 A 
ATOM     12  C   UNL     1      -1.800   3.251 -23.824  0.00  0.00    +0.050 A 
ATOM     13  C   UNL     1      -0.950   3.377 -24.800  0.00  0.00    +0.260 A 
ATOM     14  O   UNL     1      -1.364   3.739 -25.979  0.00  0.00    -0.267 OA
ATOM     15  N   UNL     1       0.312   3.141 -24.599  0.00  0.00    -0.307 N 
ATOM     16  C   UNL     1       1.161   3.267 -25.575  0.00  0.00    +0.130 C 
ATOM     17  C   UNL     1       2.401   2.182 -22.040  0.00  0.00    +0.059 A 
ATOM     18  C   UNL     1       2.423   3.031 -25.373  0.00  0.00    +0.057 C 
ATOM     19  C   UNL     1       3.663   1.946 -21.839  0.00  0.00    +0.162 A 
ENDROOT
BRANCH   1  21
ATOM     20  C   UNL     1       6.642   2.799 -22.719  0.00  0.00    +0.277 C 
ATOM     21  O   UNL     1       5.775   1.836 -22.614  0.00  0.00    -0.491 OA
ENDBRANCH   1  21
BRANCH  10  22
ATOM     22  O   UNL     1      -5.173   3.597 -23.251  0.00  0.00    -0.491 OA
ATOM     23  C   UNL     1      -5.568   4.099 -24.383  0.00  0.00    +0.277 C 
ENDBRANCH  10  22
BRANCH   9  24
ATOM     24  O   UNL     1      -4.346   2.874 -20.895  0.00  0.00    -0.491 OA
ATOM     25  C   UNL     1      -4.471   1.731 -20.285  0.00  0.00    +0.277 C 
ENDBRANCH   9  24
BRANCH  19  26
ATOM     26  O   UNL     1       4.077   1.584 -20.660  0.00  0.00    -0.491 OA
ATOM     27  C   UNL     1       4.069   0.328 -20.325  0.00  0.00    +0.277 C 
ENDBRANCH  19  26
TORSDOF 4
ENDMDL
MODEL 3
REMARK VINA RESULT:    -7.944      1.820      3.414
REMARK INTER + INTRA:          -9.861
REMARK INTER:                  -9.952
REMARK INTRA:                   0.091
REMARK UNBOUND:                -0.060
REMARK  Name = ZINC000000689942
REMARK  8 active torsions:
REMARK  status: ('A' for Active; 'I' for Inactive)
REMARK    1  A    between atoms: C_1  and  O_2
REMARK    2  A    between atoms: O_2  and  C_3
REMARK    3  A    between atoms: C_8  and  O_9
REMARK    4  A    between atoms: O_9  and  C_10
REMARK    5  A    between atoms: C_15  and  O_16
REMARK    6  A    between atoms: O_16  and  C_17
REMARK    7  A    between atoms: C_18  and  O_19
REMARK    8  A    between atoms: O_19  and  C_20
REMARK                            x       y       z     vdW  Elec       q    Type
REMARK                         _______ _______ _______ _____ _____    ______ ____
ROOT
ATOM      1  C   UNL     1      -3.693   3.388 -24.338  0.00  0.00    +0.162 A 
ATOM      2  C   UNL     1      -3.564   2.865 -23.155  0.00  0.00    +0.053 A 
ATOM      3  C   UNL     1      -2.379   2.623 -22.676  0.00  0.00    -0.033 A 
ATOM      4  C   UNL     1      -1.324   2.905 -23.381  0.00  0.00    +0.006 A 
ATOM      5  C   UNL     1      -0.139   2.664 -22.903  0.00  0.00    +0.053 A 
ATOM      6  C   UNL     1       0.916   2.946 -23.608  0.00  0.00    +0.035 A 
ATOM      7  C   UNL     1       2.100   2.705 -23.130  0.00  0.00    -0.007 A 
ATOM      8  C   UNL     1       3.156   2.987 -23.834  0.00  0.00    +0.058 A 
ATOM      9  C   UNL     1       4.340   2.746 -23.356  0.00  0.00    +0.162 A 
ATOM     10  C   UNL     1       4.469   2.223 -22.173  0.00  0.00    +0.162 A 
ATOM     11  C   UNL     1       3.414   1.941 -21.468  0.00  0.00    +0.063 A 
ATOM     12  C   UNL     1       2.230   2.182 -21.946  0.00  0.00    +0.050 A 
ATOM     13  C   UNL     1       1.174   1.900 -21.242  0.00  0.00    +0.260 A 
ATOM     14  O   UNL     1       1.304   1.377 -20.058  0.00  0.00    -0.267 OA
ATOM     15  N   UNL     1      -0.010   2.141 -21.720  0.00  0.00    -0.307 N 
ATOM     16  C   UNL     1      -1.066   1.859 -21.015  0.00  0.00    +0.130 C 
ATOM     17  C   UNL     1      -1.453   3.428 -24.564  0.00  0.00    +0.059 A 
ATOM     18  C   UNL     1      -2.250   2.100 -21.493  0.00  0.00    +0.057 C 
ATOM     19  C   UNL     1      -2.638   3.669 -25.042  0.00  0.00    +0.162 A 
ENDROOT
BRANCH   1  21
ATOM     20  C   UNL     1      -5.821   4.057 -24.031  0.00  0.00    +0.277 C 
ATOM     21  O   UNL     1      -4.878   3.629 -24.816  0.00  0.00    -0.491 OA
ENDBRANCH   1  21
BRANCH  10  22
ATOM     22  O   UNL     1       5.654   1.982 -21.695  0.00  0.00    -0.491 OA
ATOM     23  C   UNL     1       6.048   2.574 -20.607  0.00  0.00    +0.277 C 
ENDBRANCH  10  22
BRANCH   9  24
ATOM     24  O   UNL     1       5.396   3.028 -24.061  0.00  0.00    -0.491 OA
ATOM     25  C   UNL     1       6.033   4.143 -23.857  0.00  0.00    +0.277 C 
ENDBRANCH   9  24
BRANCH  19  26
ATOM     26  O   UNL     1      -2.767   4.193 -26.226  0.00  0.00    -0.491 OA
ATOM     27  C   UNL     1      -3.058   3.437 -27.242  0.00  0.00    +0.277 C 
ENDBRANCH  19  26
TORSDOF 4
ENDMDL
MODEL 4
REMARK VINA RESULT:    -7.395      2.370      8.070
REMARK INTER + INTRA:          -9.184
REMARK INTER:                  -9.471
REMARK INTRA:                   0.287
REMARK UNBOUND:                -0.060
REMARK  Name = ZINC000000689942
REMARK  8 active torsions:
REMARK  status: ('A' for Active; 'I' for Inactive)
REMARK    1  A    between atoms: C_1  and  O_2
REMARK    2  A    between atoms: O_2  and  C_3
REMARK    3  A    between atoms: C_8  and  O_9
REMARK    4  A    between atoms: O_9  and  C_10
REMARK    5  A    between atoms: C_15  and  O_16
REMARK    6  A    between atoms: O_16  and  C_17
REMARK    7  A    between atoms: C_18  and  O_19
REMARK    8  A    between atoms: O_19  and  C_20
REMARK                            x       y       z     vdW  Elec       q    Type
REMARK                         _______ _______ _______ _____ _____    ______ ____
ROOT
ATOM      1  C   UNL     1       7.091   4.067 -22.625  0.00  0.00    +0.162 A 
ATOM      2  C   UNL     1       6.777   2.827 -22.398  0.00  0.00    +0.053 A 
ATOM      3  C   UNL     1       5.529   2.460 -22.404  0.00  0.00    -0.033 A 
ATOM      4  C   UNL     1       4.596   3.335 -22.637  0.00  0.00    +0.006 A 
ATOM      5  C   UNL     1       3.349   2.969 -22.643  0.00  0.00    +0.053 A 
ATOM      6  C   UNL     1       2.416   3.844 -22.876  0.00  0.00    +0.035 A 
ATOM      7  C   UNL     1       1.169   3.478 -22.882  0.00  0.00    -0.007 A 
ATOM      8  C   UNL     1       0.235   4.352 -23.115  0.00  0.00    +0.058 A 
ATOM      9  C   UNL     1      -1.012   3.987 -23.121  0.00  0.00    +0.162 A 
ATOM     10  C   UNL     1      -1.326   2.746 -22.894  0.00  0.00    +0.162 A 
ATOM     11  C   UNL     1      -0.393   1.871 -22.661  0.00  0.00    +0.063 A 
ATOM     12  C   UNL     1       0.854   2.237 -22.655  0.00  0.00    +0.050 A 
ATOM     13  C   UNL     1       1.787   1.362 -22.422  0.00  0.00    +0.260 A 
ATOM     14  O   UNL     1       1.472   0.121 -22.195  0.00  0.00    -0.267 OA
ATOM     15  N   UNL     1       3.034   1.728 -22.416  0.00  0.00    -0.307 N 
ATOM     16  C   UNL     1       3.968   0.854 -22.183  0.00  0.00    +0.130 C 
ATOM     17  C   UNL     1       4.911   4.576 -22.864  0.00  0.00    +0.059 A 
ATOM     18  C   UNL     1       5.215   1.219 -22.177  0.00  0.00    +0.057 C 
ATOM     19  C   UNL     1       6.158   4.942 -22.858  0.00  0.00    +0.162 A 
ENDROOT
BRANCH   1  21
ATOM     20  C   UNL     1       9.061   4.299 -23.692  0.00  0.00    +0.277 C 
ATOM     21  O   UNL     1       8.338   4.433 -22.619  0.00  0.00    -0.491 OA
ENDBRANCH   1  21
BRANCH  10  22
ATOM     22  O   UNL     1      -2.574   2.379 -22.900  0.00  0.00    -0.491 OA
ATOM     23  C   UNL     1      -3.271   2.431 -21.804  0.00  0.00    +0.277 C 
ENDBRANCH  10  22
BRANCH   9  24
ATOM     24  O   UNL     1      -1.945   4.861 -23.354  0.00  0.00    -0.491 OA
ATOM     25  C   UNL     1      -2.588   4.839 -24.484  0.00  0.00    +0.277 C 
ENDBRANCH   9  24
BRANCH  19  26
ATOM     26  O   UNL     1       6.472   6.183 -23.085  0.00  0.00    -0.491 OA
ATOM     27  C   UNL     1       6.354   7.067 -22.140  0.00  0.00    +0.277 C 
ENDBRANCH  19  26
TORSDOF 4
ENDMDL
MODEL 5
REMARK VINA RESULT:    -7.370      4.681      6.450
REMARK INTER + INTRA:          -9.153
REMARK INTER:                  -9.093
REMARK INTRA:                  -0.060
REMARK UNBOUND:                -0.060
REMARK  Name = ZINC000000689942
REMARK  8 active torsions:
REMARK  status: ('A' for Active; 'I' for Inactive)
REMARK    1  A    between atoms: C_1  and  O_2
REMARK    2  A    between atoms: O_2  and  C_3
REMARK    3  A    between atoms: C_8  and  O_9
REMARK    4  A    between atoms: O_9  and  C_10
REMARK    5  A    between atoms: C_15  and  O_16
REMARK    6  A    between atoms: O_16  and  C_17
REMARK    7  A    between atoms: C_18  and  O_19
REMARK    8  A    between atoms: O_19  and  C_20
REMARK                            x       y       z     vdW  Elec       q    Type
REMARK                         _______ _______ _______ _____ _____    ______ ____
ROOT
ATOM      1  C   UNL     1       0.871   3.273 -24.043  0.00  0.00    +0.162 A 
ATOM      2  C   UNL     1       2.073   2.777 -24.049  0.00  0.00    +0.053 A 
ATOM      3  C   UNL     1       3.075   3.496 -23.638  0.00  0.00    -0.033 A 
ATOM      4  C   UNL     1       2.875   4.712 -23.222  0.00  0.00    +0.006 A 
ATOM      5  C   UNL     1       3.877   5.431 -22.811  0.00  0.00    +0.053 A 
ATOM      6  C   UNL     1       3.677   6.646 -22.395  0.00  0.00    +0.035 A 
ATOM      7  C   UNL     1       4.679   7.366 -21.984  0.00  0.00    -0.007 A 
ATOM      8  C   UNL     1       4.480   8.581 -21.568  0.00  0.00    +0.058 A 
ATOM      9  C   UNL     1       5.481   9.300 -21.157  0.00  0.00    +0.162 A 
ATOM     10  C   UNL     1       6.683   8.804 -21.163  0.00  0.00    +0.162 A 
ATOM     11  C   UNL     1       6.883   7.589 -21.579  0.00  0.00    +0.063 A 
ATOM     12  C   UNL     1       5.881   6.870 -21.990  0.00  0.00    +0.050 A 
ATOM     13  C   UNL     1       6.080   5.655 -22.406  0.00  0.00    +0.260 A 
ATOM     14  O   UNL     1       7.283   5.159 -22.412  0.00  0.00    -0.267 OA
ATOM     15  N   UNL     1       5.079   4.935 -22.817  0.00  0.00    -0.307 N 
ATOM     16  C   UNL     1       5.278   3.720 -23.233  0.00  0.00    +0.130 C 
ATOM     17  C   UNL     1       1.673   5.208 -23.216  0.00  0.00    +0.059 A 
ATOM     18  C   UNL     1       4.277   3.001 -23.644  0.00  0.00    +0.057 C 
ATOM     19  C   UNL     1       0.672   4.488 -23.627  0.00  0.00    +0.162 A 
ENDROOT
BRANCH   1  21
ATOM     20  C   UNL     1      -0.927   1.995 -23.591  0.00  0.00    +0.277 C 
ATOM     21  O   UNL     1      -0.130   2.554 -24.453  0.00  0.00    -0.491 OA
ENDBRANCH   1  21
BRANCH  10  22
ATOM     22  O   UNL     1       7.685   9.524 -20.752  0.00  0.00    -0.491 OA
ATOM     23  C   UNL     1       8.857   9.374 -21.293  0.00  0.00    +0.277 C 
ENDBRANCH  10  22
BRANCH   9  24
ATOM     24  O   UNL     1       5.282  10.516 -20.741  0.00  0.00    -0.491 OA
ATOM     25  C   UNL     1       4.079  10.911 -20.442  0.00  0.00    +0.277 C 
ENDBRANCH   9  24
BRANCH  19  26
ATOM     26  O   UNL     1      -0.531   4.984 -23.621  0.00  0.00    -0.491 OA
ATOM     27  C   UNL     1      -1.104   5.285 -22.495  0.00  0.00    +0.277 C 
ENDBRANCH  19  26
TORSDOF 4
ENDMDL
MODEL 6
REMARK VINA RESULT:    -7.312      3.183      7.850
REMARK INTER + INTRA:          -9.081
REMARK INTER:                  -9.074
REMARK INTRA:                  -0.007
REMARK UNBOUND:                -0.060
REMARK  Name = ZINC000000689942
REMARK  8 active torsions:
REMARK  status: ('A' for Active; 'I' for Inactive)
REMARK    1  A    between atoms: C_1  and  O_2
REMARK    2  A    between atoms: O_2  and  C_3
REMARK    3  A    between atoms: C_8  and  O_9
REMARK    4  A    between atoms: O_9  and  C_10
REMARK    5  A    between atoms: C_15  and  O_16
REMARK    6  A    between atoms: O_16  and  C_17
REMARK    7  A    between atoms: C_18  and  O_19
REMARK    8  A    between atoms: O_19  and  C_20
REMARK                            x       y       z     vdW  Elec       q    Type
REMARK                         _______ _______ _______ _____ _____    ______ ____
ROOT
ATOM      1  C   UNL     1       6.800   6.392 -22.295  0.00  0.00    +0.162 A 
ATOM      2  C   UNL     1       6.882   5.210 -22.829  0.00  0.00    +0.053 A 
ATOM      3  C   UNL     1       5.800   4.548 -23.113  0.00  0.00    -0.033 A 
ATOM      4  C   UNL     1       4.635   5.069 -22.863  0.00  0.00    +0.006 A 
ATOM      5  C   UNL     1       3.553   4.407 -23.148  0.00  0.00    +0.053 A 
ATOM      6  C   UNL     1       2.388   4.928 -22.898  0.00  0.00    +0.035 A 
ATOM      7  C   UNL     1       1.306   4.267 -23.182  0.00  0.00    -0.007 A 
ATOM      8  C   UNL     1       0.141   4.787 -22.933  0.00  0.00    +0.058 A 
ATOM      9  C   UNL     1      -0.941   4.125 -23.217  0.00  0.00    +0.162 A 
ATOM     10  C   UNL     1      -0.858   2.943 -23.751  0.00  0.00    +0.162 A 
ATOM     11  C   UNL     1       0.306   2.422 -24.001  0.00  0.00    +0.063 A 
ATOM     12  C   UNL     1       1.388   3.083 -23.717  0.00  0.00    +0.050 A 
ATOM     13  C   UNL     1       2.553   2.563 -23.966  0.00  0.00    +0.260 A 
ATOM     14  O   UNL     1       2.635   1.380 -24.500  0.00  0.00    -0.267 OA
ATOM     15  N   UNL     1       3.635   3.225 -23.682  0.00  0.00    -0.307 N 
ATOM     16  C   UNL     1       4.800   2.704 -23.931  0.00  0.00    +0.130 C 
ATOM     17  C   UNL     1       4.553   6.251 -22.330  0.00  0.00    +0.059 A 
ATOM     18  C   UNL     1       5.882   3.366 -23.647  0.00  0.00    +0.057 C 
ATOM     19  C   UNL     1       5.635   6.913 -22.045  0.00  0.00    +0.162 A 
ENDROOT
BRANCH   1  21
ATOM     20  C   UNL     1       8.821   6.493 -21.308  0.00  0.00    +0.277 C 
ATOM     21  O   UNL     1       7.882   7.054 -22.011  0.00  0.00    -0.491 OA
ENDBRANCH   1  21
BRANCH  10  22
ATOM     22  O   UNL     1      -1.941   2.281 -24.036  0.00  0.00    -0.491 OA
ATOM     23  C   UNL     1      -2.614   2.566 -25.111  0.00  0.00    +0.277 C 
ENDBRANCH  10  22
BRANCH   9  24
ATOM     24  O   UNL     1      -2.106   4.646 -22.968  0.00  0.00    -0.491 OA
ATOM     25  C   UNL     1      -2.685   4.423 -21.825  0.00  0.00    +0.277 C 
ENDBRANCH   9  24
BRANCH  19  26
ATOM     26  O   UNL     1       5.553   8.096 -21.511  0.00  0.00    -0.491 OA
ATOM     27  C   UNL     1       4.599   8.364 -20.670  0.00  0.00    +0.277 C 
ENDBRANCH  19  26
TORSDOF 4
ENDMDL
MODEL 7
REMARK VINA RESULT:    -6.999      5.530      8.475
REMARK INTER + INTRA:          -8.695
REMARK INTER:                  -8.316
REMARK INTRA:                  -0.379
REMARK UNBOUND:                -0.060
REMARK  Name = ZINC000000689942
REMARK  8 active torsions:
REMARK  status: ('A' for Active; 'I' for Inactive)
REMARK    1  A    between atoms: C_1  and  O_2
REMARK    2  A    between atoms: O_2  and  C_3
REMARK    3  A    between atoms: C_8  and  O_9
REMARK    4  A    between atoms: O_9  and  C_10
REMARK    5  A    between atoms: C_15  and  O_16
REMARK    6  A    between atoms: O_16  and  C_17
REMARK    7  A    between atoms: C_18  and  O_19
REMARK    8  A    between atoms: O_19  and  C_20
REMARK                            x       y       z     vdW  Elec       q    Type
REMARK                         _______ _______ _______ _____ _____    ______ ____
ROOT
ATOM      1  C   UNL     1       5.732  10.552 -21.001  0.00  0.00    +0.162 A 
ATOM      2  C   UNL     1       6.634   9.617 -21.029  0.00  0.00    +0.053 A 
ATOM      3  C   UNL     1       6.319   8.420 -21.427  0.00  0.00    -0.033 A 
ATOM      4  C   UNL     1       5.100   8.159 -21.798  0.00  0.00    +0.006 A 
ATOM      5  C   UNL     1       4.784   6.962 -22.196  0.00  0.00    +0.053 A 
ATOM      6  C   UNL     1       3.566   6.702 -22.567  0.00  0.00    +0.035 A 
ATOM      7  C   UNL     1       3.250   5.506 -22.965  0.00  0.00    -0.007 A 
ATOM      8  C   UNL     1       2.032   5.244 -23.336  0.00  0.00    +0.058 A 
ATOM      9  C   UNL     1       1.716   4.048 -23.734  0.00  0.00    +0.162 A 
ATOM     10  C   UNL     1       2.618   3.113 -23.762  0.00  0.00    +0.162 A 
ATOM     11  C   UNL     1       3.836   3.373 -23.391  0.00  0.00    +0.063 A 
ATOM     12  C   UNL     1       4.153   4.569 -22.993  0.00  0.00    +0.050 A 
ATOM     13  C   UNL     1       5.371   4.831 -22.622  0.00  0.00    +0.260 A 
ATOM     14  O   UNL     1       6.273   3.895 -22.650  0.00  0.00    -0.267 OA
ATOM     15  N   UNL     1       5.687   6.027 -22.224  0.00  0.00    -0.307 N 
ATOM     16  C   UNL     1       6.905   6.289 -21.853  0.00  0.00    +0.130 C 
ATOM     17  C   UNL     1       4.198   9.095 -21.770  0.00  0.00    +0.059 A 
ATOM     18  C   UNL     1       7.221   7.485 -21.455  0.00  0.00    +0.057 C 
ATOM     19  C   UNL     1       4.514  10.291 -21.372  0.00  0.00    +0.162 A 
ENDROOT
BRANCH   1  21
ATOM     20  C   UNL     1       6.661  12.562 -21.411  0.00  0.00    +0.277 C 
ATOM     21  O   UNL     1       6.048  11.748 -20.603  0.00  0.00    -0.491 OA
ENDBRANCH   1  21
BRANCH  10  22
ATOM     22  O   UNL     1       2.302   1.916 -24.160  0.00  0.00    -0.491 OA
ATOM     23  C   UNL     1       3.231   1.095 -24.553  0.00  0.00    +0.277 C 
ENDBRANCH  10  22
BRANCH   9  24
ATOM     24  O   UNL     1       0.497   3.786 -24.105  0.00  0.00    -0.491 OA
ATOM     25  C   UNL     1      -0.504   4.309 -23.461  0.00  0.00    +0.277 C 
ENDBRANCH   9  24
BRANCH  19  26
ATOM     26  O   UNL     1       3.611  11.227 -21.345  0.00  0.00    -0.491 OA
ATOM     27  C   UNL     1       3.154  11.722 -22.456  0.00  0.00    +0.277 C 
ENDBRANCH  19  26
TORSDOF 4
ENDMDL
MODEL 8
REMARK VINA RESULT:    -6.763      5.785      8.208
REMARK INTER + INTRA:          -8.404
REMARK INTER:                  -8.032
REMARK INTRA:                  -0.372
REMARK UNBOUND:                -0.060
REMARK  Name = ZINC000000689942
REMARK  8 active torsions:
REMARK  status: ('A' for Active; 'I' for Inactive)
REMARK    1  A    between atoms: C_1  and  O_2
REMARK    2  A    between atoms: O_2  and  C_3
REMARK    3  A    between atoms: C_8  and  O_9
REMARK    4  A    between atoms: O_9  and  C_10
REMARK    5  A    between atoms: C_15  and  O_16
REMARK    6  A    between atoms: O_16  and  C_17
REMARK    7  A    between atoms: C_18  and  O_19
REMARK    8  A    between atoms: O_19  and  C_20
REMARK                            x       y       z     vdW  Elec       q    Type
REMARK                         _______ _______ _______ _____ _____    ______ ____
ROOT
ATOM      1  C   UNL     1       3.375   2.949 -23.723  0.00  0.00    +0.162 A 
ATOM      2  C   UNL     1       4.635   3.028 -23.414  0.00  0.00    +0.053 A 
ATOM      3  C   UNL     1       5.128   4.148 -22.974  0.00  0.00    -0.033 A 
ATOM      4  C   UNL     1       4.360   5.189 -22.842  0.00  0.00    +0.006 A 
ATOM      5  C   UNL     1       4.852   6.309 -22.402  0.00  0.00    +0.053 A 
ATOM      6  C   UNL     1       4.084   7.349 -22.271  0.00  0.00    +0.035 A 
ATOM      7  C   UNL     1       4.576   8.469 -21.830  0.00  0.00    -0.007 A 
ATOM      8  C   UNL     1       3.808   9.509 -21.699  0.00  0.00    +0.058 A 
ATOM      9  C   UNL     1       4.300  10.629 -21.259  0.00  0.00    +0.162 A 
ATOM     10  C   UNL     1       5.560  10.708 -20.950  0.00  0.00    +0.162 A 
ATOM     11  C   UNL     1       6.329   9.668 -21.082  0.00  0.00    +0.063 A 
ATOM     12  C   UNL     1       5.837   8.548 -21.522  0.00  0.00    +0.050 A 
ATOM     13  C   UNL     1       6.604   7.507 -21.654  0.00  0.00    +0.260 A 
ATOM     14  O   UNL     1       7.866   7.587 -21.345  0.00  0.00    -0.267 OA
ATOM     15  N   UNL     1       6.113   6.388 -22.094  0.00  0.00    -0.307 N 
ATOM     16  C   UNL     1       6.880   5.347 -22.225  0.00  0.00    +0.130 C 
ATOM     17  C   UNL     1       3.099   5.110 -23.151  0.00  0.00    +0.059 A 
ATOM     18  C   UNL     1       6.388   4.228 -22.665  0.00  0.00    +0.057 C 
ATOM     19  C   UNL     1       2.608   3.990 -23.591  0.00  0.00    +0.162 A 
ENDROOT
BRANCH   1  21
ATOM     20  C   UNL     1       3.058   0.732 -23.488  0.00  0.00    +0.277 C 
ATOM     21  O   UNL     1       2.883   1.830 -24.163  0.00  0.00    -0.491 OA
ENDBRANCH   1  21
BRANCH  10  22
ATOM     22  O   UNL     1       6.053  11.828 -20.510  0.00  0.00    -0.491 OA
ATOM     23  C   UNL     1       6.640  12.648 -21.331  0.00  0.00    +0.277 C 
ENDBRANCH  10  22
BRANCH   9  24
ATOM     24  O   UNL     1       3.532  11.670 -21.127  0.00  0.00    -0.491 OA
ATOM     25  C   UNL     1       2.994  12.217 -22.177  0.00  0.00    +0.277 C 
ENDBRANCH   9  24
BRANCH  19  26
ATOM     26  O   UNL     1       1.347   3.910 -23.900  0.00  0.00    -0.491 OA
ATOM     27  C   UNL     1       0.537   4.875 -23.579  0.00  0.00    +0.277 C 
ENDBRANCH  19  26
TORSDOF 4
ENDMDL
MODEL 9
REMARK VINA RESULT:    -6.445      2.723      4.684
REMARK INTER + INTRA:          -8.012
REMARK INTER:                  -7.952
REMARK INTRA:                  -0.060
REMARK UNBOUND:                -0.060
REMARK  Name = ZINC000000689942
REMARK  8 active torsions:
REMARK  status: ('A' for Active; 'I' for Inactive)
REMARK    1  A    between atoms: C_1  and  O_2
REMARK    2  A    between atoms: O_2  and  C_3
REMARK    3  A    between atoms: C_8  and  O_9
REMARK    4  A    between atoms: O_9  and  C_10
REMARK    5  A    between atoms: C_15  and  O_16
REMARK    6  A    between atoms: O_16  and  C_17
REMARK    7  A    between atoms: C_18  and  O_19
REMARK    8  A    between atoms: O_19  and  C_20
REMARK                            x       y       z     vdW  Elec       q    Type
REMARK                         _______ _______ _______ _____ _____    ______ ____
ROOT
ATOM      1  C   UNL     1      -0.871   2.280 -22.878  0.00  0.00    +0.162 A 
ATOM      2  C   UNL     1      -0.075   1.297 -22.577  0.00  0.00    +0.053 A 
ATOM      3  C   UNL     1       1.203   1.507 -22.460  0.00  0.00    -0.033 A 
ATOM      4  C   UNL     1       1.684   2.701 -22.643  0.00  0.00    +0.006 A 
ATOM      5  C   UNL     1       2.962   2.912 -22.526  0.00  0.00    +0.053 A 
ATOM      6  C   UNL     1       3.443   4.105 -22.709  0.00  0.00    +0.035 A 
ATOM      7  C   UNL     1       4.720   4.316 -22.591  0.00  0.00    -0.007 A 
ATOM      8  C   UNL     1       5.202   5.510 -22.775  0.00  0.00    +0.058 A 
ATOM      9  C   UNL     1       6.479   5.720 -22.657  0.00  0.00    +0.162 A 
ATOM     10  C   UNL     1       7.275   4.738 -22.356  0.00  0.00    +0.162 A 
ATOM     11  C   UNL     1       6.794   3.544 -22.173  0.00  0.00    +0.063 A 
ATOM     12  C   UNL     1       5.517   3.333 -22.290  0.00  0.00    +0.050 A 
ATOM     13  C   UNL     1       5.035   2.140 -22.107  0.00  0.00    +0.260 A 
ATOM     14  O   UNL     1       5.831   1.156 -21.806  0.00  0.00    -0.267 OA
ATOM     15  N   UNL     1       3.758   1.929 -22.225  0.00  0.00    -0.307 N 
ATOM     16  C   UNL     1       3.276   0.735 -22.042  0.00  0.00    +0.130 C 
ATOM     17  C   UNL     1       0.888   3.684 -22.944  0.00  0.00    +0.059 A 
ATOM     18  C   UNL     1       1.999   0.525 -22.159  0.00  0.00    +0.057 C 
ATOM     19  C   UNL     1      -0.389   3.473 -23.061  0.00  0.00    +0.162 A 
ENDROOT
BRANCH   1  21
ATOM     20  C   UNL     1      -2.949   2.368 -22.017  0.00  0.00    +0.277 C 
ATOM     21  O   UNL     1      -2.148   2.069 -22.996  0.00  0.00    -0.491 OA
ENDBRANCH   1  21
BRANCH  10  22
ATOM     22  O   UNL     1       8.553   4.948 -22.239  0.00  0.00    -0.491 OA
ATOM     23  C   UNL     1       9.060   5.233 -21.076  0.00  0.00    +0.277 C 
ENDBRANCH  10  22
BRANCH   9  24
ATOM     24  O   UNL     1       6.961   6.914 -22.840  0.00  0.00    -0.491 OA
ATOM     25  C   UNL     1       6.674   7.866 -22.001  0.00  0.00    +0.277 C 
ENDBRANCH   9  24
BRANCH  19  26
ATOM     26  O   UNL     1      -1.185   4.456 -23.362  0.00  0.00    -0.491 OA
ATOM     27  C   UNL     1      -0.752   5.681 -23.318  0.00  0.00    +0.277 C 
ENDBRANCH  19  26
TORSDOF 4
ENDMDL
