MODEL 1
REMARK VINA RESULT:    -6.473      0.000      0.000
REMARK INTER + INTRA:          -6.473
REMARK INTER:                  -6.473
REMARK INTRA:                   0.000
REMARK UNBOUND:                 0.000
REMARK  Name = ZINC000005037440
REMARK  1 active torsions:
REMARK  status: ('A' for Active; 'I' for Inactive)
REMARK    1  A    between atoms: C_1  and  C_2
REMARK                            x       y       z     vdW  Elec       q    Type
REMARK                         _______ _______ _______ _____ _____    ______ ____
ROOT
ATOM      1  C   UNL     1       0.130   2.998 -24.062  0.00  0.00    +0.086 C 
ATOM      2  C   UNL     1      -1.142   3.175 -23.859  0.00  0.00    +0.107 A 
ATOM      3  N   UNL     1      -1.818   2.751 -22.833  0.00  0.00    -0.215 NA
ATOM      4  C   UNL     1      -3.055   3.121 -22.987  0.00  0.00    +0.166 A 
ATOM      5  N   UNL     1      -4.112   2.948 -22.251  0.00  0.00    -0.291 N 
ATOM      6  H   UNL     1      -4.046   2.454 -21.403  0.00  0.00    +0.172 HD
ATOM      7  C   UNL     1      -5.258   3.429 -22.637  0.00  0.00    +0.328 A 
ATOM      8  N   UNL     1      -5.345   4.081 -23.757  0.00  0.00    -0.273 N 
ATOM      9  H   UNL     1      -6.212   4.445 -24.049  0.00  0.00    +0.173 HD
ATOM     10  C   UNL     1      -4.287   4.254 -24.493  0.00  0.00    +0.280 A 
ATOM     11  O   UNL     1      -4.375   4.907 -25.613  0.00  0.00    -0.265 OA
ATOM     12  O   UNL     1      -6.315   3.256 -21.901  0.00  0.00    -0.247 OA
ATOM     13  C   UNL     1      -3.143   3.774 -24.108  0.00  0.00    +0.149 A 
ATOM     14  N   UNL     1      -1.960   3.807 -24.647  0.00  0.00    -0.337 N 
ATOM     15  H   UNL     1      -1.725   4.236 -25.502  0.00  0.00    +0.167 HD
ENDROOT
TORSDOF 0
ENDMDL
MODEL 2
REMARK VINA RESULT:    -6.421      1.687      2.989
REMARK INTER + INTRA:          -6.421
REMARK INTER:                  -6.421
REMARK INTRA:                   0.000
REMARK UNBOUND:                 0.000
REMARK  Name = ZINC000005037440
REMARK  1 active torsions:
REMARK  status: ('A' for Active; 'I' for Inactive)
REMARK    1  A    between atoms: C_1  and  C_2
REMARK                            x       y       z     vdW  Elec       q    Type
REMARK                         _______ _______ _______ _____ _____    ______ ____
ROOT
ATOM      1  C   UNL     1      -0.002   1.567 -21.132  0.00  0.00    +0.086 C 
ATOM      2  C   UNL     1      -0.849   1.979 -22.028  0.00  0.00    +0.107 A 
ATOM      3  N   UNL     1      -0.653   1.996 -23.313  0.00  0.00    -0.215 NA
ATOM      4  C   UNL     1      -1.724   2.473 -23.876  0.00  0.00    +0.166 A 
ATOM      5  N   UNL     1      -2.029   2.690 -25.121  0.00  0.00    -0.291 N 
ATOM      6  H   UNL     1      -1.380   2.480 -25.830  0.00  0.00    +0.172 HD
ATOM      7  C   UNL     1      -3.191   3.186 -25.428  0.00  0.00    +0.328 A 
ATOM      8  N   UNL     1      -4.048   3.464 -24.491  0.00  0.00    -0.273 N 
ATOM      9  H   UNL     1      -4.927   3.839 -24.723  0.00  0.00    +0.173 HD
ATOM     10  C   UNL     1      -3.742   3.246 -23.246  0.00  0.00    +0.280 A 
ATOM     11  O   UNL     1      -4.599   3.524 -22.309  0.00  0.00    -0.265 OA
ATOM     12  O   UNL     1      -3.496   3.403 -26.672  0.00  0.00    -0.247 OA
ATOM     13  C   UNL     1      -2.581   2.751 -22.938  0.00  0.00    +0.149 A 
ATOM     14  N   UNL     1      -2.040   2.446 -21.796  0.00  0.00    -0.337 N 
ATOM     15  H   UNL     1      -2.458   2.549 -20.911  0.00  0.00    +0.167 HD
ENDROOT
TORSDOF 0
ENDMDL
MODEL 3
REMARK VINA RESULT:    -6.386      2.185      3.630
REMARK INTER + INTRA:          -6.386
REMARK INTER:                  -6.386
REMARK INTRA:                   0.000
REMARK UNBOUND:                 0.000
REMARK  Name = ZINC000005037440
REMARK  1 active torsions:
REMARK  status: ('A' for Active; 'I' for Inactive)
REMARK    1  A    between atoms: C_1  and  C_2
REMARK                            x       y       z     vdW  Elec       q    Type
REMARK                         _______ _______ _______ _____ _____    ______ ____
ROOT
ATOM      1  C   UNL     1      -3.242   3.658 -19.748  0.00  0.00    +0.086 C 
ATOM      2  C   UNL     1      -3.117   3.448 -21.024  0.00  0.00    +0.107 A 
ATOM      3  N   UNL     1      -4.012   3.703 -21.932  0.00  0.00    -0.215 NA
ATOM      4  C   UNL     1      -3.523   3.358 -23.086  0.00  0.00    +0.166 A 
ATOM      5  N   UNL     1      -4.014   3.410 -24.289  0.00  0.00    -0.291 N 
ATOM      6  H   UNL     1      -4.920   3.764 -24.436  0.00  0.00    +0.172 HD
ATOM      7  C   UNL     1      -3.306   2.994 -25.298  0.00  0.00    +0.328 A 
ATOM      8  N   UNL     1      -2.109   2.527 -25.104  0.00  0.00    -0.273 N 
ATOM      9  H   UNL     1      -1.574   2.212 -25.867  0.00  0.00    +0.173 HD
ATOM     10  C   UNL     1      -1.619   2.475 -23.901  0.00  0.00    +0.280 A 
ATOM     11  O   UNL     1      -0.422   2.007 -23.707  0.00  0.00    -0.265 OA
ATOM     12  O   UNL     1      -3.797   3.046 -26.500  0.00  0.00    -0.247 OA
ATOM     13  C   UNL     1      -2.325   2.890 -22.892  0.00  0.00    +0.149 A 
ATOM     14  N   UNL     1      -2.074   2.946 -21.618  0.00  0.00    -0.337 N 
ATOM     15  H   UNL     1      -1.242   2.658 -21.179  0.00  0.00    +0.167 HD
ENDROOT
TORSDOF 0
ENDMDL
MODEL 4
REMARK VINA RESULT:    -6.378      2.253      3.981
REMARK INTER + INTRA:          -6.378
REMARK INTER:                  -6.378
REMARK INTRA:                   0.000
REMARK UNBOUND:                 0.000
REMARK  Name = ZINC000005037440
REMARK  1 active torsions:
REMARK  status: ('A' for Active; 'I' for Inactive)
REMARK    1  A    between atoms: C_1  and  C_2
REMARK                            x       y       z     vdW  Elec       q    Type
REMARK                         _______ _______ _______ _____ _____    ______ ____
ROOT
ATOM      1  C   UNL     1      -5.551   3.375 -22.122  0.00  0.00    +0.086 C 
ATOM      2  C   UNL     1      -4.354   3.183 -22.590  0.00  0.00    +0.107 A 
ATOM      3  N   UNL     1      -3.334   2.735 -21.921  0.00  0.00    -0.215 NA
ATOM      4  C   UNL     1      -2.316   2.680 -22.728  0.00  0.00    +0.166 A 
ATOM      5  N   UNL     1      -1.084   2.306 -22.550  0.00  0.00    -0.291 N 
ATOM      6  H   UNL     1      -0.788   1.993 -21.665  0.00  0.00    +0.172 HD
ATOM      7  C   UNL     1      -0.243   2.347 -23.541  0.00  0.00    +0.328 A 
ATOM      8  N   UNL     1      -0.634   2.761 -24.709  0.00  0.00    -0.273 N 
ATOM      9  H   UNL     1       0.002   2.792 -25.459  0.00  0.00    +0.173 HD
ATOM     10  C   UNL     1      -1.867   3.135 -24.887  0.00  0.00    +0.280 A 
ATOM     11  O   UNL     1      -2.258   3.548 -26.055  0.00  0.00    -0.265 OA
ATOM     12  O   UNL     1       0.989   1.973 -23.363  0.00  0.00    -0.247 OA
ATOM     13  C   UNL     1      -2.708   3.094 -23.897  0.00  0.00    +0.149 A 
ATOM     14  N   UNL     1      -3.967   3.405 -23.812  0.00  0.00    -0.337 N 
ATOM     15  H   UNL     1      -4.530   3.748 -24.543  0.00  0.00    +0.167 HD
ENDROOT
TORSDOF 0
ENDMDL
MODEL 5
REMARK VINA RESULT:    -6.372      2.444      3.292
REMARK INTER + INTRA:          -6.372
REMARK INTER:                  -6.372
REMARK INTRA:                   0.000
REMARK UNBOUND:                 0.000
REMARK  Name = ZINC000005037440
REMARK  1 active torsions:
REMARK  status: ('A' for Active; 'I' for Inactive)
REMARK    1  A    between atoms: C_1  and  C_2
REMARK                            x       y       z     vdW  Elec       q    Type
REMARK                         _______ _______ _______ _____ _____    ______ ____
ROOT
ATOM      1  C   UNL     1      -3.314   3.375 -26.677  0.00  0.00    +0.086 C 
ATOM      2  C   UNL     1      -3.084   3.252 -25.404  0.00  0.00    +0.107 A 
ATOM      3  N   UNL     1      -3.817   3.735 -24.446  0.00  0.00    -0.215 NA
ATOM      4  C   UNL     1      -3.267   3.406 -23.314  0.00  0.00    +0.166 A 
ATOM      5  N   UNL     1      -3.604   3.643 -22.082  0.00  0.00    -0.291 N 
ATOM      6  H   UNL     1      -4.417   4.163 -21.885  0.00  0.00    +0.172 HD
ATOM      7  C   UNL     1      -2.868   3.193 -21.109  0.00  0.00    +0.328 A 
ATOM      8  N   UNL     1      -1.796   2.507 -21.368  0.00  0.00    -0.273 N 
ATOM      9  H   UNL     1      -1.239   2.166 -20.632  0.00  0.00    +0.173 HD
ATOM     10  C   UNL     1      -1.458   2.270 -22.602  0.00  0.00    +0.280 A 
ATOM     11  O   UNL     1      -0.386   1.584 -22.861  0.00  0.00    -0.265 OA
ATOM     12  O   UNL     1      -3.206   3.430 -19.876  0.00  0.00    -0.247 OA
ATOM     13  C   UNL     1      -2.194   2.719 -23.574  0.00  0.00    +0.149 A 
ATOM     14  N   UNL     1      -2.081   2.624 -24.866  0.00  0.00    -0.337 N 
ATOM     15  H   UNL     1      -1.362   2.159 -25.352  0.00  0.00    +0.167 HD
ENDROOT
TORSDOF 0
ENDMDL
MODEL 6
REMARK VINA RESULT:    -6.141      2.740      4.851
REMARK INTER + INTRA:          -6.141
REMARK INTER:                  -6.141
REMARK INTRA:                   0.000
REMARK UNBOUND:                 0.000
REMARK  Name = ZINC000005037440
REMARK  1 active torsions:
REMARK  status: ('A' for Active; 'I' for Inactive)
REMARK    1  A    between atoms: C_1  and  C_2
REMARK                            x       y       z     vdW  Elec       q    Type
REMARK                         _______ _______ _______ _____ _____    ______ ____
ROOT
ATOM      1  C   UNL     1      -4.992   3.803 -24.166  0.00  0.00    +0.086 C 
ATOM      2  C   UNL     1      -3.712   3.589 -24.248  0.00  0.00    +0.107 A 
ATOM      3  N   UNL     1      -2.973   3.770 -25.302  0.00  0.00    -0.215 NA
ATOM      4  C   UNL     1      -1.751   3.448 -24.996  0.00  0.00    +0.166 A 
ATOM      5  N   UNL     1      -0.652   3.453 -25.688  0.00  0.00    -0.291 N 
ATOM      6  H   UNL     1      -0.663   3.741 -26.629  0.00  0.00    +0.172 HD
ATOM      7  C   UNL     1       0.465   3.076 -25.137  0.00  0.00    +0.328 A 
ATOM      8  N   UNL     1       0.480   2.695 -23.895  0.00  0.00    -0.273 N 
ATOM      9  H   UNL     1       1.325   2.410 -23.478  0.00  0.00    +0.173 HD
ATOM     10  C   UNL     1      -0.620   2.691 -23.202  0.00  0.00    +0.280 A 
ATOM     11  O   UNL     1      -0.604   2.310 -21.960  0.00  0.00    -0.265 OA
ATOM     12  O   UNL     1       1.564   3.080 -25.829  0.00  0.00    -0.247 OA
ATOM     13  C   UNL     1      -1.736   3.067 -23.752  0.00  0.00    +0.149 A 
ATOM     14  N   UNL     1      -2.948   3.154 -23.291  0.00  0.00    -0.337 N 
ATOM     15  H   UNL     1      -3.237   2.930 -22.376  0.00  0.00    +0.167 HD
ENDROOT
TORSDOF 0
ENDMDL
MODEL 7
REMARK VINA RESULT:    -6.131      2.614      4.262
REMARK INTER + INTRA:          -6.131
REMARK INTER:                  -6.131
REMARK INTRA:                   0.000
REMARK UNBOUND:                 0.000
REMARK  Name = ZINC000005037440
REMARK  1 active torsions:
REMARK  status: ('A' for Active; 'I' for Inactive)
REMARK    1  A    between atoms: C_1  and  C_2
REMARK                            x       y       z     vdW  Elec       q    Type
REMARK                         _______ _______ _______ _____ _____    ______ ____
ROOT
ATOM      1  C   UNL     1      -4.852   4.241 -24.936  0.00  0.00    +0.086 C 
ATOM      2  C   UNL     1      -3.898   3.710 -24.230  0.00  0.00    +0.107 A 
ATOM      3  N   UNL     1      -2.861   3.081 -24.698  0.00  0.00    -0.215 NA
ATOM      4  C   UNL     1      -2.136   2.696 -23.689  0.00  0.00    +0.166 A 
ATOM      5  N   UNL     1      -1.016   2.041 -23.623  0.00  0.00    -0.291 N 
ATOM      6  H   UNL     1      -0.570   1.745 -24.449  0.00  0.00    +0.172 HD
ATOM      7  C   UNL     1      -0.485   1.777 -22.466  0.00  0.00    +0.328 A 
ATOM      8  N   UNL     1      -1.074   2.168 -21.375  0.00  0.00    -0.273 N 
ATOM      9  H   UNL     1      -0.672   1.968 -20.500  0.00  0.00    +0.173 HD
ATOM     10  C   UNL     1      -2.195   2.824 -21.442  0.00  0.00    +0.280 A 
ATOM     11  O   UNL     1      -2.784   3.215 -20.351  0.00  0.00    -0.265 OA
ATOM     12  O   UNL     1       0.635   1.121 -22.400  0.00  0.00    -0.247 OA
ATOM     13  C   UNL     1      -2.726   3.088 -22.598  0.00  0.00    +0.149 A 
ATOM     14  N   UNL     1      -3.815   3.714 -22.933  0.00  0.00    -0.337 N 
ATOM     15  H   UNL     1      -4.463   4.121 -22.313  0.00  0.00    +0.167 HD
ENDROOT
TORSDOF 0
ENDMDL
MODEL 8
REMARK VINA RESULT:    -6.055      3.847      5.553
REMARK INTER + INTRA:          -6.055
REMARK INTER:                  -6.055
REMARK INTRA:                   0.000
REMARK UNBOUND:                 0.000
REMARK  Name = ZINC000005037440
REMARK  1 active torsions:
REMARK  status: ('A' for Active; 'I' for Inactive)
REMARK    1  A    between atoms: C_1  and  C_2
REMARK                            x       y       z     vdW  Elec       q    Type
REMARK                         _______ _______ _______ _____ _____    ______ ____
ROOT
ATOM      1  C   UNL     1      -2.994   3.218 -24.784  0.00  0.00    +0.086 C 
ATOM      2  C   UNL     1      -1.776   3.488 -24.418  0.00  0.00    +0.107 A 
ATOM      3  N   UNL     1      -1.332   4.647 -24.036  0.00  0.00    -0.215 NA
ATOM      4  C   UNL     1      -0.069   4.521 -23.752  0.00  0.00    +0.166 A 
ATOM      5  N   UNL     1       0.817   5.373 -23.332  0.00  0.00    -0.291 N 
ATOM      6  H   UNL     1       0.563   6.311 -23.175  0.00  0.00    +0.172 HD
ATOM      7  C   UNL     1       2.040   4.986 -23.119  0.00  0.00    +0.328 A 
ATOM      8  N   UNL     1       2.376   3.748 -23.326  0.00  0.00    -0.273 N 
ATOM      9  H   UNL     1       3.302   3.455 -23.165  0.00  0.00    +0.173 HD
ATOM     10  C   UNL     1       1.489   2.896 -23.747  0.00  0.00    +0.280 A 
ATOM     11  O   UNL     1       1.825   1.657 -23.954  0.00  0.00    -0.265 OA
ATOM     12  O   UNL     1       2.927   5.838 -22.698  0.00  0.00    -0.247 OA
ATOM     13  C   UNL     1       0.267   3.282 -23.960  0.00  0.00    +0.149 A 
ATOM     14  N   UNL     1      -0.788   2.643 -24.371  0.00  0.00    -0.337 N 
ATOM     15  H   UNL     1      -0.832   1.688 -24.607  0.00  0.00    +0.167 HD
ENDROOT
TORSDOF 0
ENDMDL
MODEL 9
REMARK VINA RESULT:    -5.984      3.559      5.095
REMARK INTER + INTRA:          -5.984
REMARK INTER:                  -5.984
REMARK INTRA:                   0.000
REMARK UNBOUND:                 0.000
REMARK  Name = ZINC000005037440
REMARK  1 active torsions:
REMARK  status: ('A' for Active; 'I' for Inactive)
REMARK    1  A    between atoms: C_1  and  C_2
REMARK                            x       y       z     vdW  Elec       q    Type
REMARK                         _______ _______ _______ _____ _____    ______ ____
ROOT
ATOM      1  C   UNL     1      -3.811   2.640 -21.027  0.00  0.00    +0.086 C 
ATOM      2  C   UNL     1      -2.679   2.979 -21.567  0.00  0.00    +0.107 A 
ATOM      3  N   UNL     1      -2.340   4.177 -21.943  0.00  0.00    -0.215 NA
ATOM      4  C   UNL     1      -1.138   4.118 -22.435  0.00  0.00    +0.166 A 
ATOM      5  N   UNL     1      -0.359   5.029 -22.938  0.00  0.00    -0.291 N 
ATOM      6  H   UNL     1      -0.665   5.963 -22.993  0.00  0.00    +0.172 HD
ATOM      7  C   UNL     1       0.824   4.705 -23.370  0.00  0.00    +0.328 A 
ATOM      8  N   UNL     1       1.228   3.472 -23.298  0.00  0.00    -0.273 N 
ATOM      9  H   UNL     1       2.123   3.228 -23.625  0.00  0.00    +0.173 HD
ATOM     10  C   UNL     1       0.449   2.562 -22.794  0.00  0.00    +0.280 A 
ATOM     11  O   UNL     1       0.853   1.328 -22.723  0.00  0.00    -0.265 OA
ATOM     12  O   UNL     1       1.602   5.616 -23.874  0.00  0.00    -0.247 OA
ATOM     13  C   UNL     1      -0.734   2.884 -22.363  0.00  0.00    +0.149 A 
ATOM     14  N   UNL     1      -1.686   2.180 -21.826  0.00  0.00    -0.337 N 
ATOM     15  H   UNL     1      -1.661   1.213 -21.648  0.00  0.00    +0.167 HD
ENDROOT
TORSDOF 0
ENDMDL
