MODEL 1
REMARK VINA RESULT:   -13.225      0.000      0.000
REMARK INTER + INTRA:         -13.225
REMARK INTER:                 -13.225
REMARK INTRA:                   0.000
REMARK UNBOUND:                 0.000
REMARK  Name = C[C@]12CC[C@@H]3[C@H](CC=C4CC5(CC[C@@]43C)OCCO5)[C@H]1CCC2=O         ZINC000238937255
REMARK  2 active torsions:
REMARK  status: ('A' for Active; 'I' for Inactive)
REMARK    1  A    between atoms: C_1  and  C_2
REMARK    2  A    between atoms: C_14  and  C_15
REMARK                            x       y       z     vdW  Elec       q    Type
REMARK                         _______ _______ _______ _____ _____    ______ ____
ROOT
ATOM      1  C   UNL     1      -4.876   2.895 -21.650  0.00  0.00    +0.019 C 
ATOM      2  C   UNL     1      -3.989   3.135 -22.568  0.00  0.00    +0.029 C 
ATOM      3  C   UNL     1      -3.513   2.537 -21.517  0.00  0.00    +0.015 C 
ATOM      4  C   UNL     1      -2.250   2.235 -21.458  0.00  0.00    +0.005 C 
ATOM      5  C   UNL     1      -1.463   2.531 -22.450  0.00  0.00    +0.003 C 
ATOM      6  C   UNL     1      -1.940   3.130 -23.501  0.00  0.00    +0.001 C 
ATOM      7  C   UNL     1      -1.152   3.426 -24.492  0.00  0.00    +0.031 C 
ATOM      8  C   UNL     1       0.111   3.124 -24.432  0.00  0.00    -0.027 C 
ATOM      9  C   UNL     1       0.586   2.526 -23.381  0.00  0.00    -0.062 C 
ATOM     10  C   UNL     1       1.849   2.224 -23.321  0.00  0.00    +0.096 C 
ATOM     11  C   UNL     1       2.326   1.625 -22.270  0.00  0.00    +0.174 C 
ATOM     12  O   UNL     1       2.924   1.030 -21.281  0.00  0.00    -0.346 OA
ATOM     13  C   UNL     1       4.180   0.902 -21.589  0.00  0.00    +0.191 C 
ATOM     14  C   UNL     1       4.359   1.419 -22.768  0.00  0.00    +0.191 C 
ATOM     15  C   UNL     1       1.540   1.329 -21.279  0.00  0.00    +0.066 C 
ATOM     16  C   UNL     1       0.276   1.631 -21.338  0.00  0.00    +0.016 C 
ATOM     17  O   UNL     1       3.214   1.866 -23.190  0.00  0.00    -0.346 OA
ATOM     18  C   UNL     1      -0.200   2.229 -22.390  0.00  0.00    -0.008 C 
ATOM     19  C   UNL     1      -0.987   1.933 -21.398  0.00  0.00    +0.016 C 
ATOM     20  C   UNL     1      -5.188   3.538 -22.872  0.00  0.00    +0.139 C 
ATOM     21  O   UNL     1      -6.246   3.417 -22.128  0.00  0.00    -0.297 OA
ATOM     22  C   UNL     1      -5.141   4.084 -24.051  0.00  0.00    +0.075 C 
ATOM     23  C   UNL     1      -3.915   4.018 -24.477  0.00  0.00    +0.012 C 
ATOM     24  C   UNL     1      -3.203   3.432 -23.561  0.00  0.00    +0.006 C 
ENDROOT
TORSDOF 0
ENDMDL
MODEL 2
REMARK VINA RESULT:   -12.993      0.929      2.407
REMARK INTER + INTRA:         -12.993
REMARK INTER:                 -12.993
REMARK INTRA:                   0.000
REMARK UNBOUND:                 0.000
REMARK  Name = C[C@]12CC[C@@H]3[C@H](CC=C4CC5(CC[C@@]43C)OCCO5)[C@H]1CCC2=O         ZINC000238937255
REMARK  2 active torsions:
REMARK  status: ('A' for Active; 'I' for Inactive)
REMARK    1  A    between atoms: C_1  and  C_2
REMARK    2  A    between atoms: C_14  and  C_15
REMARK                            x       y       z     vdW  Elec       q    Type
REMARK                         _______ _______ _______ _____ _____    ______ ____
ROOT
ATOM      1  C   UNL     1      -3.687   4.497 -25.145  0.00  0.00    +0.019 C 
ATOM      2  C   UNL     1      -3.412   3.827 -24.066  0.00  0.00    +0.029 C 
ATOM      3  C   UNL     1      -2.389   4.015 -24.847  0.00  0.00    +0.015 C 
ATOM      4  C   UNL     1      -1.223   3.547 -24.515  0.00  0.00    +0.005 C 
ATOM      5  C   UNL     1      -1.078   2.890 -23.402  0.00  0.00    +0.003 C 
ATOM      6  C   UNL     1      -2.101   2.702 -22.622  0.00  0.00    +0.001 C 
ATOM      7  C   UNL     1      -1.956   2.045 -21.509  0.00  0.00    +0.031 C 
ATOM      8  C   UNL     1      -0.789   1.577 -21.177  0.00  0.00    -0.027 C 
ATOM      9  C   UNL     1       0.233   1.766 -21.959  0.00  0.00    -0.062 C 
ATOM     10  C   UNL     1       1.399   1.298 -21.627  0.00  0.00    +0.096 C 
ATOM     11  C   UNL     1       2.422   1.486 -22.408  0.00  0.00    +0.174 C 
ATOM     12  O   UNL     1       3.517   1.605 -23.097  0.00  0.00    -0.346 OA
ATOM     13  C   UNL     1       4.470   1.009 -22.444  0.00  0.00    +0.191 C 
ATOM     14  C   UNL     1       3.963   0.522 -21.351  0.00  0.00    +0.191 C 
ATOM     15  C   UNL     1       2.277   2.143 -23.520  0.00  0.00    +0.066 C 
ATOM     16  C   UNL     1       1.110   2.611 -23.852  0.00  0.00    +0.016 C 
ATOM     17  O   UNL     1       2.697   0.816 -21.328  0.00  0.00    -0.346 OA
ATOM     18  C   UNL     1       0.088   2.422 -23.071  0.00  0.00    -0.008 C 
ATOM     19  C   UNL     1      -0.057   3.079 -24.184  0.00  0.00    +0.016 C 
ATOM     20  C   UNL     1      -4.658   4.184 -24.163  0.00  0.00    +0.139 C 
ATOM     21  O   UNL     1      -5.186   4.857 -25.140  0.00  0.00    -0.297 OA
ATOM     22  C   UNL     1      -5.284   3.747 -23.110  0.00  0.00    +0.075 C 
ATOM     23  C   UNL     1      -4.424   3.121 -22.363  0.00  0.00    +0.012 C 
ATOM     24  C   UNL     1      -3.267   3.170 -22.953  0.00  0.00    +0.006 C 
ENDROOT
TORSDOF 0
ENDMDL
MODEL 3
REMARK VINA RESULT:   -12.233      0.944      6.404
REMARK INTER + INTRA:         -12.233
REMARK INTER:                 -12.233
REMARK INTRA:                   0.000
REMARK UNBOUND:                 0.000
REMARK  Name = C[C@]12CC[C@@H]3[C@H](CC=C4CC5(CC[C@@]43C)OCCO5)[C@H]1CCC2=O         ZINC000238937255
REMARK  2 active torsions:
REMARK  status: ('A' for Active; 'I' for Inactive)
REMARK    1  A    between atoms: C_1  and  C_2
REMARK    2  A    between atoms: C_14  and  C_15
REMARK                            x       y       z     vdW  Elec       q    Type
REMARK                         _______ _______ _______ _____ _____    ______ ____
ROOT
ATOM      1  C   UNL     1       3.290   1.183 -21.338  0.00  0.00    +0.019 C 
ATOM      2  C   UNL     1       2.679   1.761 -22.328  0.00  0.00    +0.029 C 
ATOM      3  C   UNL     1       1.897   1.435 -21.342  0.00  0.00    +0.015 C 
ATOM      4  C   UNL     1       0.625   1.695 -21.407  0.00  0.00    +0.005 C 
ATOM      5  C   UNL     1       0.134   2.281 -22.459  0.00  0.00    +0.003 C 
ATOM      6  C   UNL     1       0.916   2.606 -23.446  0.00  0.00    +0.001 C 
ATOM      7  C   UNL     1       0.424   3.191 -24.498  0.00  0.00    +0.031 C 
ATOM      8  C   UNL     1      -0.848   3.451 -24.563  0.00  0.00    -0.027 C 
ATOM      9  C   UNL     1      -1.629   3.125 -23.575  0.00  0.00    -0.062 C 
ATOM     10  C   UNL     1      -2.901   3.385 -23.640  0.00  0.00    +0.096 C 
ATOM     11  C   UNL     1      -3.682   3.060 -22.654  0.00  0.00    +0.174 C 
ATOM     12  O   UNL     1      -4.566   2.787 -21.740  0.00  0.00    -0.346 OA
ATOM     13  C   UNL     1      -5.724   3.197 -22.166  0.00  0.00    +0.191 C 
ATOM     14  C   UNL     1      -5.556   3.722 -23.342  0.00  0.00    +0.191 C 
ATOM     15  C   UNL     1      -3.192   2.475 -21.602  0.00  0.00    +0.066 C 
ATOM     16  C   UNL     1      -1.919   2.215 -21.537  0.00  0.00    +0.016 C 
ATOM     17  O   UNL     1      -4.294   3.638 -23.645  0.00  0.00    -0.346 OA
ATOM     18  C   UNL     1      -1.138   2.540 -22.524  0.00  0.00    -0.008 C 
ATOM     19  C   UNL     1      -0.647   1.955 -21.472  0.00  0.00    +0.016 C 
ATOM     20  C   UNL     1       3.958   1.616 -22.509  0.00  0.00    +0.139 C 
ATOM     21  O   UNL     1       4.791   1.071 -21.674  0.00  0.00    -0.297 OA
ATOM     22  C   UNL     1       4.257   2.112 -23.674  0.00  0.00    +0.075 C 
ATOM     23  C   UNL     1       3.164   2.563 -24.212  0.00  0.00    +0.012 C 
ATOM     24  C   UNL     1       2.188   2.346 -23.381  0.00  0.00    +0.006 C 
ENDROOT
TORSDOF 0
ENDMDL
MODEL 4
REMARK VINA RESULT:   -11.807      1.351      6.861
REMARK INTER + INTRA:         -11.807
REMARK INTER:                 -11.807
REMARK INTRA:                   0.000
REMARK UNBOUND:                 0.000
REMARK  Name = C[C@]12CC[C@@H]3[C@H](CC=C4CC5(CC[C@@]43C)OCCO5)[C@H]1CCC2=O         ZINC000238937255
REMARK  2 active torsions:
REMARK  status: ('A' for Active; 'I' for Inactive)
REMARK    1  A    between atoms: C_1  and  C_2
REMARK    2  A    between atoms: C_14  and  C_15
REMARK                            x       y       z     vdW  Elec       q    Type
REMARK                         _______ _______ _______ _____ _____    ______ ____
ROOT
ATOM      1  C   UNL     1       4.176   2.842 -23.351  0.00  0.00    +0.019 C 
ATOM      2  C   UNL     1       3.179   2.384 -22.654  0.00  0.00    +0.029 C 
ATOM      3  C   UNL     1       2.826   3.166 -23.630  0.00  0.00    +0.015 C 
ATOM      4  C   UNL     1       1.569   3.423 -23.834  0.00  0.00    +0.005 C 
ATOM      5  C   UNL     1       0.663   2.899 -23.061  0.00  0.00    +0.003 C 
ATOM      6  C   UNL     1       1.017   2.118 -22.085  0.00  0.00    +0.001 C 
ATOM      7  C   UNL     1       0.111   1.594 -21.312  0.00  0.00    +0.031 C 
ATOM      8  C   UNL     1      -1.146   1.852 -21.516  0.00  0.00    -0.027 C 
ATOM      9  C   UNL     1      -1.499   2.634 -22.493  0.00  0.00    -0.062 C 
ATOM     10  C   UNL     1      -2.756   2.892 -22.698  0.00  0.00    +0.096 C 
ATOM     11  C   UNL     1      -3.109   3.674 -23.675  0.00  0.00    +0.174 C 
ATOM     12  O   UNL     1      -3.591   4.435 -24.611  0.00  0.00    -0.346 OA
ATOM     13  C   UNL     1      -4.886   4.447 -24.493  0.00  0.00    +0.191 C 
ATOM     14  C   UNL     1      -5.204   3.694 -23.484  0.00  0.00    +0.191 C 
ATOM     15  C   UNL     1      -2.205   4.197 -24.447  0.00  0.00    +0.066 C 
ATOM     16  C   UNL     1      -0.947   3.939 -24.243  0.00  0.00    +0.016 C 
ATOM     17  O   UNL     1      -4.107   3.215 -22.977  0.00  0.00    -0.346 OA
ATOM     18  C   UNL     1      -0.594   3.158 -23.266  0.00  0.00    -0.008 C 
ATOM     19  C   UNL     1       0.311   3.681 -24.038  0.00  0.00    +0.016 C 
ATOM     20  C   UNL     1       4.344   1.975 -22.244  0.00  0.00    +0.139 C 
ATOM     21  O   UNL     1       5.491   2.287 -22.767  0.00  0.00    -0.297 OA
ATOM     22  C   UNL     1       4.158   1.198 -21.218  0.00  0.00    +0.075 C 
ATOM     23  C   UNL     1       2.879   1.127 -20.993  0.00  0.00    +0.012 C 
ATOM     24  C   UNL     1       2.274   1.860 -21.880  0.00  0.00    +0.006 C 
ENDROOT
TORSDOF 0
ENDMDL
MODEL 5
REMARK VINA RESULT:   -11.681      1.080      1.351
REMARK INTER + INTRA:         -11.681
REMARK INTER:                 -11.681
REMARK INTRA:                   0.000
REMARK UNBOUND:                 0.000
REMARK  Name = C[C@]12CC[C@@H]3[C@H](CC=C4CC5(CC[C@@]43C)OCCO5)[C@H]1CCC2=O         ZINC000238937255
REMARK  2 active torsions:
REMARK  status: ('A' for Active; 'I' for Inactive)
REMARK    1  A    between atoms: C_1  and  C_2
REMARK    2  A    between atoms: C_14  and  C_15
REMARK                            x       y       z     vdW  Elec       q    Type
REMARK                         _______ _______ _______ _____ _____    ______ ____
ROOT
ATOM      1  C   UNL     1      -3.824   2.754 -21.992  0.00  0.00    +0.019 C 
ATOM      2  C   UNL     1      -3.025   3.200 -22.915  0.00  0.00    +0.029 C 
ATOM      3  C   UNL     1      -2.418   2.586 -21.943  0.00  0.00    +0.015 C 
ATOM      4  C   UNL     1      -1.125   2.467 -21.958  0.00  0.00    +0.005 C 
ATOM      5  C   UNL     1      -0.436   2.960 -22.945  0.00  0.00    +0.003 C 
ATOM      6  C   UNL     1      -1.043   3.574 -23.917  0.00  0.00    +0.001 C 
ATOM      7  C   UNL     1      -0.355   4.068 -24.903  0.00  0.00    +0.031 C 
ATOM      8  C   UNL     1       0.939   3.947 -24.917  0.00  0.00    -0.027 C 
ATOM      9  C   UNL     1       1.546   3.333 -23.945  0.00  0.00    -0.062 C 
ATOM     10  C   UNL     1       2.840   3.213 -23.959  0.00  0.00    +0.096 C 
ATOM     11  C   UNL     1       3.447   2.599 -22.987  0.00  0.00    +0.174 C 
ATOM     12  O   UNL     1       4.170   2.012 -22.081  0.00  0.00    -0.346 OA
ATOM     13  C   UNL     1       5.415   2.095 -22.444  0.00  0.00    +0.191 C 
ATOM     14  C   UNL     1       5.462   2.734 -23.574  0.00  0.00    +0.191 C 
ATOM     15  C   UNL     1       2.759   2.106 -22.001  0.00  0.00    +0.066 C 
ATOM     16  C   UNL     1       1.464   2.226 -21.986  0.00  0.00    +0.016 C 
ATOM     17  O   UNL     1       4.246   3.047 -23.911  0.00  0.00    -0.346 OA
ATOM     18  C   UNL     1       0.858   2.840 -22.959  0.00  0.00    -0.008 C 
ATOM     19  C   UNL     1       0.170   2.346 -21.972  0.00  0.00    +0.016 C 
ATOM     20  C   UNL     1      -4.282   3.451 -23.136  0.00  0.00    +0.139 C 
ATOM     21  O   UNL     1      -5.275   3.113 -22.370  0.00  0.00    -0.297 OA
ATOM     22  C   UNL     1      -4.370   4.099 -24.260  0.00  0.00    +0.075 C 
ATOM     23  C   UNL     1      -3.169   4.250 -24.733  0.00  0.00    +0.012 C 
ATOM     24  C   UNL     1      -2.338   3.694 -23.903  0.00  0.00    +0.006 C 
ENDROOT
TORSDOF 0
ENDMDL
