MODEL 1
REMARK VINA RESULT:   -10.339      0.000      0.000
REMARK INTER + INTRA:         -10.641
REMARK INTER:                 -10.641
REMARK INTRA:                   0.000
REMARK UNBOUND:                 0.000
REMARK  Name = CC1=C2CC[C@](C)(O)[C@@H]2[C@H]2OC(=O)[C@@H](C)[C@@H]2CC1             ZINC000106803354
REMARK  4 active torsions:
REMARK  status: ('A' for Active; 'I' for Inactive)
REMARK    1  A    between atoms: C_1  and  C_2
REMARK    2  A    between atoms: C_6  and  C_7
REMARK    3  A    between atoms: C_6  and  O_8
REMARK    4  A    between atoms: C_14  and  C_15
REMARK                            x       y       z     vdW  Elec       q    Type
REMARK                         _______ _______ _______ _____ _____    ______ ____
ROOT
ATOM      1  C   UNL     1      -5.768   3.391 -22.116  0.00  0.00    +0.039 C 
ATOM      2  C   UNL     1      -4.526   3.130 -22.397  0.00  0.00    -0.073 C 
ATOM      3  C   UNL     1      -4.179   3.301 -23.637  0.00  0.00    -0.061 C 
ATOM      4  C   UNL     1      -5.000   3.705 -24.561  0.00  0.00    +0.034 C 
ATOM      5  C   UNL     1      -4.343   3.771 -25.682  0.00  0.00    +0.039 C 
ATOM      6  C   UNL     1      -3.117   3.408 -25.450  0.00  0.00    +0.073 C 
ATOM      7  C   UNL     1      -2.955   3.632 -26.721  0.00  0.00    +0.042 C 
ATOM      8  C   UNL     1      -3.015   3.117 -24.187  0.00  0.00    +0.087 C 
ATOM      9  C   UNL     1      -1.910   2.717 -23.631  0.00  0.00    +0.190 C 
ATOM     10  O   UNL     1      -0.795   2.566 -24.281  0.00  0.00    -0.460 OA
ATOM     11  C   UNL     1       0.108   2.158 -23.440  0.00  0.00    +0.311 C 
ATOM     12  C   UNL     1      -0.450   2.056 -22.269  0.00  0.00    +0.101 C 
ATOM     13  C   UNL     1       0.138   1.676 -21.174  0.00  0.00    +0.019 C 
ATOM     14  O   UNL     1       1.351   1.897 -23.719  0.00  0.00    -0.251 OA
ATOM     15  C   UNL     1      -1.697   2.402 -22.387  0.00  0.00    +0.044 C 
ATOM     16  C   UNL     1      -2.535   2.409 -21.394  0.00  0.00    +0.012 C 
ATOM     17  C   UNL     1      -3.794   2.733 -21.398  0.00  0.00    +0.031 C 
ENDROOT
BRANCH   6  18
ATOM     18  O   UNL     1      -1.857   3.091 -25.485  0.00  0.00    -0.388 OA
ATOM     19  H   UNL     1      -1.641   2.538 -24.718  0.00  0.00    +0.210 HD
ENDBRANCH   6  18
TORSDOF 1
ENDMDL
MODEL 2
REMARK VINA RESULT:    -9.862      1.655      3.179
REMARK INTER + INTRA:         -10.150
REMARK INTER:                 -10.150
REMARK INTRA:                   0.000
REMARK UNBOUND:                 0.000
REMARK  Name = CC1=C2CC[C@](C)(O)[C@@H]2[C@H]2OC(=O)[C@@H](C)[C@@H]2CC1             ZINC000106803354
REMARK  4 active torsions:
REMARK  status: ('A' for Active; 'I' for Inactive)
REMARK    1  A    between atoms: C_1  and  C_2
REMARK    2  A    between atoms: C_6  and  C_7
REMARK    3  A    between atoms: C_6  and  O_8
REMARK    4  A    between atoms: C_14  and  C_15
REMARK                            x       y       z     vdW  Elec       q    Type
REMARK                         _______ _______ _______ _____ _____    ______ ____
ROOT
ATOM      1  C   UNL     1      -3.798   4.450 -25.872  0.00  0.00    +0.039 C 
ATOM      2  C   UNL     1      -3.058   3.897 -24.958  0.00  0.00    -0.073 C 
ATOM      3  C   UNL     1      -3.667   3.575 -23.856  0.00  0.00    -0.061 C 
ATOM      4  C   UNL     1      -4.935   3.781 -23.653  0.00  0.00    +0.034 C 
ATOM      5  C   UNL     1      -5.226   3.348 -22.462  0.00  0.00    +0.039 C 
ATOM      6  C   UNL     1      -4.139   2.876 -21.929  0.00  0.00    +0.073 C 
ATOM      7  C   UNL     1      -4.909   2.626 -20.911  0.00  0.00    +0.042 C 
ATOM      8  C   UNL     1      -3.175   3.015 -22.790  0.00  0.00    +0.087 C 
ATOM      9  C   UNL     1      -1.951   2.640 -22.564  0.00  0.00    +0.190 C 
ATOM     10  O   UNL     1      -1.566   2.086 -21.453  0.00  0.00    -0.460 OA
ATOM     11  C   UNL     1      -0.295   1.834 -21.549  0.00  0.00    +0.311 C 
ATOM     12  C   UNL     1       0.106   2.233 -22.720  0.00  0.00    +0.101 C 
ATOM     13  C   UNL     1       1.318   2.148 -23.182  0.00  0.00    +0.019 C 
ATOM     14  O   UNL     1       0.447   1.281 -20.635  0.00  0.00    -0.251 OA
ATOM     15  C   UNL     1      -0.918   2.731 -23.348  0.00  0.00    +0.044 C 
ATOM     16  C   UNL     1      -0.852   3.219 -24.550  0.00  0.00    +0.012 C 
ATOM     17  C   UNL     1      -1.804   3.738 -25.267  0.00  0.00    +0.031 C 
ENDROOT
BRANCH   6  18
ATOM     18  O   UNL     1      -3.212   2.351 -21.183  0.00  0.00    -0.388 OA
ATOM     19  H   UNL     1      -2.343   2.659 -21.482  0.00  0.00    +0.210 HD
ENDBRANCH   6  18
TORSDOF 1
ENDMDL
MODEL 3
REMARK VINA RESULT:    -9.499      1.470      4.246
REMARK INTER + INTRA:          -9.777
REMARK INTER:                  -9.777
REMARK INTRA:                   0.000
REMARK UNBOUND:                 0.000
REMARK  Name = CC1=C2CC[C@](C)(O)[C@@H]2[C@H]2OC(=O)[C@@H](C)[C@@H]2CC1             ZINC000106803354
REMARK  4 active torsions:
REMARK  status: ('A' for Active; 'I' for Inactive)
REMARK    1  A    between atoms: C_1  and  C_2
REMARK    2  A    between atoms: C_6  and  C_7
REMARK    3  A    between atoms: C_6  and  O_8
REMARK    4  A    between atoms: C_14  and  C_15
REMARK                            x       y       z     vdW  Elec       q    Type
REMARK                         _______ _______ _______ _____ _____    ______ ____
ROOT
ATOM      1  C   UNL     1       0.116   1.500 -20.891  0.00  0.00    +0.039 C 
ATOM      2  C   UNL     1      -0.672   2.093 -21.738  0.00  0.00    -0.073 C 
ATOM      3  C   UNL     1      -0.099   2.573 -22.802  0.00  0.00    -0.061 C 
ATOM      4  C   UNL     1       1.177   2.481 -23.031  0.00  0.00    +0.034 C 
ATOM      5  C   UNL     1       1.424   3.057 -24.170  0.00  0.00    +0.039 C 
ATOM      6  C   UNL     1       0.300   3.506 -24.645  0.00  0.00    +0.073 C 
ATOM      7  C   UNL     1       1.038   3.917 -25.633  0.00  0.00    +0.042 C 
ATOM      8  C   UNL     1      -0.642   3.207 -23.800  0.00  0.00    +0.087 C 
ATOM      9  C   UNL     1      -1.892   3.516 -23.980  0.00  0.00    +0.190 C 
ATOM     10  O   UNL     1      -2.327   4.157 -25.024  0.00  0.00    -0.460 OA
ATOM     11  C   UNL     1      -3.612   4.305 -24.896  0.00  0.00    +0.311 C 
ATOM     12  C   UNL     1      -3.971   3.757 -23.773  0.00  0.00    +0.101 C 
ATOM     13  C   UNL     1      -5.180   3.705 -23.300  0.00  0.00    +0.019 C 
ATOM     14  O   UNL     1      -4.401   4.898 -25.743  0.00  0.00    -0.251 OA
ATOM     15  C   UNL     1      -2.907   3.269 -23.207  0.00  0.00    +0.044 C 
ATOM     16  C   UNL     1      -2.924   2.651 -22.063  0.00  0.00    +0.012 C 
ATOM     17  C   UNL     1      -1.930   2.128 -21.410  0.00  0.00    +0.031 C 
ENDROOT
BRANCH   6  18
ATOM     18  O   UNL     1      -0.670   4.040 -25.327  0.00  0.00    -0.388 OA
ATOM     19  H   UNL     1      -0.398   4.140 -26.252  0.00  0.00    +0.210 HD
ENDBRANCH   6  18
TORSDOF 1
ENDMDL
MODEL 4
REMARK VINA RESULT:    -8.997      1.921      5.137
REMARK INTER + INTRA:          -9.260
REMARK INTER:                  -9.260
REMARK INTRA:                   0.000
REMARK UNBOUND:                 0.000
REMARK  Name = CC1=C2CC[C@](C)(O)[C@@H]2[C@H]2OC(=O)[C@@H](C)[C@@H]2CC1             ZINC000106803354
REMARK  4 active torsions:
REMARK  status: ('A' for Active; 'I' for Inactive)
REMARK    1  A    between atoms: C_1  and  C_2
REMARK    2  A    between atoms: C_6  and  C_7
REMARK    3  A    between atoms: C_6  and  O_8
REMARK    4  A    between atoms: C_14  and  C_15
REMARK                            x       y       z     vdW  Elec       q    Type
REMARK                         _______ _______ _______ _____ _____    ______ ____
ROOT
ATOM      1  C   UNL     1       1.193   3.370 -25.574  0.00  0.00    +0.039 C 
ATOM      2  C   UNL     1       0.079   3.294 -24.907  0.00  0.00    -0.073 C 
ATOM      3  C   UNL     1       0.163   2.757 -23.727  0.00  0.00    -0.061 C 
ATOM      4  C   UNL     1       1.275   2.315 -23.218  0.00  0.00    +0.034 C 
ATOM      5  C   UNL     1       1.017   1.844 -22.035  0.00  0.00    +0.039 C 
ATOM      6  C   UNL     1      -0.255   1.993 -21.811  0.00  0.00    +0.073 C 
ATOM      7  C   UNL     1       0.019   1.436 -20.669  0.00  0.00    +0.042 C 
ATOM      8  C   UNL     1      -0.783   2.558 -22.857  0.00  0.00    +0.087 C 
ATOM      9  C   UNL     1      -2.047   2.847 -22.954  0.00  0.00    +0.190 C 
ATOM     10  O   UNL     1      -2.912   2.602 -22.015  0.00  0.00    -0.460 OA
ATOM     11  C   UNL     1      -4.076   3.010 -22.424  0.00  0.00    +0.311 C 
ATOM     12  C   UNL     1      -3.930   3.507 -23.617  0.00  0.00    +0.101 C 
ATOM     13  C   UNL     1      -4.874   4.016 -24.353  0.00  0.00    +0.019 C 
ATOM     14  O   UNL     1      -5.190   2.934 -21.759  0.00  0.00    -0.251 OA
ATOM     15  C   UNL     1      -2.676   3.407 -23.944  0.00  0.00    +0.044 C 
ATOM     16  C   UNL     1      -2.198   3.815 -25.082  0.00  0.00    +0.012 C 
ATOM     17  C   UNL     1      -0.972   3.765 -25.511  0.00  0.00    +0.031 C 
ENDROOT
BRANCH   6  18
ATOM     18  O   UNL     1      -1.470   2.027 -21.349  0.00  0.00    -0.388 OA
ATOM     19  H   UNL     1      -1.556   1.394 -20.620  0.00  0.00    +0.210 HD
ENDBRANCH   6  18
TORSDOF 1
ENDMDL
MODEL 5
REMARK VINA RESULT:    -8.926      0.933      3.989
REMARK INTER + INTRA:          -9.187
REMARK INTER:                  -9.187
REMARK INTRA:                   0.000
REMARK UNBOUND:                 0.000
REMARK  Name = CC1=C2CC[C@](C)(O)[C@@H]2[C@H]2OC(=O)[C@@H](C)[C@@H]2CC1             ZINC000106803354
REMARK  4 active torsions:
REMARK  status: ('A' for Active; 'I' for Inactive)
REMARK    1  A    between atoms: C_1  and  C_2
REMARK    2  A    between atoms: C_6  and  C_7
REMARK    3  A    between atoms: C_6  and  O_8
REMARK    4  A    between atoms: C_14  and  C_15
REMARK                            x       y       z     vdW  Elec       q    Type
REMARK                         _______ _______ _______ _____ _____    ______ ____
ROOT
ATOM      1  C   UNL     1      -3.333   3.015 -19.948  0.00  0.00    +0.039 C 
ATOM      2  C   UNL     1      -3.303   3.083 -21.246  0.00  0.00    -0.073 C 
ATOM      3  C   UNL     1      -2.154   2.829 -21.798  0.00  0.00    -0.061 C 
ATOM      4  C   UNL     1      -1.086   2.523 -21.122  0.00  0.00    +0.034 C 
ATOM      5  C   UNL     1      -0.117   2.330 -21.967  0.00  0.00    +0.039 C 
ATOM      6  C   UNL     1      -0.585   2.517 -23.165  0.00  0.00    +0.073 C 
ATOM      7  C   UNL     1       0.628   2.236 -23.536  0.00  0.00    +0.042 C 
ATOM      8  C   UNL     1      -1.844   2.825 -23.061  0.00  0.00    +0.087 C 
ATOM      9  C   UNL     1      -2.608   3.075 -24.083  0.00  0.00    +0.190 C 
ATOM     10  O   UNL     1      -2.190   3.043 -25.314  0.00  0.00    -0.460 OA
ATOM     11  C   UNL     1      -3.193   3.339 -26.086  0.00  0.00    +0.311 C 
ATOM     12  C   UNL     1      -4.230   3.554 -25.333  0.00  0.00    +0.101 C 
ATOM     13  C   UNL     1      -5.420   3.875 -25.745  0.00  0.00    +0.019 C 
ATOM     14  O   UNL     1      -3.164   3.407 -27.384  0.00  0.00    -0.251 OA
ATOM     15  C   UNL     1      -3.869   3.391 -24.095  0.00  0.00    +0.044 C 
ATOM     16  C   UNL     1      -4.678   3.534 -23.088  0.00  0.00    +0.012 C 
ATOM     17  C   UNL     1      -4.426   3.397 -21.820  0.00  0.00    +0.031 C 
ENDROOT
BRANCH   6  18
ATOM     18  O   UNL     1      -0.800   2.645 -24.441  0.00  0.00    -0.388 OA
ATOM     19  H   UNL     1      -1.626   3.132 -24.583  0.00  0.00    +0.210 HD
ENDBRANCH   6  18
TORSDOF 1
ENDMDL
MODEL 6
REMARK VINA RESULT:    -8.917      1.840      4.156
REMARK INTER + INTRA:          -9.178
REMARK INTER:                  -9.178
REMARK INTRA:                   0.000
REMARK UNBOUND:                 0.000
REMARK  Name = CC1=C2CC[C@](C)(O)[C@@H]2[C@H]2OC(=O)[C@@H](C)[C@@H]2CC1             ZINC000106803354
REMARK  4 active torsions:
REMARK  status: ('A' for Active; 'I' for Inactive)
REMARK    1  A    between atoms: C_1  and  C_2
REMARK    2  A    between atoms: C_6  and  C_7
REMARK    3  A    between atoms: C_6  and  O_8
REMARK    4  A    between atoms: C_14  and  C_15
REMARK                            x       y       z     vdW  Elec       q    Type
REMARK                         _______ _______ _______ _____ _____    ______ ____
ROOT
ATOM      1  C   UNL     1      -2.944   3.668 -27.245  0.00  0.00    +0.039 C 
ATOM      2  C   UNL     1      -3.076   3.572 -25.955  0.00  0.00    -0.073 C 
ATOM      3  C   UNL     1      -1.970   3.555 -25.274  0.00  0.00    -0.061 C 
ATOM      4  C   UNL     1      -0.792   3.627 -25.819  0.00  0.00    +0.034 C 
ATOM      5  C   UNL     1       0.095   3.584 -24.869  0.00  0.00    +0.039 C 
ATOM      6  C   UNL     1      -0.535   3.486 -23.736  0.00  0.00    +0.073 C 
ATOM      7  C   UNL     1       0.661   3.483 -23.227  0.00  0.00    +0.042 C 
ATOM      8  C   UNL     1      -1.811   3.467 -23.986  0.00  0.00    +0.087 C 
ATOM      9  C   UNL     1      -2.721   3.376 -23.062  0.00  0.00    +0.190 C 
ATOM     10  O   UNL     1      -2.447   3.293 -21.793  0.00  0.00    -0.460 OA
ATOM     11  C   UNL     1      -3.571   3.215 -21.145  0.00  0.00    +0.311 C 
ATOM     12  C   UNL     1      -4.539   3.250 -22.012  0.00  0.00    +0.101 C 
ATOM     13  C   UNL     1      -5.809   3.195 -21.742  0.00  0.00    +0.019 C 
ATOM     14  O   UNL     1      -3.704   3.120 -19.855  0.00  0.00    -0.251 OA
ATOM     15  C   UNL     1      -4.014   3.349 -23.197  0.00  0.00    +0.044 C 
ATOM     16  C   UNL     1      -4.716   3.407 -24.289  0.00  0.00    +0.012 C 
ATOM     17  C   UNL     1      -4.299   3.506 -25.516  0.00  0.00    +0.031 C 
ENDROOT
BRANCH   6  18
ATOM     18  O   UNL     1      -0.915   3.386 -22.497  0.00  0.00    -0.388 OA
ATOM     19  H   UNL     1      -0.690   4.202 -22.024  0.00  0.00    +0.210 HD
ENDBRANCH   6  18
TORSDOF 1
ENDMDL
MODEL 7
REMARK VINA RESULT:    -8.845      1.942      3.831
REMARK INTER + INTRA:          -9.103
REMARK INTER:                  -9.103
REMARK INTRA:                   0.000
REMARK UNBOUND:                 0.000
REMARK  Name = CC1=C2CC[C@](C)(O)[C@@H]2[C@H]2OC(=O)[C@@H](C)[C@@H]2CC1             ZINC000106803354
REMARK  4 active torsions:
REMARK  status: ('A' for Active; 'I' for Inactive)
REMARK    1  A    between atoms: C_1  and  C_2
REMARK    2  A    between atoms: C_6  and  C_7
REMARK    3  A    between atoms: C_6  and  O_8
REMARK    4  A    between atoms: C_14  and  C_15
REMARK                            x       y       z     vdW  Elec       q    Type
REMARK                         _______ _______ _______ _____ _____    ______ ____
ROOT
ATOM      1  C   UNL     1       0.928   2.901 -23.591  0.00  0.00    +0.039 C 
ATOM      2  C   UNL     1      -0.330   2.915 -23.260  0.00  0.00    -0.073 C 
ATOM      3  C   UNL     1      -1.164   3.166 -24.225  0.00  0.00    -0.061 C 
ATOM      4  C   UNL     1      -0.795   3.392 -25.451  0.00  0.00    +0.034 C 
ATOM      5  C   UNL     1      -1.863   3.605 -26.160  0.00  0.00    +0.039 C 
ATOM      6  C   UNL     1      -2.893   3.512 -25.372  0.00  0.00    +0.073 C 
ATOM      7  C   UNL     1      -3.570   3.775 -26.450  0.00  0.00    +0.042 C 
ATOM      8  C   UNL     1      -2.462   3.240 -24.176  0.00  0.00    +0.087 C 
ATOM      9  C   UNL     1      -3.244   3.082 -23.150  0.00  0.00    +0.190 C 
ATOM     10  O   UNL     1      -4.539   3.179 -23.216  0.00  0.00    -0.460 OA
ATOM     11  C   UNL     1      -5.018   2.968 -22.026  0.00  0.00    +0.311 C 
ATOM     12  C   UNL     1      -4.019   2.740 -21.225  0.00  0.00    +0.101 C 
ATOM     13  C   UNL     1      -4.103   2.487 -19.953  0.00  0.00    +0.019 C 
ATOM     14  O   UNL     1      -6.275   2.982 -21.694  0.00  0.00    -0.251 OA
ATOM     15  C   UNL     1      -2.923   2.811 -21.920  0.00  0.00    +0.044 C 
ATOM     16  C   UNL     1      -1.740   2.630 -21.412  0.00  0.00    +0.012 C 
ATOM     17  C   UNL     1      -0.586   2.677 -22.008  0.00  0.00    +0.031 C 
ENDROOT
BRANCH   6  18
ATOM     18  O   UNL     1      -4.065   3.473 -24.810  0.00  0.00    -0.388 OA
ATOM     19  H   UNL     1      -4.125   4.171 -24.139  0.00  0.00    +0.210 HD
ENDBRANCH   6  18
TORSDOF 1
ENDMDL
MODEL 8
REMARK VINA RESULT:    -8.173      1.799      4.927
REMARK INTER + INTRA:          -8.412
REMARK INTER:                  -8.412
REMARK INTRA:                   0.000
REMARK UNBOUND:                 0.000
REMARK  Name = CC1=C2CC[C@](C)(O)[C@@H]2[C@H]2OC(=O)[C@@H](C)[C@@H]2CC1             ZINC000106803354
REMARK  4 active torsions:
REMARK  status: ('A' for Active; 'I' for Inactive)
REMARK    1  A    between atoms: C_1  and  C_2
REMARK    2  A    between atoms: C_6  and  C_7
REMARK    3  A    between atoms: C_6  and  O_8
REMARK    4  A    between atoms: C_14  and  C_15
REMARK                            x       y       z     vdW  Elec       q    Type
REMARK                         _______ _______ _______ _____ _____    ______ ____
ROOT
ATOM      1  C   UNL     1       2.909   1.132 -20.825  0.00  0.00    +0.039 C 
ATOM      2  C   UNL     1       1.806   1.500 -21.405  0.00  0.00    -0.073 C 
ATOM      3  C   UNL     1       1.906   1.817 -22.661  0.00  0.00    -0.061 C 
ATOM      4  C   UNL     1       3.025   1.779 -23.322  0.00  0.00    +0.034 C 
ATOM      5  C   UNL     1       2.783   2.153 -24.544  0.00  0.00    +0.039 C 
ATOM      6  C   UNL     1       1.515   2.423 -24.638  0.00  0.00    +0.073 C 
ATOM      7  C   UNL     1       1.805   2.698 -25.875  0.00  0.00    +0.042 C 
ATOM      8  C   UNL     1       0.972   2.216 -23.474  0.00  0.00    +0.087 C 
ATOM      9  C   UNL     1      -0.292   2.395 -23.231  0.00  0.00    +0.190 C 
ATOM     10  O   UNL     1      -1.143   2.799 -24.127  0.00  0.00    -0.460 OA
ATOM     11  C   UNL     1      -2.313   2.874 -23.564  0.00  0.00    +0.311 C 
ATOM     12  C   UNL     1      -2.184   2.516 -22.321  0.00  0.00    +0.101 C 
ATOM     13  C   UNL     1      -3.137   2.463 -21.439  0.00  0.00    +0.019 C 
ATOM     14  O   UNL     1      -3.417   3.242 -24.143  0.00  0.00    -0.251 OA
ATOM     15  C   UNL     1      -0.935   2.219 -22.115  0.00  0.00    +0.044 C 
ATOM     16  C   UNL     1      -0.473   1.823 -20.967  0.00  0.00    +0.012 C 
ATOM     17  C   UNL     1       0.746   1.502 -20.650  0.00  0.00    +0.031 C 
ENDROOT
BRANCH   6  18
ATOM     18  O   UNL     1       0.307   2.750 -24.990  0.00  0.00    -0.388 OA
ATOM     19  H   UNL     1      -0.148   1.972 -25.347  0.00  0.00    +0.210 HD
ENDBRANCH   6  18
TORSDOF 1
ENDMDL
MODEL 9
REMARK VINA RESULT:    -7.999      2.300      3.592
REMARK INTER + INTRA:          -8.233
REMARK INTER:                  -8.233
REMARK INTRA:                   0.000
REMARK UNBOUND:                 0.000
REMARK  Name = CC1=C2CC[C@](C)(O)[C@@H]2[C@H]2OC(=O)[C@@H](C)[C@@H]2CC1             ZINC000106803354
REMARK  4 active torsions:
REMARK  status: ('A' for Active; 'I' for Inactive)
REMARK    1  A    between atoms: C_1  and  C_2
REMARK    2  A    between atoms: C_6  and  C_7
REMARK    3  A    between atoms: C_6  and  O_8
REMARK    4  A    between atoms: C_14  and  C_15
REMARK                            x       y       z     vdW  Elec       q    Type
REMARK                         _______ _______ _______ _____ _____    ______ ____
ROOT
ATOM      1  C   UNL     1      -2.431   2.615 -21.750  0.00  0.00    +0.039 C 
ATOM      2  C   UNL     1      -1.160   2.434 -21.954  0.00  0.00    -0.073 C 
ATOM      3  C   UNL     1      -0.690   2.930 -23.059  0.00  0.00    -0.061 C 
ATOM      4  C   UNL     1      -1.419   3.570 -23.924  0.00  0.00    +0.034 C 
ATOM      5  C   UNL     1      -0.650   3.932 -24.909  0.00  0.00    +0.039 C 
ATOM      6  C   UNL     1       0.554   3.514 -24.653  0.00  0.00    +0.073 C 
ATOM      7  C   UNL     1       0.843   4.070 -25.792  0.00  0.00    +0.042 C 
ATOM      8  C   UNL     1       0.530   2.895 -23.509  0.00  0.00    +0.087 C 
ATOM      9  C   UNL     1       1.580   2.355 -22.965  0.00  0.00    +0.190 C 
ATOM     10  O   UNL     1       2.761   2.380 -23.507  0.00  0.00    -0.460 OA
ATOM     11  C   UNL     1       3.581   1.757 -22.713  0.00  0.00    +0.311 C 
ATOM     12  C   UNL     1       2.906   1.348 -21.680  0.00  0.00    +0.101 C 
ATOM     13  C   UNL     1       3.384   0.685 -20.669  0.00  0.00    +0.019 C 
ATOM     14  O   UNL     1       4.852   1.576 -22.916  0.00  0.00    -0.251 OA
ATOM     15  C   UNL     1       1.669   1.718 -21.835  0.00  0.00    +0.044 C 
ATOM     16  C   UNL     1       0.732   1.462 -20.972  0.00  0.00    +0.012 C 
ATOM     17  C   UNL     1      -0.527   1.780 -21.025  0.00  0.00    +0.031 C 
ENDROOT
BRANCH   6  18
ATOM     18  O   UNL     1       1.819   3.213 -24.634  0.00  0.00    -0.388 OA
ATOM     19  H   UNL     1       2.083   2.876 -25.504  0.00  0.00    +0.210 HD
ENDBRANCH   6  18
TORSDOF 1
ENDMDL
