MODEL 1
REMARK VINA RESULT:   -10.386      0.000      0.000
REMARK INTER + INTRA:         -11.716
REMARK INTER:                 -11.613
REMARK INTRA:                  -0.104
REMARK UNBOUND:                -0.116
REMARK  Name = COc1ccc2c(c1O)[C@@]13CC=CC=C1[C@H](C2)N(C)CC3                        ZINC000100393386
REMARK  4 active torsions:
REMARK  status: ('A' for Active; 'I' for Inactive)
REMARK    1  A    between atoms: C_1  and  O_2
REMARK    2  A    between atoms: O_2  and  C_3
REMARK    3  A    between atoms: C_8  and  O_9
REMARK    4  A    between atoms: N_18  and  C_19
REMARK                            x       y       z     vdW  Elec       q    Type
REMARK                         _______ _______ _______ _____ _____    ______ ____
ROOT
ATOM      1  C   UNL     1       0.521   2.374 -23.543  0.00  0.00    +0.162 A 
ATOM      2  C   UNL     1       0.590   1.976 -22.291  0.00  0.00    +0.050 A 
ATOM      3  C   UNL     1      -0.498   1.973 -21.506  0.00  0.00    +0.008 A 
ATOM      4  C   UNL     1      -1.788   2.410 -22.020  0.00  0.00    -0.034 A 
ATOM      5  C   UNL     1      -1.764   2.748 -23.145  0.00  0.00    +0.012 A 
ATOM      6  C   UNL     1      -2.607   3.112 -23.737  0.00  0.00    +0.034 C 
ATOM      7  C   UNL     1      -1.247   2.808 -23.708  0.00  0.00    +0.043 C 
ATOM      8  C   UNL     1      -0.614   2.307 -22.518  0.00  0.00    -0.026 C 
ATOM      9  C   UNL     1      -1.310   2.094 -21.325  0.00  0.00    -0.004 C 
ATOM     10  C   UNL     1      -2.308   2.312 -21.330  0.00  0.00    +0.005 C 
ATOM     11  C   UNL     1      -3.500   3.544 -24.516  0.00  0.00    +0.067 C 
ATOM     12  C   UNL     1      -4.713   3.638 -23.962  0.00  0.00    +0.133 C 
ATOM     13  N   UNL     1      -4.820   3.262 -22.656  0.00  0.00    +0.239 N 
ATOM     14  H   UNL     1      -5.140   3.043 -21.713  0.00  0.00    +0.204 HD
ATOM     15  C   UNL     1      -5.953   3.338 -22.099  0.00  0.00    +0.191 C 
ATOM     16  C   UNL     1      -3.718   2.852 -22.095  0.00  0.00    +0.096 C 
ATOM     17  C   UNL     1      -3.006   2.866 -22.648  0.00  0.00    -0.011 C 
ATOM     18  C   UNL     1      -3.191   2.520 -21.384  0.00  0.00    +0.094 C 
ATOM     19  C   UNL     1      -0.578   2.755 -24.010  0.00  0.00    +0.163 A 
ENDROOT
BRANCH   1  21
ATOM     20  C   UNL     1       2.458   1.821 -25.101  0.00  0.00    +0.277 C 
ATOM     21  O   UNL     1       1.464   2.509 -24.654  0.00  0.00    -0.491 OA
ENDBRANCH   1  21
BRANCH  19  22
ATOM     22  O   UNL     1       0.120   2.968 -25.201  0.00  0.00    -0.503 OA
ATOM     23  H   UNL     1      -0.230   3.542 -25.852  0.00  0.00    +0.292 HD
ENDBRANCH  19  22
TORSDOF 2
ENDMDL
MODEL 2
REMARK VINA RESULT:   -10.148      1.506      2.549
REMARK INTER + INTRA:         -11.451
REMARK INTER:                 -11.351
REMARK INTRA:                  -0.100
REMARK UNBOUND:                -0.116
REMARK  Name = COc1ccc2c(c1O)[C@@]13CC=CC=C1[C@H](C2)N(C)CC3                        ZINC000100393386
REMARK  4 active torsions:
REMARK  status: ('A' for Active; 'I' for Inactive)
REMARK    1  A    between atoms: C_1  and  O_2
REMARK    2  A    between atoms: O_2  and  C_3
REMARK    3  A    between atoms: C_8  and  O_9
REMARK    4  A    between atoms: N_18  and  C_19
REMARK                            x       y       z     vdW  Elec       q    Type
REMARK                         _______ _______ _______ _____ _____    ______ ____
ROOT
ATOM      1  C   UNL     1       0.835   1.894 -22.247  0.00  0.00    +0.162 A 
ATOM      2  C   UNL     1       1.018   2.380 -23.456  0.00  0.00    +0.050 A 
ATOM      3  C   UNL     1      -0.002   2.911 -24.148  0.00  0.00    +0.008 A 
ATOM      4  C   UNL     1      -1.341   2.962 -23.579  0.00  0.00    -0.034 A 
ATOM      5  C   UNL     1      -1.418   2.508 -22.498  0.00  0.00    +0.012 A 
ATOM      6  C   UNL     1      -2.317   2.439 -21.880  0.00  0.00    +0.034 C 
ATOM      7  C   UNL     1      -0.951   2.180 -21.986  0.00  0.00    +0.043 C 
ATOM      8  C   UNL     1      -0.210   2.530 -23.168  0.00  0.00    -0.026 C 
ATOM      9  C   UNL     1      -0.799   3.145 -24.275  0.00  0.00    -0.004 C 
ATOM     10  C   UNL     1      -1.800   3.342 -24.213  0.00  0.00    +0.005 C 
ATOM     11  C   UNL     1      -3.281   2.306 -21.079  0.00  0.00    +0.067 C 
ATOM     12  C   UNL     1      -4.447   2.769 -21.542  0.00  0.00    +0.133 C 
ATOM     13  N   UNL     1      -4.437   3.312 -22.792  0.00  0.00    +0.239 N 
ATOM     14  H   UNL     1      -4.672   3.752 -23.681  0.00  0.00    +0.204 HD
ATOM     15  C   UNL     1      -5.522   3.760 -23.262  0.00  0.00    +0.191 C 
ATOM     16  C   UNL     1      -3.281   3.317 -23.396  0.00  0.00    +0.096 C 
ATOM     17  C   UNL     1      -2.618   2.954 -22.905  0.00  0.00    -0.011 C 
ATOM     18  C   UNL     1      -2.689   3.496 -24.110  0.00  0.00    +0.094 C 
ATOM     19  C   UNL     1      -0.308   1.926 -21.734  0.00  0.00    +0.163 A 
ENDROOT
BRANCH   1  21
ATOM     20  C   UNL     1       2.945   1.224 -20.987  0.00  0.00    +0.277 C 
ATOM     21  O   UNL     1       1.681   1.262 -21.233  0.00  0.00    -0.491 OA
ENDBRANCH   1  21
BRANCH  19  22
ATOM     22  O   UNL     1       0.284   1.311 -20.629  0.00  0.00    -0.503 OA
ATOM     23  H   UNL     1       0.535   0.411 -20.673  0.00  0.00    +0.292 HD
ENDBRANCH  19  22
TORSDOF 2
ENDMDL
MODEL 3
REMARK VINA RESULT:   -10.145      2.437      5.120
REMARK INTER + INTRA:         -11.448
REMARK INTER:                 -11.347
REMARK INTRA:                  -0.101
REMARK UNBOUND:                -0.116
REMARK  Name = COc1ccc2c(c1O)[C@@]13CC=CC=C1[C@H](C2)N(C)CC3                        ZINC000100393386
REMARK  4 active torsions:
REMARK  status: ('A' for Active; 'I' for Inactive)
REMARK    1  A    between atoms: C_1  and  O_2
REMARK    2  A    between atoms: O_2  and  C_3
REMARK    3  A    between atoms: C_8  and  O_9
REMARK    4  A    between atoms: N_18  and  C_19
REMARK                            x       y       z     vdW  Elec       q    Type
REMARK                         _______ _______ _______ _____ _____    ______ ____
ROOT
ATOM      1  C   UNL     1      -4.887   3.678 -23.313  0.00  0.00    +0.162 A 
ATOM      2  C   UNL     1      -4.903   4.128 -24.549  0.00  0.00    +0.050 A 
ATOM      3  C   UNL     1      -3.795   4.108 -25.305  0.00  0.00    +0.008 A 
ATOM      4  C   UNL     1      -2.542   3.587 -24.777  0.00  0.00    -0.034 A 
ATOM      5  C   UNL     1      -2.614   3.206 -23.668  0.00  0.00    +0.012 A 
ATOM      6  C   UNL     1      -1.805   2.777 -23.070  0.00  0.00    +0.034 C 
ATOM      7  C   UNL     1      -3.148   3.150 -23.121  0.00  0.00    +0.043 C 
ATOM      8  C   UNL     1      -3.723   3.728 -24.305  0.00  0.00    -0.026 C 
ATOM      9  C   UNL     1      -2.985   3.954 -25.471  0.00  0.00    -0.004 C 
ATOM     10  C   UNL     1      -2.000   3.686 -25.450  0.00  0.00    +0.005 C 
ATOM     11  C   UNL     1      -0.957   2.270 -22.287  0.00  0.00    +0.067 C 
ATOM     12  C   UNL     1       0.265   2.138 -22.814  0.00  0.00    +0.133 C 
ATOM     13  N   UNL     1       0.426   2.559 -24.100  0.00  0.00    +0.239 N 
ATOM     14  H   UNL     1       0.781   2.798 -25.025  0.00  0.00    +0.204 HD
ATOM     15  C   UNL     1       1.568   2.448 -24.631  0.00  0.00    +0.191 C 
ATOM     16  C   UNL     1      -0.639   3.046 -24.672  0.00  0.00    +0.096 C 
ATOM     17  C   UNL     1      -1.366   3.046 -24.138  0.00  0.00    -0.011 C 
ATOM     18  C   UNL     1      -1.130   3.431 -25.382  0.00  0.00    +0.094 C 
ATOM     19  C   UNL     1      -3.822   3.224 -22.834  0.00  0.00    +0.163 A 
ENDROOT
BRANCH   1  21
ATOM     20  C   UNL     1      -6.434   2.564 -21.623  0.00  0.00    +0.277 C 
ATOM     21  O   UNL     1      -5.866   3.548 -22.233  0.00  0.00    -0.491 OA
ENDBRANCH   1  21
BRANCH  19  22
ATOM     22  O   UNL     1      -4.561   3.000 -21.671  0.00  0.00    -0.503 OA
ATOM     23  H   UNL     1      -5.495   2.945 -21.713  0.00  0.00    +0.292 HD
ENDBRANCH  19  22
TORSDOF 2
ENDMDL
MODEL 4
REMARK VINA RESULT:    -9.670      2.508      4.465
REMARK INTER + INTRA:         -10.917
REMARK INTER:                 -10.803
REMARK INTRA:                  -0.114
REMARK UNBOUND:                -0.116
REMARK  Name = COc1ccc2c(c1O)[C@@]13CC=CC=C1[C@H](C2)N(C)CC3                        ZINC000100393386
REMARK  4 active torsions:
REMARK  status: ('A' for Active; 'I' for Inactive)
REMARK    1  A    between atoms: C_1  and  O_2
REMARK    2  A    between atoms: O_2  and  C_3
REMARK    3  A    between atoms: C_8  and  O_9
REMARK    4  A    between atoms: N_18  and  C_19
REMARK                            x       y       z     vdW  Elec       q    Type
REMARK                         _______ _______ _______ _____ _____    ______ ____
ROOT
ATOM      1  C   UNL     1      -4.520   3.179 -21.639  0.00  0.00    +0.162 A 
ATOM      2  C   UNL     1      -3.675   2.942 -20.659  0.00  0.00    +0.050 A 
ATOM      3  C   UNL     1      -2.357   2.849 -20.891  0.00  0.00    +0.008 A 
ATOM      4  C   UNL     1      -1.824   3.009 -22.236  0.00  0.00    -0.034 A 
ATOM      5  C   UNL     1      -2.644   3.218 -23.053  0.00  0.00    +0.012 A 
ATOM      6  C   UNL     1      -2.478   3.371 -24.122  0.00  0.00    +0.034 C 
ATOM      7  C   UNL     1      -3.405   3.298 -23.083  0.00  0.00    +0.043 C 
ATOM      8  C   UNL     1      -2.997   3.044 -21.728  0.00  0.00    -0.026 C 
ATOM      9  C   UNL     1      -1.661   2.855 -21.363  0.00  0.00    -0.004 C 
ATOM     10  C   UNL     1      -0.969   2.906 -22.113  0.00  0.00    +0.005 C 
ATOM     11  C   UNL     1      -2.411   3.560 -25.366  0.00  0.00    +0.067 C 
ATOM     12  C   UNL     1      -1.170   3.517 -25.862  0.00  0.00    +0.133 C 
ATOM     13  N   UNL     1      -0.164   3.278 -24.975  0.00  0.00    +0.239 N 
ATOM     14  H   UNL     1       0.731   3.117 -24.514  0.00  0.00    +0.204 HD
ATOM     15  C   UNL     1       1.022   3.230 -25.409  0.00  0.00    +0.191 C 
ATOM     16  C   UNL     1      -0.532   3.118 -23.734  0.00  0.00    +0.096 C 
ATOM     17  C   UNL     1      -1.423   3.187 -23.612  0.00  0.00    -0.011 C 
ATOM     18  C   UNL     1      -0.393   2.959 -22.814  0.00  0.00    +0.094 C 
ATOM     19  C   UNL     1      -4.087   3.321 -22.807  0.00  0.00    +0.163 A 
ENDROOT
BRANCH   1  21
ATOM     20  C   UNL     1      -6.981   2.543 -21.790  0.00  0.00    +0.277 C 
ATOM     21  O   UNL     1      -5.969   3.340 -21.757  0.00  0.00    -0.491 OA
ENDBRANCH   1  21
BRANCH  19  22
ATOM     22  O   UNL     1      -5.423   3.509 -23.168  0.00  0.00    -0.503 OA
ATOM     23  H   UNL     1      -5.684   3.411 -24.062  0.00  0.00    +0.292 HD
ENDBRANCH  19  22
TORSDOF 2
ENDMDL
MODEL 5
REMARK VINA RESULT:    -9.643      2.065      4.378
REMARK INTER + INTRA:         -10.887
REMARK INTER:                 -10.782
REMARK INTRA:                  -0.105
REMARK UNBOUND:                -0.116
REMARK  Name = COc1ccc2c(c1O)[C@@]13CC=CC=C1[C@H](C2)N(C)CC3                        ZINC000100393386
REMARK  4 active torsions:
REMARK  status: ('A' for Active; 'I' for Inactive)
REMARK    1  A    between atoms: C_1  and  O_2
REMARK    2  A    between atoms: O_2  and  C_3
REMARK    3  A    between atoms: C_8  and  O_9
REMARK    4  A    between atoms: N_18  and  C_19
REMARK                            x       y       z     vdW  Elec       q    Type
REMARK                         _______ _______ _______ _____ _____    ______ ____
ROOT
ATOM      1  C   UNL     1      -2.937   3.483 -23.490  0.00  0.00    +0.162 A 
ATOM      2  C   UNL     1      -3.259   3.010 -22.305  0.00  0.00    +0.050 A 
ATOM      3  C   UNL     1      -2.360   2.352 -21.557  0.00  0.00    +0.008 A 
ATOM      4  C   UNL     1      -1.002   2.142 -22.037  0.00  0.00    -0.034 A 
ATOM      5  C   UNL     1      -0.797   2.594 -23.103  0.00  0.00    +0.012 A 
ATOM      6  C   UNL     1       0.143   2.558 -23.659  0.00  0.00    +0.034 C 
ATOM      7  C   UNL     1      -1.185   2.982 -23.638  0.00  0.00    +0.043 C 
ATOM      8  C   UNL     1      -2.042   2.714 -22.514  0.00  0.00    -0.026 C 
ATOM      9  C   UNL     1      -1.608   2.021 -21.381  0.00  0.00    -0.004 C 
ATOM     10  C   UNL     1      -0.637   1.703 -21.381  0.00  0.00    +0.005 C 
ATOM     11  C   UNL     1       1.169   2.579 -24.392  0.00  0.00    +0.067 C 
ATOM     12  C   UNL     1       2.235   1.972 -23.861  0.00  0.00    +0.133 C 
ATOM     13  N   UNL     1       2.074   1.422 -22.625  0.00  0.00    +0.239 N 
ATOM     14  H   UNL     1       2.193   0.948 -21.731  0.00  0.00    +0.204 HD
ATOM     15  C   UNL     1       3.062   0.840 -22.092  0.00  0.00    +0.191 C 
ATOM     16  C   UNL     1       0.889   1.554 -22.099  0.00  0.00    +0.096 C 
ATOM     17  C   UNL     1       0.309   2.000 -22.626  0.00  0.00    -0.011 C 
ATOM     18  C   UNL     1       0.232   1.442 -21.428  0.00  0.00    +0.094 C 
ATOM     19  C   UNL     1      -1.774   3.315 -23.926  0.00  0.00    +0.163 A 
ENDROOT
BRANCH   1  21
ATOM     20  C   UNL     1      -4.779   4.143 -25.120  0.00  0.00    +0.277 C 
ATOM     21  O   UNL     1      -3.628   4.223 -24.546  0.00  0.00    -0.491 OA
ENDBRANCH   1  21
BRANCH  19  22
ATOM     22  O   UNL     1      -2.210   4.009 -25.058  0.00  0.00    -0.503 OA
ATOM     23  H   UNL     1      -3.020   3.776 -25.466  0.00  0.00    +0.292 HD
ENDBRANCH  19  22
TORSDOF 2
ENDMDL
MODEL 6
REMARK VINA RESULT:    -9.455      2.473      5.059
REMARK INTER + INTRA:         -10.677
REMARK INTER:                 -10.572
REMARK INTRA:                  -0.105
REMARK UNBOUND:                -0.116
REMARK  Name = COc1ccc2c(c1O)[C@@]13CC=CC=C1[C@H](C2)N(C)CC3                        ZINC000100393386
REMARK  4 active torsions:
REMARK  status: ('A' for Active; 'I' for Inactive)
REMARK    1  A    between atoms: C_1  and  O_2
REMARK    2  A    between atoms: O_2  and  C_3
REMARK    3  A    between atoms: C_8  and  O_9
REMARK    4  A    between atoms: N_18  and  C_19
REMARK                            x       y       z     vdW  Elec       q    Type
REMARK                         _______ _______ _______ _____ _____    ______ ____
ROOT
ATOM      1  C   UNL     1      -2.999   3.564 -22.980  0.00  0.00    +0.162 A 
ATOM      2  C   UNL     1      -2.769   4.088 -24.165  0.00  0.00    +0.050 A 
ATOM      3  C   UNL     1      -1.575   3.950 -24.761  0.00  0.00    +0.008 A 
ATOM      4  C   UNL     1      -0.499   3.216 -24.111  0.00  0.00    -0.034 A 
ATOM      5  C   UNL     1      -0.786   2.780 -23.057  0.00  0.00    +0.012 A 
ATOM      6  C   UNL     1      -0.143   2.199 -22.392  0.00  0.00    +0.034 C 
ATOM      7  C   UNL     1      -1.398   2.771 -22.596  0.00  0.00    +0.043 C 
ATOM      8  C   UNL     1      -1.705   3.502 -23.796  0.00  0.00    -0.026 C 
ATOM      9  C   UNL     1      -0.779   3.688 -24.826  0.00  0.00    -0.004 C 
ATOM     10  C   UNL     1       0.146   3.275 -24.691  0.00  0.00    +0.005 C 
ATOM     11  C   UNL     1       0.502   1.523 -21.546  0.00  0.00    +0.067 C 
ATOM     12  C   UNL     1       1.758   1.243 -21.909  0.00  0.00    +0.133 C 
ATOM     13  N   UNL     1       2.165   1.715 -23.120  0.00  0.00    +0.239 N 
ATOM     14  H   UNL     1       2.683   1.957 -23.964  0.00  0.00    +0.204 HD
ATOM     15  C   UNL     1       3.347   1.469 -23.497  0.00  0.00    +0.191 C 
ATOM     16  C   UNL     1       1.274   2.391 -23.790  0.00  0.00    +0.096 C 
ATOM     17  C   UNL     1       0.484   2.466 -23.364  0.00  0.00    -0.011 C 
ATOM     18  C   UNL     1       0.952   2.889 -24.526  0.00  0.00    +0.094 C 
ATOM     19  C   UNL     1      -2.090   2.927 -22.400  0.00  0.00    +0.163 A 
ENDROOT
BRANCH   1  21
ATOM     20  C   UNL     1      -5.402   3.302 -22.176  0.00  0.00    +0.277 C 
ATOM     21  O   UNL     1      -4.136   3.513 -22.060  0.00  0.00    -0.491 OA
ENDBRANCH   1  21
BRANCH  19  22
ATOM     22  O   UNL     1      -3.017   2.743 -21.372  0.00  0.00    -0.503 OA
ATOM     23  H   UNL     1      -3.932   2.707 -21.568  0.00  0.00    +0.292 HD
ENDBRANCH  19  22
TORSDOF 2
ENDMDL
MODEL 7
REMARK VINA RESULT:    -9.203      1.900      2.813
REMARK INTER + INTRA:         -10.396
REMARK INTER:                 -10.281
REMARK INTRA:                  -0.115
REMARK UNBOUND:                -0.116
REMARK  Name = COc1ccc2c(c1O)[C@@]13CC=CC=C1[C@H](C2)N(C)CC3                        ZINC000100393386
REMARK  4 active torsions:
REMARK  status: ('A' for Active; 'I' for Inactive)
REMARK    1  A    between atoms: C_1  and  O_2
REMARK    2  A    between atoms: O_2  and  C_3
REMARK    3  A    between atoms: C_8  and  O_9
REMARK    4  A    between atoms: N_18  and  C_19
REMARK                            x       y       z     vdW  Elec       q    Type
REMARK                         _______ _______ _______ _____ _____    ______ ____
ROOT
ATOM      1  C   UNL     1       3.164   2.912 -22.895  0.00  0.00    +0.162 A 
ATOM      2  C   UNL     1       3.080   1.807 -22.186  0.00  0.00    +0.050 A 
ATOM      3  C   UNL     1       1.890   1.330 -21.790  0.00  0.00    +0.008 A 
ATOM      4  C   UNL     1       0.657   2.023 -22.135  0.00  0.00    -0.034 A 
ATOM      5  C   UNL     1       0.819   3.000 -22.769  0.00  0.00    +0.012 A 
ATOM      6  C   UNL     1       0.045   3.676 -23.139  0.00  0.00    +0.034 C 
ATOM      7  C   UNL     1       1.408   3.392 -23.064  0.00  0.00    +0.043 C 
ATOM      8  C   UNL     1       1.897   2.234 -22.366  0.00  0.00    -0.026 C 
ATOM      9  C   UNL     1       1.052   1.326 -21.723  0.00  0.00    -0.004 C 
ATOM     10  C   UNL     1       0.050   1.520 -21.768  0.00  0.00    +0.005 C 
ATOM     11  C   UNL     1      -0.756   4.525 -23.616  0.00  0.00    +0.067 C 
ATOM     12  C   UNL     1      -2.043   4.272 -23.355  0.00  0.00    +0.133 C 
ATOM     13  N   UNL     1      -2.311   3.154 -22.624  0.00  0.00    +0.239 N 
ATOM     14  H   UNL     1      -2.748   2.392 -22.106  0.00  0.00    +0.204 HD
ATOM     15  C   UNL     1      -3.517   2.883 -22.358  0.00  0.00    +0.191 C 
ATOM     16  C   UNL     1      -1.273   2.455 -22.260  0.00  0.00    +0.096 C 
ATOM     17  C   UNL     1      -0.490   2.802 -22.541  0.00  0.00    -0.011 C 
ATOM     18  C   UNL     1      -0.831   1.735 -21.836  0.00  0.00    +0.094 C 
ATOM     19  C   UNL     1       2.117   3.528 -23.205  0.00  0.00    +0.163 A 
ENDROOT
BRANCH   1  21
ATOM     20  C   UNL     1       5.064   4.601 -23.050  0.00  0.00    +0.277 C 
ATOM     21  O   UNL     1       4.248   3.701 -23.481  0.00  0.00    -0.491 OA
ENDBRANCH   1  21
BRANCH  19  22
ATOM     22  O   UNL     1       2.965   4.434 -23.847  0.00  0.00    -0.503 OA
ATOM     23  H   UNL     1       2.681   5.314 -23.998  0.00  0.00    +0.292 HD
ENDBRANCH  19  22
TORSDOF 2
ENDMDL
MODEL 8
REMARK VINA RESULT:    -8.157      3.379      5.926
REMARK INTER + INTRA:          -9.227
REMARK INTER:                  -9.128
REMARK INTRA:                  -0.099
REMARK UNBOUND:                -0.116
REMARK  Name = COc1ccc2c(c1O)[C@@]13CC=CC=C1[C@H](C2)N(C)CC3                        ZINC000100393386
REMARK  4 active torsions:
REMARK  status: ('A' for Active; 'I' for Inactive)
REMARK    1  A    between atoms: C_1  and  O_2
REMARK    2  A    between atoms: O_2  and  C_3
REMARK    3  A    between atoms: C_8  and  O_9
REMARK    4  A    between atoms: N_18  and  C_19
REMARK                            x       y       z     vdW  Elec       q    Type
REMARK                         _______ _______ _______ _____ _____    ______ ____
ROOT
ATOM      1  C   UNL     1      -0.100   2.713 -22.877  0.00  0.00    +0.162 A 
ATOM      2  C   UNL     1       0.058   1.587 -22.214  0.00  0.00    +0.050 A 
ATOM      3  C   UNL     1       1.265   1.213 -21.765  0.00  0.00    +0.008 A 
ATOM      4  C   UNL     1       2.437   2.045 -21.998  0.00  0.00    -0.034 A 
ATOM      5  C   UNL     1       2.211   3.032 -22.596  0.00  0.00    +0.012 A 
ATOM      6  C   UNL     1       2.931   3.802 -22.884  0.00  0.00    +0.034 C 
ATOM      7  C   UNL     1       1.603   3.377 -22.910  0.00  0.00    +0.043 C 
ATOM      8  C   UNL     1       1.197   2.141 -22.298  0.00  0.00    -0.026 C 
ATOM      9  C   UNL     1       2.093   1.291 -21.644  0.00  0.00    -0.004 C 
ATOM     10  C   UNL     1       3.071   1.588 -21.616  0.00  0.00    +0.005 C 
ATOM     11  C   UNL     1       3.665   4.751 -23.270  0.00  0.00    +0.067 C 
ATOM     12  C   UNL     1       4.954   4.618 -22.938  0.00  0.00    +0.133 C 
ATOM     13  N   UNL     1       5.294   3.496 -22.243  0.00  0.00    +0.239 N 
ATOM     14  H   UNL     1       5.776   2.757 -21.733  0.00  0.00    +0.204 HD
ATOM     15  C   UNL     1       6.504   3.337 -21.912  0.00  0.00    +0.191 C 
ATOM     16  C   UNL     1       4.315   2.677 -21.979  0.00  0.00    +0.096 C 
ATOM     17  C   UNL     1       3.518   2.957 -22.294  0.00  0.00    -0.011 C 
ATOM     18  C   UNL     1       3.926   1.895 -21.618  0.00  0.00    +0.094 C 
ATOM     19  C   UNL     1       0.893   3.447 -23.091  0.00  0.00    +0.163 A 
ENDROOT
BRANCH   1  21
ATOM     20  C   UNL     1      -2.505   3.281 -23.490  0.00  0.00    +0.277 C 
ATOM     21  O   UNL     1      -1.224   3.417 -23.495  0.00  0.00    -0.491 OA
ENDBRANCH   1  21
BRANCH  19  22
ATOM     22  O   UNL     1      -0.005   4.294 -23.744  0.00  0.00    -0.503 OA
ATOM     23  H   UNL     1       0.312   4.943 -24.339  0.00  0.00    +0.292 HD
ENDBRANCH  19  22
TORSDOF 2
ENDMDL
MODEL 9
REMARK VINA RESULT:    -7.926      4.268      6.846
REMARK INTER + INTRA:          -8.969
REMARK INTER:                  -8.852
REMARK INTRA:                  -0.116
REMARK UNBOUND:                -0.116
REMARK  Name = COc1ccc2c(c1O)[C@@]13CC=CC=C1[C@H](C2)N(C)CC3                        ZINC000100393386
REMARK  4 active torsions:
REMARK  status: ('A' for Active; 'I' for Inactive)
REMARK    1  A    between atoms: C_1  and  O_2
REMARK    2  A    between atoms: O_2  and  C_3
REMARK    3  A    between atoms: C_8  and  O_9
REMARK    4  A    between atoms: N_18  and  C_19
REMARK                            x       y       z     vdW  Elec       q    Type
REMARK                         _______ _______ _______ _____ _____    ______ ____
ROOT
ATOM      1  C   UNL     1       1.512   3.034 -24.072  0.00  0.00    +0.162 A 
ATOM      2  C   UNL     1       2.415   2.104 -24.298  0.00  0.00    +0.050 A 
ATOM      3  C   UNL     1       3.712   2.323 -24.038  0.00  0.00    +0.008 A 
ATOM      4  C   UNL     1       4.158   3.599 -23.497  0.00  0.00    -0.034 A 
ATOM      5  C   UNL     1       3.291   4.374 -23.324  0.00  0.00    +0.012 A 
ATOM      6  C   UNL     1       3.389   5.388 -22.929  0.00  0.00    +0.034 C 
ATOM      7  C   UNL     1       2.531   4.403 -23.417  0.00  0.00    +0.043 C 
ATOM      8  C   UNL     1       3.022   3.118 -23.834  0.00  0.00    -0.026 C 
ATOM      9  C   UNL     1       4.375   2.771 -23.779  0.00  0.00    -0.004 C 
ATOM     10  C   UNL     1       5.017   3.482 -23.423  0.00  0.00    +0.005 C 
ATOM     11  C   UNL     1       3.377   6.568 -22.487  0.00  0.00    +0.067 C 
ATOM     12  C   UNL     1       4.581   7.038 -22.145  0.00  0.00    +0.133 C 
ATOM     13  N   UNL     1       5.638   6.196 -22.317  0.00  0.00    +0.239 N 
ATOM     14  H   UNL     1       6.558   5.759 -22.355  0.00  0.00    +0.204 HD
ATOM     15  C   UNL     1       6.792   6.607 -22.004  0.00  0.00    +0.191 C 
ATOM     16  C   UNL     1       5.350   5.020 -22.799  0.00  0.00    +0.096 C 
ATOM     17  C   UNL     1       4.471   4.904 -22.963  0.00  0.00    -0.011 C 
ATOM     18  C   UNL     1       5.547   4.146 -23.100  0.00  0.00    +0.094 C 
ATOM     19  C   UNL     1       1.870   4.141 -23.606  0.00  0.00    +0.163 A 
ENDROOT
BRANCH   1  21
ATOM     20  C   UNL     1      -0.731   3.592 -25.142  0.00  0.00    +0.277 C 
ATOM     21  O   UNL     1       0.061   3.147 -24.229  0.00  0.00    -0.491 OA
ENDBRANCH   1  21
BRANCH  19  22
ATOM     22  O   UNL     1       0.517   4.485 -23.663  0.00  0.00    -0.503 OA
ATOM     23  H   UNL     1       0.264   5.385 -23.709  0.00  0.00    +0.292 HD
ENDBRANCH  19  22
TORSDOF 2
ENDMDL
