MODEL 1
REMARK VINA RESULT:    -9.145      0.000      0.000
REMARK INTER + INTRA:         -12.412
REMARK INTER:                 -13.438
REMARK INTRA:                   1.026
REMARK UNBOUND:                 0.475
REMARK  Name = ZINC000004104917
REMARK  10 active torsions:
REMARK  status: ('A' for Active; 'I' for Inactive)
REMARK    1  A    between atoms: C_1  and  C_2
REMARK    2  A    between atoms: C_2  and  O_4
REMARK    3  A    between atoms: O_4  and  C_5
REMARK    4  A    between atoms: C_5  and  C_6
REMARK    5  A    between atoms: C_8  and  O_9
REMARK    6  A    between atoms: O_9  and  C_10
REMARK    7  A    between atoms: C_10  and  C_11
REMARK    8  A    between atoms: C_22  and  O_23
REMARK    9  A    between atoms: O_23  and  C_24
REMARK   10  A    between atoms: C_24  and  C_25
REMARK                            x       y       z     vdW  Elec       q    Type
REMARK                         _______ _______ _______ _____ _____    ______ ____
ROOT
ATOM      1  C   UNL     1       0.792   1.814 -21.444  0.00  0.00    -0.006 A 
ATOM      2  C   UNL     1       1.164   2.138 -22.647  0.00  0.00    +0.054 A 
ATOM      3  C   UNL     1       0.295   2.611 -23.490  0.00  0.00    +0.143 A 
ATOM      4  C   UNL     1      -0.945   2.758 -23.131  0.00  0.00    +0.076 A 
ATOM      5  C   UNL     1      -1.318   2.434 -21.929  0.00  0.00    +0.037 A 
ATOM      6  C   UNL     1      -2.558   2.582 -21.570  0.00  0.00    +0.195 C 
ATOM      7  C   UNL     1      -3.427   3.054 -22.413  0.00  0.00    +0.037 A 
ATOM      8  C   UNL     1      -4.667   3.202 -22.054  0.00  0.00    +0.012 A 
ATOM      9  C   UNL     1      -5.537   3.674 -22.898  0.00  0.00    +0.004 A 
ATOM     10  C   UNL     1      -5.165   3.999 -24.101  0.00  0.00    +0.047 A 
ATOM     11  C   UNL     1      -3.924   3.851 -24.460  0.00  0.00    +0.143 A 
ATOM     12  C   UNL     1      -3.055   3.379 -23.616  0.00  0.00    +0.075 A 
ATOM     13  O   UNL     1      -2.930   2.257 -20.367  0.00  0.00    -0.287 OA
ATOM     14  C   UNL     1      -1.815   3.231 -23.975  0.00  0.00    +0.202 C 
ATOM     15  O   UNL     1      -1.443   3.556 -25.178  0.00  0.00    -0.286 OA
ATOM     16  C   UNL     1      -0.448   1.961 -21.085  0.00  0.00    +0.019 A 
ENDROOT
BRANCH   1  17
ATOM     17  C   UNL     1       1.661   1.341 -20.600  0.00  0.00    +0.267 C 
BRANCH  17  18
ATOM     18  O   UNL     1       2.666   0.636 -21.028  0.00  0.00    -0.460 OA
BRANCH  18  20
ATOM     19  C   UNL     1       4.869   0.246 -20.776  0.00  0.00    +0.136 C 
ATOM     20  C   UNL     1       3.879   1.081 -20.887  0.00  0.00    +0.304 C 
ATOM     21  O   UNL     1       4.102   2.362 -20.858  0.00  0.00    -0.251 OA
ENDBRANCH  18  20
ENDBRANCH  17  18
ENDBRANCH   1  17
BRANCH   3  22
ATOM     22  O   UNL     1       0.667   2.935 -24.693  0.00  0.00    -0.425 OA
BRANCH  22  23
ATOM     23  C   UNL     1       1.847   2.599 -25.122  0.00  0.00    +0.309 C 
ATOM     24  O   UNL     1       1.967   1.894 -26.208  0.00  0.00    -0.251 OA
ATOM     25  C   UNL     1       2.907   2.966 -24.464  0.00  0.00    +0.136 C 
ENDBRANCH  22  23
ENDBRANCH   3  22
BRANCH  11  26
ATOM     26  O   UNL     1      -3.552   4.176 -25.662  0.00  0.00    -0.425 OA
BRANCH  26  27
ATOM     27  C   UNL     1      -3.887   3.426 -26.671  0.00  0.00    +0.309 C 
ATOM     28  O   UNL     1      -4.806   2.518 -26.528  0.00  0.00    -0.251 OA
ATOM     29  C   UNL     1      -3.302   3.584 -27.821  0.00  0.00    +0.136 C 
ENDBRANCH  26  27
ENDBRANCH  11  26
TORSDOF 7
ENDMDL
MODEL 2
REMARK VINA RESULT:    -8.692      2.008      4.468
REMARK INTER + INTRA:         -11.774
REMARK INTER:                 -12.077
REMARK INTRA:                   0.303
REMARK UNBOUND:                 0.475
REMARK  Name = ZINC000004104917
REMARK  10 active torsions:
REMARK  status: ('A' for Active; 'I' for Inactive)
REMARK    1  A    between atoms: C_1  and  C_2
REMARK    2  A    between atoms: C_2  and  O_4
REMARK    3  A    between atoms: O_4  and  C_5
REMARK    4  A    between atoms: C_5  and  C_6
REMARK    5  A    between atoms: C_8  and  O_9
REMARK    6  A    between atoms: O_9  and  C_10
REMARK    7  A    between atoms: C_10  and  C_11
REMARK    8  A    between atoms: C_22  and  O_23
REMARK    9  A    between atoms: O_23  and  C_24
REMARK   10  A    between atoms: C_24  and  C_25
REMARK                            x       y       z     vdW  Elec       q    Type
REMARK                         _______ _______ _______ _____ _____    ______ ____
ROOT
ATOM      1  C   UNL     1       3.626   3.012 -23.572  0.00  0.00    -0.006 A 
ATOM      2  C   UNL     1       3.302   2.494 -22.424  0.00  0.00    +0.054 A 
ATOM      3  C   UNL     1       2.050   2.334 -22.113  0.00  0.00    +0.143 A 
ATOM      4  C   UNL     1       1.122   2.691 -22.950  0.00  0.00    +0.076 A 
ATOM      5  C   UNL     1       1.445   3.209 -24.098  0.00  0.00    +0.037 A 
ATOM      6  C   UNL     1       0.517   3.566 -24.935  0.00  0.00    +0.195 C 
ATOM      7  C   UNL     1      -0.735   3.406 -24.624  0.00  0.00    +0.037 A 
ATOM      8  C   UNL     1      -1.663   3.763 -25.461  0.00  0.00    +0.012 A 
ATOM      9  C   UNL     1      -2.916   3.603 -25.151  0.00  0.00    +0.004 A 
ATOM     10  C   UNL     1      -3.240   3.085 -24.003  0.00  0.00    +0.047 A 
ATOM     11  C   UNL     1      -2.311   2.728 -23.166  0.00  0.00    +0.143 A 
ATOM     12  C   UNL     1      -1.059   2.888 -23.477  0.00  0.00    +0.075 A 
ATOM     13  O   UNL     1       0.841   4.084 -26.083  0.00  0.00    -0.287 OA
ATOM     14  C   UNL     1      -0.131   2.531 -22.640  0.00  0.00    +0.202 C 
ATOM     15  O   UNL     1      -0.455   2.013 -21.492  0.00  0.00    -0.286 OA
ATOM     16  C   UNL     1       2.698   3.369 -24.409  0.00  0.00    +0.019 A 
ENDROOT
BRANCH   1  17
ATOM     17  C   UNL     1       4.877   3.172 -23.883  0.00  0.00    +0.267 C 
BRANCH  17  18
ATOM     18  O   UNL     1       5.732   3.537 -22.973  0.00  0.00    -0.460 OA
BRANCH  18  20
ATOM     19  C   UNL     1       7.210   5.156 -23.491  0.00  0.00    +0.136 C 
ATOM     20  C   UNL     1       6.114   4.778 -22.901  0.00  0.00    +0.304 C 
ATOM     21  O   UNL     1       5.401   5.641 -22.240  0.00  0.00    -0.251 OA
ENDBRANCH  18  20
ENDBRANCH  17  18
ENDBRANCH   1  17
BRANCH   3  22
ATOM     22  O   UNL     1       1.726   1.816 -20.966  0.00  0.00    -0.425 OA
BRANCH  22  23
ATOM     23  C   UNL     1       2.547   1.011 -20.361  0.00  0.00    +0.309 C 
ATOM     24  O   UNL     1       2.444   0.819 -19.079  0.00  0.00    -0.251 OA
ATOM     25  C   UNL     1       3.473   0.397 -21.038  0.00  0.00    +0.136 C 
ENDBRANCH  22  23
ENDBRANCH   3  22
BRANCH  11  26
ATOM     26  O   UNL     1      -2.635   2.210 -22.018  0.00  0.00    -0.425 OA
BRANCH  26  27
ATOM     27  C   UNL     1      -3.532   2.788 -21.274  0.00  0.00    +0.309 C 
ATOM     28  O   UNL     1      -4.753   2.342 -21.266  0.00  0.00    -0.251 OA
ATOM     29  C   UNL     1      -3.206   3.810 -20.540  0.00  0.00    +0.136 C 
ENDBRANCH  26  27
ENDBRANCH  11  26
TORSDOF 7
ENDMDL
MODEL 3
REMARK VINA RESULT:    -8.353      1.963      6.931
REMARK INTER + INTRA:         -11.297
REMARK INTER:                 -11.597
REMARK INTRA:                   0.301
REMARK UNBOUND:                 0.475
REMARK  Name = ZINC000004104917
REMARK  10 active torsions:
REMARK  status: ('A' for Active; 'I' for Inactive)
REMARK    1  A    between atoms: C_1  and  C_2
REMARK    2  A    between atoms: C_2  and  O_4
REMARK    3  A    between atoms: O_4  and  C_5
REMARK    4  A    between atoms: C_5  and  C_6
REMARK    5  A    between atoms: C_8  and  O_9
REMARK    6  A    between atoms: O_9  and  C_10
REMARK    7  A    between atoms: C_10  and  C_11
REMARK    8  A    between atoms: C_22  and  O_23
REMARK    9  A    between atoms: O_23  and  C_24
REMARK   10  A    between atoms: C_24  and  C_25
REMARK                            x       y       z     vdW  Elec       q    Type
REMARK                         _______ _______ _______ _____ _____    ______ ____
ROOT
ATOM      1  C   UNL     1      -1.506   2.802 -21.766  0.00  0.00    -0.006 A 
ATOM      2  C   UNL     1      -1.172   3.529 -22.790  0.00  0.00    +0.054 A 
ATOM      3  C   UNL     1       0.069   3.583 -23.172  0.00  0.00    +0.143 A 
ATOM      4  C   UNL     1       0.977   2.910 -22.530  0.00  0.00    +0.076 A 
ATOM      5  C   UNL     1       0.644   2.183 -21.505  0.00  0.00    +0.037 A 
ATOM      6  C   UNL     1       1.551   1.510 -20.863  0.00  0.00    +0.195 C 
ATOM      7  C   UNL     1       2.792   1.564 -21.245  0.00  0.00    +0.037 A 
ATOM      8  C   UNL     1       3.700   0.891 -20.602  0.00  0.00    +0.012 A 
ATOM      9  C   UNL     1       4.942   0.944 -20.984  0.00  0.00    +0.004 A 
ATOM     10  C   UNL     1       5.276   1.671 -22.009  0.00  0.00    +0.047 A 
ATOM     11  C   UNL     1       4.367   2.345 -22.652  0.00  0.00    +0.143 A 
ATOM     12  C   UNL     1       3.126   2.291 -22.269  0.00  0.00    +0.075 A 
ATOM     13  O   UNL     1       1.217   0.782 -19.838  0.00  0.00    -0.287 OA
ATOM     14  C   UNL     1       2.219   2.964 -22.912  0.00  0.00    +0.202 C 
ATOM     15  O   UNL     1       2.553   3.691 -23.937  0.00  0.00    -0.286 OA
ATOM     16  C   UNL     1      -0.598   2.129 -21.123  0.00  0.00    +0.019 A 
ENDROOT
BRANCH   1  17
ATOM     17  C   UNL     1      -2.747   2.748 -21.383  0.00  0.00    +0.267 C 
BRANCH  17  18
ATOM     18  O   UNL     1      -3.586   3.663 -21.769  0.00  0.00    -0.460 OA
BRANCH  18  20
ATOM     19  C   UNL     1      -5.161   3.752 -23.377  0.00  0.00    +0.136 C 
ATOM     20  C   UNL     1      -4.758   3.321 -22.218  0.00  0.00    +0.304 C 
ATOM     21  O   UNL     1      -5.527   2.550 -21.507  0.00  0.00    -0.251 OA
ENDBRANCH  18  20
ENDBRANCH  17  18
ENDBRANCH   1  17
BRANCH   3  22
ATOM     22  O   UNL     1       0.403   4.310 -24.197  0.00  0.00    -0.425 OA
BRANCH  22  23
ATOM     23  C   UNL     1       0.027   3.962 -25.391  0.00  0.00    +0.309 C 
ATOM     24  O   UNL     1       0.864   4.034 -26.383  0.00  0.00    -0.251 OA
ATOM     25  C   UNL     1      -1.188   3.543 -25.594  0.00  0.00    +0.136 C 
ENDBRANCH  22  23
ENDBRANCH   3  22
BRANCH  11  26
ATOM     26  O   UNL     1       4.701   3.072 -23.676  0.00  0.00    -0.425 OA
BRANCH  26  27
ATOM     27  C   UNL     1       5.766   3.817 -23.626  0.00  0.00    +0.309 C 
ATOM     28  O   UNL     1       6.823   3.486 -24.308  0.00  0.00    -0.251 OA
ATOM     29  C   UNL     1       5.774   4.891 -22.893  0.00  0.00    +0.136 C 
ENDBRANCH  26  27
ENDBRANCH  11  26
TORSDOF 7
ENDMDL
MODEL 4
REMARK VINA RESULT:    -7.582      2.892      5.423
REMARK INTER + INTRA:         -10.210
REMARK INTER:                 -11.061
REMARK INTRA:                   0.851
REMARK UNBOUND:                 0.475
REMARK  Name = ZINC000004104917
REMARK  10 active torsions:
REMARK  status: ('A' for Active; 'I' for Inactive)
REMARK    1  A    between atoms: C_1  and  C_2
REMARK    2  A    between atoms: C_2  and  O_4
REMARK    3  A    between atoms: O_4  and  C_5
REMARK    4  A    between atoms: C_5  and  C_6
REMARK    5  A    between atoms: C_8  and  O_9
REMARK    6  A    between atoms: O_9  and  C_10
REMARK    7  A    between atoms: C_10  and  C_11
REMARK    8  A    between atoms: C_22  and  O_23
REMARK    9  A    between atoms: O_23  and  C_24
REMARK   10  A    between atoms: C_24  and  C_25
REMARK                            x       y       z     vdW  Elec       q    Type
REMARK                         _______ _______ _______ _____ _____    ______ ____
ROOT
ATOM      1  C   UNL     1       5.617   3.861 -22.914  0.00  0.00    -0.006 A 
ATOM      2  C   UNL     1       5.362   2.608 -22.680  0.00  0.00    +0.054 A 
ATOM      3  C   UNL     1       4.132   2.190 -22.648  0.00  0.00    +0.143 A 
ATOM      4  C   UNL     1       3.157   3.025 -22.849  0.00  0.00    +0.076 A 
ATOM      5  C   UNL     1       3.410   4.278 -23.082  0.00  0.00    +0.037 A 
ATOM      6  C   UNL     1       2.435   5.113 -23.283  0.00  0.00    +0.195 C 
ATOM      7  C   UNL     1       1.205   4.695 -23.250  0.00  0.00    +0.037 A 
ATOM      8  C   UNL     1       0.229   5.530 -23.451  0.00  0.00    +0.012 A 
ATOM      9  C   UNL     1      -1.002   5.112 -23.418  0.00  0.00    +0.004 A 
ATOM     10  C   UNL     1      -1.257   3.859 -23.185  0.00  0.00    +0.047 A 
ATOM     11  C   UNL     1      -0.280   3.024 -22.985  0.00  0.00    +0.143 A 
ATOM     12  C   UNL     1       0.950   3.442 -23.017  0.00  0.00    +0.075 A 
ATOM     13  O   UNL     1       2.690   6.367 -23.516  0.00  0.00    -0.287 OA
ATOM     14  C   UNL     1       1.925   2.607 -22.816  0.00  0.00    +0.202 C 
ATOM     15  O   UNL     1       1.671   1.353 -22.583  0.00  0.00    -0.286 OA
ATOM     16  C   UNL     1       4.642   4.696 -23.114  0.00  0.00    +0.019 A 
ENDROOT
BRANCH   1  17
ATOM     17  C   UNL     1       6.847   4.279 -22.946  0.00  0.00    +0.267 C 
BRANCH  17  18
ATOM     18  O   UNL     1       7.626   4.088 -21.923  0.00  0.00    -0.460 OA
BRANCH  18  20
ATOM     19  C   UNL     1       8.229   6.216 -21.499  0.00  0.00    +0.136 C 
ATOM     20  C   UNL     1       7.834   5.052 -21.075  0.00  0.00    +0.304 C 
ATOM     21  O   UNL     1       7.647   4.851 -19.804  0.00  0.00    -0.251 OA
ENDBRANCH  18  20
ENDBRANCH  17  18
ENDBRANCH   1  17
BRANCH   3  22
ATOM     22  O   UNL     1       3.877   0.936 -22.415  0.00  0.00    -0.425 OA
BRANCH  22  23
ATOM     23  C   UNL     1       4.126   0.429 -21.244  0.00  0.00    +0.309 C 
ATOM     24  O   UNL     1       3.175   0.329 -20.364  0.00  0.00    -0.251 OA
ATOM     25  C   UNL     1       5.327   0.022 -20.954  0.00  0.00    +0.136 C 
ENDBRANCH  22  23
ENDBRANCH   3  22
BRANCH  11  26
ATOM     26  O   UNL     1      -0.535   1.770 -22.751  0.00  0.00    -0.425 OA
BRANCH  26  27
ATOM     27  C   UNL     1      -1.052   1.413 -21.613  0.00  0.00    +0.309 C 
ATOM     28  O   UNL     1      -0.288   0.950 -20.669  0.00  0.00    -0.251 OA
ATOM     29  C   UNL     1      -2.334   1.519 -21.419  0.00  0.00    +0.136 C 
ENDBRANCH  26  27
ENDBRANCH  11  26
TORSDOF 7
ENDMDL
MODEL 5
REMARK VINA RESULT:    -7.513      4.631      7.190
REMARK INTER + INTRA:         -10.113
REMARK INTER:                  -9.729
REMARK INTRA:                  -0.384
REMARK UNBOUND:                 0.475
REMARK  Name = ZINC000004104917
REMARK  10 active torsions:
REMARK  status: ('A' for Active; 'I' for Inactive)
REMARK    1  A    between atoms: C_1  and  C_2
REMARK    2  A    between atoms: C_2  and  O_4
REMARK    3  A    between atoms: O_4  and  C_5
REMARK    4  A    between atoms: C_5  and  C_6
REMARK    5  A    between atoms: C_8  and  O_9
REMARK    6  A    between atoms: O_9  and  C_10
REMARK    7  A    between atoms: C_10  and  C_11
REMARK    8  A    between atoms: C_22  and  O_23
REMARK    9  A    between atoms: O_23  and  C_24
REMARK   10  A    between atoms: C_24  and  C_25
REMARK                            x       y       z     vdW  Elec       q    Type
REMARK                         _______ _______ _______ _____ _____    ______ ____
ROOT
ATOM      1  C   UNL     1       7.036   5.597 -21.489  0.00  0.00    -0.006 A 
ATOM      2  C   UNL     1       6.170   6.564 -21.568  0.00  0.00    +0.054 A 
ATOM      3  C   UNL     1       5.012   6.356 -22.119  0.00  0.00    +0.143 A 
ATOM      4  C   UNL     1       4.718   5.181 -22.592  0.00  0.00    +0.076 A 
ATOM      5  C   UNL     1       5.583   4.214 -22.513  0.00  0.00    +0.037 A 
ATOM      6  C   UNL     1       5.290   3.039 -22.985  0.00  0.00    +0.195 C 
ATOM      7  C   UNL     1       4.131   2.832 -23.537  0.00  0.00    +0.037 A 
ATOM      8  C   UNL     1       3.837   1.657 -24.009  0.00  0.00    +0.012 A 
ATOM      9  C   UNL     1       2.678   1.449 -24.561  0.00  0.00    +0.004 A 
ATOM     10  C   UNL     1       1.813   2.416 -24.640  0.00  0.00    +0.047 A 
ATOM     11  C   UNL     1       2.107   3.591 -24.167  0.00  0.00    +0.143 A 
ATOM     12  C   UNL     1       3.266   3.799 -23.616  0.00  0.00    +0.075 A 
ATOM     13  O   UNL     1       6.155   2.072 -22.907  0.00  0.00    -0.287 OA
ATOM     14  C   UNL     1       3.559   4.973 -23.143  0.00  0.00    +0.202 C 
ATOM     15  O   UNL     1       2.694   5.940 -23.222  0.00  0.00    -0.286 OA
ATOM     16  C   UNL     1       6.742   4.422 -21.961  0.00  0.00    +0.019 A 
ENDROOT
BRANCH   1  17
ATOM     17  C   UNL     1       8.194   5.804 -20.938  0.00  0.00    +0.267 C 
BRANCH  17  18
ATOM     18  O   UNL     1       8.616   7.019 -20.747  0.00  0.00    -0.460 OA
BRANCH  18  20
ATOM     19  C   UNL     1       9.062   6.559 -18.589  0.00  0.00    +0.136 C 
ATOM     20  C   UNL     1       8.913   7.424 -19.548  0.00  0.00    +0.304 C 
ATOM     21  O   UNL     1       9.060   8.693 -19.308  0.00  0.00    -0.251 OA
ENDBRANCH  18  20
ENDBRANCH  17  18
ENDBRANCH   1  17
BRANCH   3  22
ATOM     22  O   UNL     1       4.147   7.323 -22.198  0.00  0.00    -0.425 OA
BRANCH  22  23
ATOM     23  C   UNL     1       4.319   8.408 -21.503  0.00  0.00    +0.309 C 
ATOM     24  O   UNL     1       4.193   8.377 -20.209  0.00  0.00    -0.251 OA
ATOM     25  C   UNL     1       4.617   9.523 -22.101  0.00  0.00    +0.136 C 
ENDBRANCH  22  23
ENDBRANCH   3  22
BRANCH  11  26
ATOM     26  O   UNL     1       1.242   4.558 -24.246  0.00  0.00    -0.425 OA
BRANCH  26  27
ATOM     27  C   UNL     1      -0.022   4.317 -24.054  0.00  0.00    +0.309 C 
ATOM     28  O   UNL     1      -0.770   3.944 -25.049  0.00  0.00    -0.251 OA
ATOM     29  C   UNL     1      -0.536   4.450 -22.867  0.00  0.00    +0.136 C 
ENDBRANCH  26  27
ENDBRANCH  11  26
TORSDOF 7
ENDMDL
MODEL 6
REMARK VINA RESULT:    -6.627      5.155      7.881
REMARK INTER + INTRA:          -8.865
REMARK INTER:                  -8.678
REMARK INTRA:                  -0.187
REMARK UNBOUND:                 0.475
REMARK  Name = ZINC000004104917
REMARK  10 active torsions:
REMARK  status: ('A' for Active; 'I' for Inactive)
REMARK    1  A    between atoms: C_1  and  C_2
REMARK    2  A    between atoms: C_2  and  O_4
REMARK    3  A    between atoms: O_4  and  C_5
REMARK    4  A    between atoms: C_5  and  C_6
REMARK    5  A    between atoms: C_8  and  O_9
REMARK    6  A    between atoms: O_9  and  C_10
REMARK    7  A    between atoms: C_10  and  C_11
REMARK    8  A    between atoms: C_22  and  O_23
REMARK    9  A    between atoms: O_23  and  C_24
REMARK   10  A    between atoms: C_24  and  C_25
REMARK                            x       y       z     vdW  Elec       q    Type
REMARK                         _______ _______ _______ _____ _____    ______ ____
ROOT
ATOM      1  C   UNL     1       7.292   6.840 -21.599  0.00  0.00    -0.006 A 
ATOM      2  C   UNL     1       7.856   5.745 -22.017  0.00  0.00    +0.054 A 
ATOM      3  C   UNL     1       7.139   4.817 -22.578  0.00  0.00    +0.143 A 
ATOM      4  C   UNL     1       5.858   4.984 -22.721  0.00  0.00    +0.076 A 
ATOM      5  C   UNL     1       5.293   6.078 -22.304  0.00  0.00    +0.037 A 
ATOM      6  C   UNL     1       4.012   6.244 -22.447  0.00  0.00    +0.195 C 
ATOM      7  C   UNL     1       3.296   5.316 -23.008  0.00  0.00    +0.037 A 
ATOM      8  C   UNL     1       2.015   5.482 -23.152  0.00  0.00    +0.012 A 
ATOM      9  C   UNL     1       1.297   4.554 -23.713  0.00  0.00    +0.004 A 
ATOM     10  C   UNL     1       1.861   3.459 -24.130  0.00  0.00    +0.047 A 
ATOM     11  C   UNL     1       3.143   3.293 -23.986  0.00  0.00    +0.143 A 
ATOM     12  C   UNL     1       3.860   4.222 -23.426  0.00  0.00    +0.075 A 
ATOM     13  O   UNL     1       3.448   7.338 -22.030  0.00  0.00    -0.287 OA
ATOM     14  C   UNL     1       5.141   4.055 -23.282  0.00  0.00    +0.202 C 
ATOM     15  O   UNL     1       5.705   2.961 -23.700  0.00  0.00    -0.286 OA
ATOM     16  C   UNL     1       6.011   7.006 -21.743  0.00  0.00    +0.019 A 
ENDROOT
BRANCH   1  17
ATOM     17  C   UNL     1       8.008   7.768 -21.038  0.00  0.00    +0.267 C 
BRANCH  17  18
ATOM     18  O   UNL     1       8.750   8.547 -21.768  0.00  0.00    -0.460 OA
BRANCH  18  20
ATOM     19  C   UNL     1       8.167   9.872 -23.494  0.00  0.00    +0.136 C 
ATOM     20  C   UNL     1       8.269   9.671 -22.214  0.00  0.00    +0.304 C 
ATOM     21  O   UNL     1       7.892  10.593 -21.378  0.00  0.00    -0.251 OA
ENDBRANCH  18  20
ENDBRANCH  17  18
ENDBRANCH   1  17
BRANCH   3  22
ATOM     22  O   UNL     1       7.704   3.723 -22.995  0.00  0.00    -0.425 OA
BRANCH  22  23
ATOM     23  C   UNL     1       8.466   3.746 -24.047  0.00  0.00    +0.309 C 
ATOM     24  O   UNL     1       8.634   4.855 -24.705  0.00  0.00    -0.251 OA
ATOM     25  C   UNL     1       9.062   2.659 -24.442  0.00  0.00    +0.136 C 
ENDBRANCH  22  23
ENDBRANCH   3  22
BRANCH  11  26
ATOM     26  O   UNL     1       3.707   2.199 -24.404  0.00  0.00    -0.425 OA
BRANCH  26  27
ATOM     27  C   UNL     1       3.153   1.048 -24.160  0.00  0.00    +0.309 C 
ATOM     28  O   UNL     1       2.661   0.344 -25.136  0.00  0.00    -0.251 OA
ATOM     29  C   UNL     1       3.092   0.602 -22.940  0.00  0.00    +0.136 C 
ENDBRANCH  26  27
ENDBRANCH  11  26
TORSDOF 7
ENDMDL
MODEL 7
REMARK VINA RESULT:    -6.444      6.410      9.927
REMARK INTER + INTRA:          -8.607
REMARK INTER:                  -8.037
REMARK INTRA:                  -0.570
REMARK UNBOUND:                 0.475
REMARK  Name = ZINC000004104917
REMARK  10 active torsions:
REMARK  status: ('A' for Active; 'I' for Inactive)
REMARK    1  A    between atoms: C_1  and  C_2
REMARK    2  A    between atoms: C_2  and  O_4
REMARK    3  A    between atoms: O_4  and  C_5
REMARK    4  A    between atoms: C_5  and  C_6
REMARK    5  A    between atoms: C_8  and  O_9
REMARK    6  A    between atoms: O_9  and  C_10
REMARK    7  A    between atoms: C_10  and  C_11
REMARK    8  A    between atoms: C_22  and  O_23
REMARK    9  A    between atoms: O_23  and  C_24
REMARK   10  A    between atoms: C_24  and  C_25
REMARK                            x       y       z     vdW  Elec       q    Type
REMARK                         _______ _______ _______ _____ _____    ______ ____
ROOT
ATOM      1  C   UNL     1       4.909   9.099 -21.121  0.00  0.00    -0.006 A 
ATOM      2  C   UNL     1       6.194   8.938 -21.001  0.00  0.00    +0.054 A 
ATOM      3  C   UNL     1       6.749   7.829 -21.392  0.00  0.00    +0.143 A 
ATOM      4  C   UNL     1       6.021   6.882 -21.903  0.00  0.00    +0.076 A 
ATOM      5  C   UNL     1       4.736   7.043 -22.024  0.00  0.00    +0.037 A 
ATOM      6  C   UNL     1       4.008   6.096 -22.535  0.00  0.00    +0.195 C 
ATOM      7  C   UNL     1       4.563   4.988 -22.926  0.00  0.00    +0.037 A 
ATOM      8  C   UNL     1       3.835   4.041 -23.437  0.00  0.00    +0.012 A 
ATOM      9  C   UNL     1       4.390   2.932 -23.829  0.00  0.00    +0.004 A 
ATOM     10  C   UNL     1       5.675   2.771 -23.708  0.00  0.00    +0.047 A 
ATOM     11  C   UNL     1       6.403   3.718 -23.197  0.00  0.00    +0.143 A 
ATOM     12  C   UNL     1       5.848   4.826 -22.806  0.00  0.00    +0.075 A 
ATOM     13  O   UNL     1       2.723   6.257 -22.655  0.00  0.00    -0.287 OA
ATOM     14  C   UNL     1       6.576   5.773 -22.294  0.00  0.00    +0.202 C 
ATOM     15  O   UNL     1       7.861   5.612 -22.174  0.00  0.00    -0.286 OA
ATOM     16  C   UNL     1       4.181   8.152 -21.633  0.00  0.00    +0.019 A 
ENDROOT
BRANCH   1  17
ATOM     17  C   UNL     1       4.354  10.207 -20.730  0.00  0.00    +0.267 C 
BRANCH  17  18
ATOM     18  O   UNL     1       3.379  10.724 -21.419  0.00  0.00    -0.460 OA
BRANCH  18  20
ATOM     19  C   UNL     1       4.421  12.720 -21.466  0.00  0.00    +0.136 C 
ATOM     20  C   UNL     1       3.350  12.004 -21.644  0.00  0.00    +0.304 C 
ATOM     21  O   UNL     1       2.250  12.568 -22.047  0.00  0.00    -0.251 OA
ENDBRANCH  18  20
ENDBRANCH  17  18
ENDBRANCH   1  17
BRANCH   3  22
ATOM     22  O   UNL     1       8.034   7.668 -21.271  0.00  0.00    -0.425 OA
BRANCH  22  23
ATOM     23  C   UNL     1       8.611   7.882 -20.127  0.00  0.00    +0.309 C 
ATOM     24  O   UNL     1       9.062   9.066 -19.838  0.00  0.00    -0.251 OA
ATOM     25  C   UNL     1       8.737   6.911 -19.271  0.00  0.00    +0.136 C 
ENDBRANCH  22  23
ENDBRANCH   3  22
BRANCH  11  26
ATOM     26  O   UNL     1       7.688   3.557 -23.076  0.00  0.00    -0.425 OA
BRANCH  26  27
ATOM     27  C   UNL     1       8.399   3.211 -24.109  0.00  0.00    +0.309 C 
ATOM     28  O   UNL     1       8.929   2.026 -24.164  0.00  0.00    -0.251 OA
ATOM     29  C   UNL     1       8.580   4.051 -25.084  0.00  0.00    +0.136 C 
ENDBRANCH  26  27
ENDBRANCH  11  26
TORSDOF 7
ENDMDL
MODEL 8
REMARK VINA RESULT:    -6.243      3.833      6.013
REMARK INTER + INTRA:          -8.323
REMARK INTER:                  -8.317
REMARK INTRA:                  -0.006
REMARK UNBOUND:                 0.475
REMARK  Name = ZINC000004104917
REMARK  10 active torsions:
REMARK  status: ('A' for Active; 'I' for Inactive)
REMARK    1  A    between atoms: C_1  and  C_2
REMARK    2  A    between atoms: C_2  and  O_4
REMARK    3  A    between atoms: O_4  and  C_5
REMARK    4  A    between atoms: C_5  and  C_6
REMARK    5  A    between atoms: C_8  and  O_9
REMARK    6  A    between atoms: O_9  and  C_10
REMARK    7  A    between atoms: C_10  and  C_11
REMARK    8  A    between atoms: C_22  and  O_23
REMARK    9  A    between atoms: O_23  and  C_24
REMARK   10  A    between atoms: C_24  and  C_25
REMARK                            x       y       z     vdW  Elec       q    Type
REMARK                         _______ _______ _______ _____ _____    ______ ____
ROOT
ATOM      1  C   UNL     1       6.357   4.597 -22.870  0.00  0.00    -0.006 A 
ATOM      2  C   UNL     1       5.683   5.709 -22.836  0.00  0.00    +0.054 A 
ATOM      3  C   UNL     1       4.384   5.681 -22.814  0.00  0.00    +0.143 A 
ATOM      4  C   UNL     1       3.758   4.542 -22.827  0.00  0.00    +0.076 A 
ATOM      5  C   UNL     1       4.431   3.430 -22.861  0.00  0.00    +0.037 A 
ATOM      6  C   UNL     1       3.805   2.291 -22.873  0.00  0.00    +0.195 C 
ATOM      7  C   UNL     1       2.506   2.263 -22.851  0.00  0.00    +0.037 A 
ATOM      8  C   UNL     1       1.880   1.124 -22.863  0.00  0.00    +0.012 A 
ATOM      9  C   UNL     1       0.580   1.096 -22.842  0.00  0.00    +0.004 A 
ATOM     10  C   UNL     1      -0.093   2.208 -22.808  0.00  0.00    +0.047 A 
ATOM     11  C   UNL     1       0.533   3.347 -22.795  0.00  0.00    +0.143 A 
ATOM     12  C   UNL     1       1.833   3.375 -22.817  0.00  0.00    +0.075 A 
ATOM     13  O   UNL     1       4.479   1.180 -22.907  0.00  0.00    -0.287 OA
ATOM     14  C   UNL     1       2.458   4.514 -22.805  0.00  0.00    +0.202 C 
ATOM     15  O   UNL     1       1.785   5.625 -22.771  0.00  0.00    -0.286 OA
ATOM     16  C   UNL     1       5.731   3.458 -22.882  0.00  0.00    +0.019 A 
ENDROOT
BRANCH   1  17
ATOM     17  C   UNL     1       7.656   4.625 -22.892  0.00  0.00    +0.267 C 
BRANCH  17  18
ATOM     18  O   UNL     1       8.330   4.379 -21.808  0.00  0.00    -0.460 OA
BRANCH  18  20
ATOM     19  C   UNL     1       9.034   6.403 -21.116  0.00  0.00    +0.136 C 
ATOM     20  C   UNL     1       8.418   5.283 -20.877  0.00  0.00    +0.304 C 
ATOM     21  O   UNL     1       7.890   5.067 -19.709  0.00  0.00    -0.251 OA
ENDBRANCH  18  20
ENDBRANCH  17  18
ENDBRANCH   1  17
BRANCH   3  22
ATOM     22  O   UNL     1       3.711   6.792 -22.780  0.00  0.00    -0.425 OA
BRANCH  22  23
ATOM     23  C   UNL     1       4.174   7.814 -22.124  0.00  0.00    +0.309 C 
ATOM     24  O   UNL     1       4.023   9.015 -22.598  0.00  0.00    -0.251 OA
ATOM     25  C   UNL     1       4.791   7.634 -20.992  0.00  0.00    +0.136 C 
ENDBRANCH  22  23
ENDBRANCH   3  22
BRANCH  11  26
ATOM     26  O   UNL     1      -0.140   4.459 -22.761  0.00  0.00    -0.425 OA
BRANCH  26  27
ATOM     27  C   UNL     1      -1.441   4.431 -22.753  0.00  0.00    +0.309 C 
ATOM     28  O   UNL     1      -2.100   4.569 -23.865  0.00  0.00    -0.251 OA
ATOM     29  C   UNL     1      -2.080   4.264 -21.634  0.00  0.00    +0.136 C 
ENDBRANCH  26  27
ENDBRANCH  11  26
TORSDOF 7
ENDMDL
MODEL 9
REMARK VINA RESULT:    -6.202      4.812      8.237
REMARK INTER + INTRA:          -8.265
REMARK INTER:                  -8.740
REMARK INTRA:                   0.475
REMARK UNBOUND:                 0.475
REMARK  Name = ZINC000004104917
REMARK  10 active torsions:
REMARK  status: ('A' for Active; 'I' for Inactive)
REMARK    1  A    between atoms: C_1  and  C_2
REMARK    2  A    between atoms: C_2  and  O_4
REMARK    3  A    between atoms: O_4  and  C_5
REMARK    4  A    between atoms: C_5  and  C_6
REMARK    5  A    between atoms: C_8  and  O_9
REMARK    6  A    between atoms: O_9  and  C_10
REMARK    7  A    between atoms: C_10  and  C_11
REMARK    8  A    between atoms: C_22  and  O_23
REMARK    9  A    between atoms: O_23  and  C_24
REMARK   10  A    between atoms: C_24  and  C_25
REMARK                            x       y       z     vdW  Elec       q    Type
REMARK                         _______ _______ _______ _____ _____    ______ ____
ROOT
ATOM      1  C   UNL     1       4.444   7.950 -22.018  0.00  0.00    -0.006 A 
ATOM      2  C   UNL     1       5.555   7.336 -21.740  0.00  0.00    +0.054 A 
ATOM      3  C   UNL     1       5.667   6.061 -21.965  0.00  0.00    +0.143 A 
ATOM      4  C   UNL     1       4.667   5.400 -22.468  0.00  0.00    +0.076 A 
ATOM      5  C   UNL     1       3.556   6.014 -22.747  0.00  0.00    +0.037 A 
ATOM      6  C   UNL     1       2.556   5.353 -23.250  0.00  0.00    +0.195 C 
ATOM      7  C   UNL     1       2.668   4.078 -23.476  0.00  0.00    +0.037 A 
ATOM      8  C   UNL     1       1.668   3.417 -23.979  0.00  0.00    +0.012 A 
ATOM      9  C   UNL     1       1.779   2.141 -24.205  0.00  0.00    +0.004 A 
ATOM     10  C   UNL     1       2.891   1.527 -23.927  0.00  0.00    +0.047 A 
ATOM     11  C   UNL     1       3.891   2.188 -23.423  0.00  0.00    +0.143 A 
ATOM     12  C   UNL     1       3.779   3.463 -23.198  0.00  0.00    +0.075 A 
ATOM     13  O   UNL     1       1.445   5.968 -23.528  0.00  0.00    -0.287 OA
ATOM     14  C   UNL     1       4.779   4.124 -22.694  0.00  0.00    +0.202 C 
ATOM     15  O   UNL     1       5.890   3.509 -22.416  0.00  0.00    -0.286 OA
ATOM     16  C   UNL     1       3.444   7.290 -22.521  0.00  0.00    +0.019 A 
ENDROOT
BRANCH   1  17
ATOM     17  C   UNL     1       4.332   9.226 -21.792  0.00  0.00    +0.267 C 
BRANCH  17  18
ATOM     18  O   UNL     1       3.800  10.001 -22.690  0.00  0.00    -0.460 OA
BRANCH  18  20
ATOM     19  C   UNL     1       3.988  11.791 -21.337  0.00  0.00    +0.136 C 
ATOM     20  C   UNL     1       3.468  11.220 -22.382  0.00  0.00    +0.304 C 
ATOM     21  O   UNL     1       2.615  11.866 -23.121  0.00  0.00    -0.251 OA
ENDBRANCH  18  20
ENDBRANCH  17  18
ENDBRANCH   1  17
BRANCH   3  22
ATOM     22  O   UNL     1       6.778   5.446 -21.687  0.00  0.00    -0.425 OA
BRANCH  22  23
ATOM     23  C   UNL     1       7.297   5.546 -20.499  0.00  0.00    +0.309 C 
ATOM     24  O   UNL     1       6.560   5.928 -19.499  0.00  0.00    -0.251 OA
ATOM     25  C   UNL     1       8.552   5.264 -20.312  0.00  0.00    +0.136 C 
ENDBRANCH  22  23
ENDBRANCH   3  22
BRANCH  11  26
ATOM     26  O   UNL     1       5.002   1.574 -23.145  0.00  0.00    -0.425 OA
BRANCH  26  27
ATOM     27  C   UNL     1       5.051   0.737 -22.150  0.00  0.00    +0.309 C 
ATOM     28  O   UNL     1       6.110   0.004 -21.970  0.00  0.00    -0.251 OA
ATOM     29  C   UNL     1       4.042   0.635 -21.337  0.00  0.00    +0.136 C 
ENDBRANCH  26  27
ENDBRANCH  11  26
TORSDOF 7
ENDMDL
