MODEL 1
REMARK VINA RESULT:    -8.876      0.000      0.000
REMARK INTER + INTRA:         -12.957
REMARK INTER:                 -12.107
REMARK INTRA:                  -0.850
REMARK UNBOUND:                -0.968
REMARK  Name = ZINC000001658901
REMARK  9 active torsions:
REMARK  status: ('A' for Active; 'I' for Inactive)
REMARK    1  A    between atoms: C_1  and  C_2
REMARK    2  A    between atoms: C_2  and  C_3
REMARK    3  A    between atoms: C_4  and  C_5
REMARK    4  A    between atoms: C_5  and  C_6
REMARK    5  A    between atoms: C_6  and  C_7
REMARK    6  A    between atoms: C_7  and  C_8
REMARK    7  A    between atoms: C_9  and  C_10
REMARK    8  A    between atoms: C_10  and  O_11
REMARK    9  A    between atoms: O_11  and  C_12
REMARK                            x       y       z     vdW  Elec       q    Type
REMARK                         _______ _______ _______ _____ _____    ______ ____
ROOT
ATOM      1  O   UNL     1      -2.258   3.004 -20.757  0.00  0.00    -0.488 OA
ENDROOT
BRANCH   1   2
ATOM      2  C   UNL     1      -1.386   3.305 -21.672  0.00  0.00    +0.124 A 
ATOM      3  C   UNL     1      -1.255   4.537 -22.065  0.00  0.00    +0.046 A 
ATOM      4  C   UNL     1      -0.381   4.837 -22.981  0.00  0.00    +0.015 A 
ATOM      5  C   UNL     1       0.361   3.906 -23.502  0.00  0.00    +0.018 A 
ATOM      6  C   UNL     1       1.234   4.207 -24.416  0.00  0.00    +0.018 A 
ATOM      7  C   UNL     1       1.976   3.275 -24.937  0.00  0.00    +0.092 A 
ATOM      8  C   UNL     1       1.845   2.043 -24.544  0.00  0.00    +0.337 A 
ATOM      9  O   UNL     1       0.972   1.743 -23.629  0.00  0.00    -0.422 OA
ATOM     10  O   UNL     1       2.588   1.112 -25.065  0.00  0.00    -0.245 OA
ATOM     11  C   UNL     1       0.230   2.674 -23.108  0.00  0.00    +0.143 A 
ATOM     12  C   UNL     1      -0.643   2.373 -22.193  0.00  0.00    +0.092 A 
ENDBRANCH   1   2
BRANCH   1  13
ATOM     13  C   UNL     1      -3.507   3.325 -20.920  0.00  0.00    +0.256 C 
BRANCH  13  15
ATOM     14  C   UNL     1      -5.135   3.410 -22.474  0.00  0.00    -0.073 C 
ATOM     15  C   UNL     1      -3.932   3.713 -22.087  0.00  0.00    +0.012 C 
ATOM     16  C   UNL     1      -5.914   2.721 -21.695  0.00  0.00    +0.039 C 
BRANCH  14  17
ATOM     17  C   UNL     1      -5.559   3.797 -23.640  0.00  0.00    +0.034 C 
BRANCH  17  18
ATOM     18  C   UNL     1      -4.746   4.388 -24.465  0.00  0.00    +0.031 C 
BRANCH  18  21
ATOM     19  C   UNL     1      -3.527   3.276 -27.483  0.00  0.00    +0.038 C 
ATOM     20  C   UNL     1      -3.573   3.646 -26.237  0.00  0.00    -0.080 C 
ATOM     21  C   UNL     1      -4.701   4.018 -25.710  0.00  0.00    -0.028 C 
ATOM     22  C   UNL     1      -2.489   3.643 -25.519  0.00  0.00    +0.038 C 
ENDBRANCH  18  21
ENDBRANCH  17  18
ENDBRANCH  14  17
ENDBRANCH  13  15
ENDBRANCH   1  13
TORSDOF 6
ENDMDL
MODEL 2
REMARK VINA RESULT:    -8.815      1.796      3.674
REMARK INTER + INTRA:         -12.874
REMARK INTER:                 -11.908
REMARK INTRA:                  -0.966
REMARK UNBOUND:                -0.968
REMARK  Name = ZINC000001658901
REMARK  9 active torsions:
REMARK  status: ('A' for Active; 'I' for Inactive)
REMARK    1  A    between atoms: C_1  and  C_2
REMARK    2  A    between atoms: C_2  and  C_3
REMARK    3  A    between atoms: C_4  and  C_5
REMARK    4  A    between atoms: C_5  and  C_6
REMARK    5  A    between atoms: C_6  and  C_7
REMARK    6  A    between atoms: C_7  and  C_8
REMARK    7  A    between atoms: C_9  and  C_10
REMARK    8  A    between atoms: C_10  and  O_11
REMARK    9  A    between atoms: O_11  and  C_12
REMARK                            x       y       z     vdW  Elec       q    Type
REMARK                         _______ _______ _______ _____ _____    ______ ____
ROOT
ATOM      1  O   UNL     1      -1.216   3.050 -25.196  0.00  0.00    -0.488 OA
ENDROOT
BRANCH   1   2
ATOM      2  C   UNL     1      -0.081   3.099 -24.564  0.00  0.00    +0.124 A 
ATOM      3  C   UNL     1       0.773   4.042 -24.833  0.00  0.00    +0.046 A 
ATOM      4  C   UNL     1       1.908   4.091 -24.201  0.00  0.00    +0.015 A 
ATOM      5  C   UNL     1       2.189   3.197 -23.300  0.00  0.00    +0.018 A 
ATOM      6  C   UNL     1       3.324   3.246 -22.668  0.00  0.00    +0.018 A 
ATOM      7  C   UNL     1       3.605   2.352 -21.767  0.00  0.00    +0.092 A 
ATOM      8  C   UNL     1       2.751   1.409 -21.499  0.00  0.00    +0.337 A 
ATOM      9  O   UNL     1       1.616   1.360 -22.130  0.00  0.00    -0.422 OA
ATOM     10  O   UNL     1       3.033   0.515 -20.597  0.00  0.00    -0.245 OA
ATOM     11  C   UNL     1       1.335   2.254 -23.031  0.00  0.00    +0.143 A 
ATOM     12  C   UNL     1       0.200   2.205 -23.664  0.00  0.00    +0.092 A 
ENDBRANCH   1   2
BRANCH   1  13
ATOM     13  C   UNL     1      -1.997   4.089 -25.209  0.00  0.00    +0.256 C 
BRANCH  13  15
ATOM     14  C   UNL     1      -4.144   3.856 -24.571  0.00  0.00    -0.073 C 
ATOM     15  C   UNL     1      -2.924   4.217 -24.305  0.00  0.00    +0.012 C 
ATOM     16  C   UNL     1      -4.438   3.368 -25.740  0.00  0.00    +0.039 C 
BRANCH  14  17
ATOM     17  C   UNL     1      -5.070   3.984 -23.668  0.00  0.00    +0.034 C 
BRANCH  17  18
ATOM     18  C   UNL     1      -5.055   3.229 -22.609  0.00  0.00    +0.031 C 
BRANCH  18  21
ATOM     19  C   UNL     1      -3.177   3.655 -19.760  0.00  0.00    +0.038 C 
ATOM     20  C   UNL     1      -3.599   3.178 -20.893  0.00  0.00    -0.080 C 
ATOM     21  C   UNL     1      -4.633   3.706 -21.477  0.00  0.00    -0.028 C 
ATOM     22  C   UNL     1      -2.986   2.171 -21.442  0.00  0.00    +0.038 C 
ENDBRANCH  18  21
ENDBRANCH  17  18
ENDBRANCH  14  17
ENDBRANCH  13  15
ENDBRANCH   1  13
TORSDOF 6
ENDMDL
MODEL 3
REMARK VINA RESULT:    -8.766      2.626      4.586
REMARK INTER + INTRA:         -12.808
REMARK INTER:                 -11.521
REMARK INTRA:                  -1.287
REMARK UNBOUND:                -0.968
REMARK  Name = ZINC000001658901
REMARK  9 active torsions:
REMARK  status: ('A' for Active; 'I' for Inactive)
REMARK    1  A    between atoms: C_1  and  C_2
REMARK    2  A    between atoms: C_2  and  C_3
REMARK    3  A    between atoms: C_4  and  C_5
REMARK    4  A    between atoms: C_5  and  C_6
REMARK    5  A    between atoms: C_6  and  C_7
REMARK    6  A    between atoms: C_7  and  C_8
REMARK    7  A    between atoms: C_9  and  C_10
REMARK    8  A    between atoms: C_10  and  O_11
REMARK    9  A    between atoms: O_11  and  C_12
REMARK                            x       y       z     vdW  Elec       q    Type
REMARK                         _______ _______ _______ _____ _____    ______ ____
ROOT
ATOM      1  O   UNL     1       0.323   3.338 -24.634  0.00  0.00    -0.488 OA
ENDROOT
BRANCH   1   2
ATOM      2  C   UNL     1       1.578   3.271 -24.302  0.00  0.00    +0.124 A 
ATOM      3  C   UNL     1       2.255   2.186 -24.533  0.00  0.00    +0.046 A 
ATOM      4  C   UNL     1       3.511   2.120 -24.201  0.00  0.00    +0.015 A 
ATOM      5  C   UNL     1       4.089   3.140 -23.639  0.00  0.00    +0.018 A 
ATOM      6  C   UNL     1       5.344   3.073 -23.308  0.00  0.00    +0.018 A 
ATOM      7  C   UNL     1       5.922   4.093 -22.746  0.00  0.00    +0.092 A 
ATOM      8  C   UNL     1       5.245   5.178 -22.515  0.00  0.00    +0.337 A 
ATOM      9  O   UNL     1       3.990   5.245 -22.846  0.00  0.00    -0.422 OA
ATOM     10  O   UNL     1       5.824   6.198 -21.952  0.00  0.00    -0.245 OA
ATOM     11  C   UNL     1       3.412   4.225 -23.408  0.00  0.00    +0.143 A 
ATOM     12  C   UNL     1       2.156   4.291 -23.740  0.00  0.00    +0.092 A 
ENDBRANCH   1   2
BRANCH   1  13
ATOM     13  C   UNL     1      -0.555   2.619 -24.000  0.00  0.00    +0.256 C 
BRANCH  13  15
ATOM     14  C   UNL     1      -1.340   2.571 -21.890  0.00  0.00    -0.073 C 
ATOM     15  C   UNL     1      -1.268   3.151 -23.051  0.00  0.00    +0.012 C 
ATOM     16  C   UNL     1      -0.700   1.459 -21.677  0.00  0.00    +0.039 C 
BRANCH  14  17
ATOM     17  C   UNL     1      -2.052   3.103 -20.941  0.00  0.00    +0.034 C 
BRANCH  17  18
ATOM     18  C   UNL     1      -3.149   3.738 -21.230  0.00  0.00    +0.031 C 
BRANCH  18  21
ATOM     19  C   UNL     1      -6.356   2.605 -21.744  0.00  0.00    +0.038 C 
ATOM     20  C   UNL     1      -5.203   3.168 -21.955  0.00  0.00    -0.080 C 
ATOM     21  C   UNL     1      -4.302   3.176 -21.019  0.00  0.00    -0.028 C 
ATOM     22  C   UNL     1      -4.951   3.723 -23.104  0.00  0.00    +0.038 C 
ENDBRANCH  18  21
ENDBRANCH  17  18
ENDBRANCH  14  17
ENDBRANCH  13  15
ENDBRANCH   1  13
TORSDOF 6
ENDMDL
MODEL 4
REMARK VINA RESULT:    -8.726      2.329      6.987
REMARK INTER + INTRA:         -12.754
REMARK INTER:                 -11.469
REMARK INTRA:                  -1.286
REMARK UNBOUND:                -0.968
REMARK  Name = ZINC000001658901
REMARK  9 active torsions:
REMARK  status: ('A' for Active; 'I' for Inactive)
REMARK    1  A    between atoms: C_1  and  C_2
REMARK    2  A    between atoms: C_2  and  C_3
REMARK    3  A    between atoms: C_4  and  C_5
REMARK    4  A    between atoms: C_5  and  C_6
REMARK    5  A    between atoms: C_6  and  C_7
REMARK    6  A    between atoms: C_7  and  C_8
REMARK    7  A    between atoms: C_9  and  C_10
REMARK    8  A    between atoms: C_10  and  O_11
REMARK    9  A    between atoms: O_11  and  C_12
REMARK                            x       y       z     vdW  Elec       q    Type
REMARK                         _______ _______ _______ _____ _____    ______ ____
ROOT
ATOM      1  O   UNL     1      -0.022   3.093 -24.950  0.00  0.00    -0.488 OA
ENDROOT
BRANCH   1   2
ATOM      2  C   UNL     1      -0.810   2.918 -23.931  0.00  0.00    +0.124 A 
ATOM      3  C   UNL     1      -0.336   2.447 -22.817  0.00  0.00    +0.046 A 
ATOM      4  C   UNL     1      -1.124   2.272 -21.797  0.00  0.00    +0.015 A 
ATOM      5  C   UNL     1      -2.386   2.569 -21.893  0.00  0.00    +0.018 A 
ATOM      6  C   UNL     1      -3.174   2.395 -20.874  0.00  0.00    +0.018 A 
ATOM      7  C   UNL     1      -4.435   2.692 -20.970  0.00  0.00    +0.092 A 
ATOM      8  C   UNL     1      -4.909   3.164 -22.085  0.00  0.00    +0.337 A 
ATOM      9  O   UNL     1      -4.122   3.338 -23.104  0.00  0.00    -0.422 OA
ATOM     10  O   UNL     1      -6.172   3.461 -22.181  0.00  0.00    -0.245 OA
ATOM     11  C   UNL     1      -2.860   3.041 -23.008  0.00  0.00    +0.143 A 
ATOM     12  C   UNL     1      -2.071   3.215 -24.027  0.00  0.00    +0.092 A 
ENDBRANCH   1   2
BRANCH   1  13
ATOM     13  C   UNL     1       0.948   3.955 -24.882  0.00  0.00    +0.256 C 
BRANCH  13  15
ATOM     14  C   UNL     1       2.840   4.235 -23.693  0.00  0.00    -0.073 C 
ATOM     15  C   UNL     1       2.146   3.562 -24.562  0.00  0.00    +0.012 C 
ATOM     16  C   UNL     1       2.337   5.300 -23.143  0.00  0.00    +0.039 C 
BRANCH  14  17
ATOM     17  C   UNL     1       4.037   3.843 -23.374  0.00  0.00    +0.034 C 
BRANCH  17  18
ATOM     18  C   UNL     1       4.310   2.573 -23.311  0.00  0.00    +0.031 C 
BRANCH  18  21
ATOM     19  C   UNL     1       3.929   0.366 -20.701  0.00  0.00    +0.038 C 
ATOM     20  C   UNL     1       3.772   0.942 -21.857  0.00  0.00    -0.080 C 
ATOM     21  C   UNL     1       4.467   1.998 -22.156  0.00  0.00    -0.028 C 
ATOM     22  C   UNL     1       2.919   0.460 -22.712  0.00  0.00    +0.038 C 
ENDBRANCH  18  21
ENDBRANCH  17  18
ENDBRANCH  14  17
ENDBRANCH  13  15
ENDBRANCH   1  13
TORSDOF 6
ENDMDL
MODEL 5
REMARK VINA RESULT:    -8.634      2.449      3.049
REMARK INTER + INTRA:         -12.630
REMARK INTER:                 -11.621
REMARK INTRA:                  -1.010
REMARK UNBOUND:                -0.968
REMARK  Name = ZINC000001658901
REMARK  9 active torsions:
REMARK  status: ('A' for Active; 'I' for Inactive)
REMARK    1  A    between atoms: C_1  and  C_2
REMARK    2  A    between atoms: C_2  and  C_3
REMARK    3  A    between atoms: C_4  and  C_5
REMARK    4  A    between atoms: C_5  and  C_6
REMARK    5  A    between atoms: C_6  and  C_7
REMARK    6  A    between atoms: C_7  and  C_8
REMARK    7  A    between atoms: C_9  and  C_10
REMARK    8  A    between atoms: C_10  and  O_11
REMARK    9  A    between atoms: O_11  and  C_12
REMARK                            x       y       z     vdW  Elec       q    Type
REMARK                         _______ _______ _______ _____ _____    ______ ____
ROOT
ATOM      1  O   UNL     1      -0.428   1.381 -21.895  0.00  0.00    -0.488 OA
ENDROOT
BRANCH   1   2
ATOM      2  C   UNL     1       0.724   1.850 -22.273  0.00  0.00    +0.124 A 
ATOM      3  C   UNL     1       0.876   2.303 -23.481  0.00  0.00    +0.046 A 
ATOM      4  C   UNL     1       2.029   2.772 -23.859  0.00  0.00    +0.015 A 
ATOM      5  C   UNL     1       3.029   2.787 -23.028  0.00  0.00    +0.018 A 
ATOM      6  C   UNL     1       4.180   3.256 -23.406  0.00  0.00    +0.018 A 
ATOM      7  C   UNL     1       5.180   3.272 -22.575  0.00  0.00    +0.092 A 
ATOM      8  C   UNL     1       5.027   2.819 -21.366  0.00  0.00    +0.337 A 
ATOM      9  O   UNL     1       3.875   2.350 -20.988  0.00  0.00    -0.422 OA
ATOM     10  O   UNL     1       6.027   2.834 -20.535  0.00  0.00    -0.245 OA
ATOM     11  C   UNL     1       2.876   2.334 -21.819  0.00  0.00    +0.143 A 
ATOM     12  C   UNL     1       1.723   1.865 -21.442  0.00  0.00    +0.092 A 
ENDBRANCH   1   2
BRANCH   1  13
ATOM     13  C   UNL     1      -1.306   2.172 -21.354  0.00  0.00    +0.256 C 
BRANCH  13  15
ATOM     14  C   UNL     1      -3.403   2.989 -21.270  0.00  0.00    -0.073 C 
ATOM     15  C   UNL     1      -2.511   2.234 -21.840  0.00  0.00    +0.012 C 
ATOM     16  C   UNL     1      -3.090   3.682 -20.215  0.00  0.00    +0.039 C 
BRANCH  14  17
ATOM     17  C   UNL     1      -4.607   3.051 -21.755  0.00  0.00    +0.034 C 
BRANCH  17  18
ATOM     18  C   UNL     1      -4.876   3.876 -22.723  0.00  0.00    +0.031 C 
BRANCH  18  21
ATOM     19  C   UNL     1      -4.455   3.328 -26.093  0.00  0.00    +0.038 C 
ATOM     20  C   UNL     1      -4.265   3.779 -24.888  0.00  0.00    -0.080 C 
ATOM     21  C   UNL     1      -5.066   3.426 -23.927  0.00  0.00    -0.028 C 
ATOM     22  C   UNL     1      -3.273   4.583 -24.644  0.00  0.00    +0.038 C 
ENDBRANCH  18  21
ENDBRANCH  17  18
ENDBRANCH  14  17
ENDBRANCH  13  15
ENDBRANCH   1  13
TORSDOF 6
ENDMDL
MODEL 6
REMARK VINA RESULT:    -8.611      1.984      6.825
REMARK INTER + INTRA:         -12.599
REMARK INTER:                 -11.587
REMARK INTRA:                  -1.012
REMARK UNBOUND:                -0.968
REMARK  Name = ZINC000001658901
REMARK  9 active torsions:
REMARK  status: ('A' for Active; 'I' for Inactive)
REMARK    1  A    between atoms: C_1  and  C_2
REMARK    2  A    between atoms: C_2  and  C_3
REMARK    3  A    between atoms: C_4  and  C_5
REMARK    4  A    between atoms: C_5  and  C_6
REMARK    5  A    between atoms: C_6  and  C_7
REMARK    6  A    between atoms: C_7  and  C_8
REMARK    7  A    between atoms: C_9  and  C_10
REMARK    8  A    between atoms: C_10  and  O_11
REMARK    9  A    between atoms: O_11  and  C_12
REMARK                            x       y       z     vdW  Elec       q    Type
REMARK                         _______ _______ _______ _____ _____    ______ ____
ROOT
ATOM      1  O   UNL     1      -0.763   3.385 -25.763  0.00  0.00    -0.488 OA
ENDROOT
BRANCH   1   2
ATOM      2  C   UNL     1      -1.899   3.459 -25.135  0.00  0.00    +0.124 A 
ATOM      3  C   UNL     1      -2.924   4.014 -25.711  0.00  0.00    +0.046 A 
ATOM      4  C   UNL     1      -4.061   4.088 -25.082  0.00  0.00    +0.015 A 
ATOM      5  C   UNL     1      -4.171   3.608 -23.879  0.00  0.00    +0.018 A 
ATOM      6  C   UNL     1      -5.306   3.682 -23.252  0.00  0.00    +0.018 A 
ATOM      7  C   UNL     1      -5.416   3.202 -22.049  0.00  0.00    +0.092 A 
ATOM      8  C   UNL     1      -4.391   2.648 -21.474  0.00  0.00    +0.337 A 
ATOM      9  O   UNL     1      -3.255   2.574 -22.101  0.00  0.00    -0.422 OA
ATOM     10  O   UNL     1      -4.501   2.168 -20.270  0.00  0.00    -0.245 OA
ATOM     11  C   UNL     1      -3.145   3.054 -23.304  0.00  0.00    +0.143 A 
ATOM     12  C   UNL     1      -2.009   2.979 -23.932  0.00  0.00    +0.092 A 
ENDBRANCH   1   2
BRANCH   1  13
ATOM     13  C   UNL     1       0.270   4.033 -25.315  0.00  0.00    +0.256 C 
BRANCH  13  15
ATOM     14  C   UNL     1       2.214   3.842 -24.194  0.00  0.00    -0.073 C 
ATOM     15  C   UNL     1       1.388   3.404 -25.097  0.00  0.00    +0.012 C 
ATOM     16  C   UNL     1       1.924   4.907 -23.509  0.00  0.00    +0.039 C 
BRANCH  14  17
ATOM     17  C   UNL     1       3.331   3.213 -23.977  0.00  0.00    +0.034 C 
BRANCH  17  18
ATOM     18  C   UNL     1       3.339   1.917 -23.876  0.00  0.00    +0.031 C 
BRANCH  18  21
ATOM     19  C   UNL     1       3.909   0.349 -20.869  0.00  0.00    +0.038 C 
ATOM     20  C   UNL     1       3.289   0.921 -21.858  0.00  0.00    -0.080 C 
ATOM     21  C   UNL     1       3.959   1.345 -22.888  0.00  0.00    -0.028 C 
ATOM     22  C   UNL     1       1.998   1.068 -21.817  0.00  0.00    +0.038 C 
ENDBRANCH  18  21
ENDBRANCH  17  18
ENDBRANCH  14  17
ENDBRANCH  13  15
ENDBRANCH   1  13
TORSDOF 6
ENDMDL
MODEL 7
REMARK VINA RESULT:    -8.519      2.776      4.386
REMARK INTER + INTRA:         -12.475
REMARK INTER:                 -11.507
REMARK INTRA:                  -0.968
REMARK UNBOUND:                -0.968
REMARK  Name = ZINC000001658901
REMARK  9 active torsions:
REMARK  status: ('A' for Active; 'I' for Inactive)
REMARK    1  A    between atoms: C_1  and  C_2
REMARK    2  A    between atoms: C_2  and  C_3
REMARK    3  A    between atoms: C_4  and  C_5
REMARK    4  A    between atoms: C_5  and  C_6
REMARK    5  A    between atoms: C_6  and  C_7
REMARK    6  A    between atoms: C_7  and  C_8
REMARK    7  A    between atoms: C_9  and  C_10
REMARK    8  A    between atoms: C_10  and  O_11
REMARK    9  A    between atoms: O_11  and  C_12
REMARK                            x       y       z     vdW  Elec       q    Type
REMARK                         _______ _______ _______ _____ _____    ______ ____
ROOT
ATOM      1  O   UNL     1       0.160   4.803 -23.895  0.00  0.00    -0.488 OA
ENDROOT
BRANCH   1   2
ATOM      2  C   UNL     1       1.396   4.417 -23.785  0.00  0.00    +0.124 A 
ATOM      3  C   UNL     1       1.742   3.226 -24.174  0.00  0.00    +0.046 A 
ATOM      4  C   UNL     1       2.979   2.840 -24.064  0.00  0.00    +0.015 A 
ATOM      5  C   UNL     1       3.869   3.645 -23.564  0.00  0.00    +0.018 A 
ATOM      6  C   UNL     1       5.105   3.258 -23.454  0.00  0.00    +0.018 A 
ATOM      7  C   UNL     1       5.995   4.063 -22.954  0.00  0.00    +0.092 A 
ATOM      8  C   UNL     1       5.649   5.254 -22.564  0.00  0.00    +0.337 A 
ATOM      9  O   UNL     1       4.413   5.640 -22.674  0.00  0.00    -0.422 OA
ATOM     10  O   UNL     1       6.540   6.059 -22.064  0.00  0.00    -0.245 OA
ATOM     11  C   UNL     1       3.523   4.835 -23.174  0.00  0.00    +0.143 A 
ATOM     12  C   UNL     1       2.286   5.221 -23.285  0.00  0.00    +0.092 A 
ENDBRANCH   1   2
BRANCH   1  13
ATOM     13  C   UNL     1      -0.722   4.013 -24.432  0.00  0.00    +0.256 C 
BRANCH  13  15
ATOM     14  C   UNL     1      -2.827   3.944 -25.227  0.00  0.00    -0.073 C 
ATOM     15  C   UNL     1      -1.990   4.260 -24.284  0.00  0.00    +0.012 C 
ATOM     16  C   UNL     1      -2.397   3.383 -26.318  0.00  0.00    +0.039 C 
BRANCH  14  17
ATOM     17  C   UNL     1      -4.095   4.190 -25.080  0.00  0.00    +0.034 C 
BRANCH  17  18
ATOM     18  C   UNL     1      -4.572   4.464 -23.901  0.00  0.00    +0.031 C 
BRANCH  18  21
ATOM     19  C   UNL     1      -6.309   2.545 -21.637  0.00  0.00    +0.038 C 
ATOM     20  C   UNL     1      -5.384   3.297 -22.156  0.00  0.00    -0.080 C 
ATOM     21  C   UNL     1      -5.496   3.712 -23.383  0.00  0.00    -0.028 C 
ATOM     22  C   UNL     1      -4.348   3.634 -21.447  0.00  0.00    +0.038 C 
ENDBRANCH  18  21
ENDBRANCH  17  18
ENDBRANCH  14  17
ENDBRANCH  13  15
ENDBRANCH   1  13
TORSDOF 6
ENDMDL
MODEL 8
REMARK VINA RESULT:    -8.433      3.183      4.803
REMARK INTER + INTRA:         -12.359
REMARK INTER:                 -11.226
REMARK INTRA:                  -1.133
REMARK UNBOUND:                -0.968
REMARK  Name = ZINC000001658901
REMARK  9 active torsions:
REMARK  status: ('A' for Active; 'I' for Inactive)
REMARK    1  A    between atoms: C_1  and  C_2
REMARK    2  A    between atoms: C_2  and  C_3
REMARK    3  A    between atoms: C_4  and  C_5
REMARK    4  A    between atoms: C_5  and  C_6
REMARK    5  A    between atoms: C_6  and  C_7
REMARK    6  A    between atoms: C_7  and  C_8
REMARK    7  A    between atoms: C_9  and  C_10
REMARK    8  A    between atoms: C_10  and  O_11
REMARK    9  A    between atoms: O_11  and  C_12
REMARK                            x       y       z     vdW  Elec       q    Type
REMARK                         _______ _______ _______ _____ _____    ______ ____
ROOT
ATOM      1  O   UNL     1       1.443   0.915 -21.898  0.00  0.00    -0.488 OA
ENDROOT
BRANCH   1   2
ATOM      2  C   UNL     1       2.537   1.490 -22.299  0.00  0.00    +0.124 A 
ATOM      3  C   UNL     1       2.784   1.604 -23.570  0.00  0.00    +0.046 A 
ATOM      4  C   UNL     1       3.879   2.180 -23.971  0.00  0.00    +0.015 A 
ATOM      5  C   UNL     1       4.726   2.642 -23.100  0.00  0.00    +0.018 A 
ATOM      6  C   UNL     1       5.820   3.218 -23.500  0.00  0.00    +0.018 A 
ATOM      7  C   UNL     1       6.668   3.679 -22.630  0.00  0.00    +0.092 A 
ATOM      8  C   UNL     1       6.421   3.565 -21.358  0.00  0.00    +0.337 A 
ATOM      9  O   UNL     1       5.327   2.990 -20.958  0.00  0.00    -0.422 OA
ATOM     10  O   UNL     1       7.269   4.028 -20.487  0.00  0.00    -0.245 OA
ATOM     11  C   UNL     1       4.479   2.528 -21.829  0.00  0.00    +0.143 A 
ATOM     12  C   UNL     1       3.384   1.952 -21.428  0.00  0.00    +0.092 A 
ENDBRANCH   1   2
BRANCH   1  13
ATOM     13  C   UNL     1       0.428   1.637 -21.526  0.00  0.00    +0.256 C 
BRANCH  13  15
ATOM     14  C   UNL     1      -0.882   2.808 -22.936  0.00  0.00    -0.073 C 
ATOM     15  C   UNL     1      -0.628   1.713 -22.283  0.00  0.00    +0.012 C 
ATOM     16  C   UNL     1      -0.081   3.826 -22.832  0.00  0.00    +0.039 C 
BRANCH  14  17
ATOM     17  C   UNL     1      -1.936   2.884 -23.692  0.00  0.00    +0.034 C 
BRANCH  17  18
ATOM     18  C   UNL     1      -2.875   3.741 -23.415  0.00  0.00    +0.031 C 
BRANCH  18  21
ATOM     19  C   UNL     1      -5.729   2.876 -21.701  0.00  0.00    +0.038 C 
ATOM     20  C   UNL     1      -4.521   3.291 -21.947  0.00  0.00    -0.080 C 
ATOM     21  C   UNL     1      -4.082   3.326 -23.170  0.00  0.00    -0.028 C 
ATOM     22  C   UNL     1      -3.753   3.670 -20.969  0.00  0.00    +0.038 C 
ENDBRANCH  18  21
ENDBRANCH  17  18
ENDBRANCH  14  17
ENDBRANCH  13  15
ENDBRANCH   1  13
TORSDOF 6
ENDMDL
MODEL 9
REMARK VINA RESULT:    -8.395      3.119      7.259
REMARK INTER + INTRA:         -12.308
REMARK INTER:                 -11.302
REMARK INTRA:                  -1.006
REMARK UNBOUND:                -0.968
REMARK  Name = ZINC000001658901
REMARK  9 active torsions:
REMARK  status: ('A' for Active; 'I' for Inactive)
REMARK    1  A    between atoms: C_1  and  C_2
REMARK    2  A    between atoms: C_2  and  C_3
REMARK    3  A    between atoms: C_4  and  C_5
REMARK    4  A    between atoms: C_5  and  C_6
REMARK    5  A    between atoms: C_6  and  C_7
REMARK    6  A    between atoms: C_7  and  C_8
REMARK    7  A    between atoms: C_9  and  C_10
REMARK    8  A    between atoms: C_10  and  O_11
REMARK    9  A    between atoms: O_11  and  C_12
REMARK                            x       y       z     vdW  Elec       q    Type
REMARK                         _______ _______ _______ _____ _____    ______ ____
ROOT
ATOM      1  O   UNL     1       0.528   1.774 -22.880  0.00  0.00    -0.488 OA
ENDROOT
BRANCH   1   2
ATOM      2  C   UNL     1      -0.709   2.142 -22.732  0.00  0.00    +0.124 A 
ATOM      3  C   UNL     1      -1.288   2.022 -21.574  0.00  0.00    +0.046 A 
ATOM      4  C   UNL     1      -2.527   2.391 -21.426  0.00  0.00    +0.015 A 
ATOM      5  C   UNL     1      -3.185   2.880 -22.434  0.00  0.00    +0.018 A 
ATOM      6  C   UNL     1      -4.422   3.248 -22.286  0.00  0.00    +0.018 A 
ATOM      7  C   UNL     1      -5.080   3.737 -23.295  0.00  0.00    +0.092 A 
ATOM      8  C   UNL     1      -4.500   3.857 -24.452  0.00  0.00    +0.337 A 
ATOM      9  O   UNL     1      -3.263   3.489 -24.601  0.00  0.00    -0.422 OA
ATOM     10  O   UNL     1      -5.159   4.347 -25.461  0.00  0.00    -0.245 OA
ATOM     11  C   UNL     1      -2.605   3.000 -23.592  0.00  0.00    +0.143 A 
ATOM     12  C   UNL     1      -1.367   2.631 -23.740  0.00  0.00    +0.092 A 
ENDBRANCH   1   2
BRANCH   1  13
ATOM     13  C   UNL     1       1.260   2.314 -23.809  0.00  0.00    +0.256 C 
BRANCH  13  15
ATOM     14  C   UNL     1       2.516   4.153 -23.476  0.00  0.00    -0.073 C 
ATOM     15  C   UNL     1       2.401   2.858 -23.503  0.00  0.00    +0.012 C 
ATOM     16  C   UNL     1       1.492   4.903 -23.754  0.00  0.00    +0.039 C 
BRANCH  14  17
ATOM     17  C   UNL     1       3.656   4.697 -23.170  0.00  0.00    +0.034 C 
BRANCH  17  18
ATOM     18  C   UNL     1       4.748   3.992 -23.218  0.00  0.00    +0.031 C 
BRANCH  18  21
ATOM     19  C   UNL     1       7.564   4.447 -21.296  0.00  0.00    +0.038 C 
ATOM     20  C   UNL     1       6.448   3.951 -21.743  0.00  0.00    -0.080 C 
ATOM     21  C   UNL     1       5.863   4.488 -22.772  0.00  0.00    -0.028 C 
ATOM     22  C   UNL     1       5.917   2.917 -21.160  0.00  0.00    +0.038 C 
ENDBRANCH  18  21
ENDBRANCH  17  18
ENDBRANCH  14  17
ENDBRANCH  13  15
ENDBRANCH   1  13
TORSDOF 6
ENDMDL
