MODEL 1
REMARK VINA RESULT:    -8.022      0.000      0.000
REMARK INTER + INTRA:         -15.840
REMARK INTER:                 -13.815
REMARK INTRA:                  -2.025
REMARK UNBOUND:                -1.253
REMARK  Name = CCCCCCCCCCCC1=C(O)C(=O)C=C(NCCCC)C1=O                                ZINC000106618713
REMARK  16 active torsions:
REMARK  status: ('A' for Active; 'I' for Inactive)
REMARK    1  A    between atoms: C_1  and  C_2
REMARK    2  A    between atoms: C_2  and  C_3
REMARK    3  A    between atoms: C_3  and  C_4
REMARK    4  A    between atoms: C_4  and  C_5
REMARK    5  A    between atoms: C_5  and  C_6
REMARK    6  A    between atoms: C_6  and  C_7
REMARK    7  A    between atoms: C_7  and  C_8
REMARK    8  A    between atoms: C_8  and  C_9
REMARK    9  A    between atoms: C_9  and  C_10
REMARK   10  A    between atoms: C_10  and  C_11
REMARK   11  A    between atoms: C_11  and  C_12
REMARK   12  A    between atoms: C_18  and  N_19
REMARK   13  A    between atoms: N_19  and  C_20
REMARK   14  A    between atoms: C_20  and  C_21
REMARK   15  A    between atoms: C_21  and  C_22
REMARK   16  A    between atoms: C_22  and  C_23
REMARK                            x       y       z     vdW  Elec       q    Type
REMARK                         _______ _______ _______ _____ _____    ______ ____
ROOT
ATOM      1  C   UNL     1       0.245   3.433 -23.489  0.00  0.00    -0.008 C 
ATOM      2  C   UNL     1       0.363   2.220 -23.039  0.00  0.00    +0.228 C 
ATOM      3  C   UNL     1       1.502   1.811 -22.561  0.00  0.00    +0.227 C 
ATOM      4  C   UNL     1       2.522   2.617 -22.535  0.00  0.00    +0.076 C 
ATOM      5  C   UNL     1       2.404   3.830 -22.986  0.00  0.00    +0.018 C 
ATOM      6  O   UNL     1       1.620   0.598 -22.110  0.00  0.00    -0.284 OA
ATOM      7  O   UNL     1      -0.657   1.414 -23.065  0.00  0.00    -0.284 OA
ATOM      8  C   UNL     1       1.265   4.238 -23.463  0.00  0.00    -0.112 C 
ATOM      9  O   UNL     1       1.147   5.452 -23.914  0.00  0.00    -0.828 OA
ENDROOT
BRANCH   5  10
ATOM     10  N   UNL     1       3.424   4.636 -22.960  0.00  0.00    -0.344 N 
ATOM     11  H   UNL     1       3.290   5.593 -22.777  0.00  0.00    +0.146 HD
BRANCH  10  12
ATOM     12  C   UNL     1       4.620   4.176 -23.175  0.00  0.00    +0.101 C 
BRANCH  12  13
ATOM     13  C   UNL     1       5.638   4.695 -22.554  0.00  0.00    +0.018 C 
BRANCH  13  14
ATOM     14  C   UNL     1       6.599   3.930 -22.128  0.00  0.00    -0.002 C 
ATOM     15  C   UNL     1       7.093   3.014 -22.908  0.00  0.00    +0.004 C 
ENDBRANCH  13  14
ENDBRANCH  12  13
ENDBRANCH  10  12
ENDBRANCH   5  10
BRANCH   1  16
ATOM     16  C   UNL     1      -0.893   3.841 -23.967  0.00  0.00    +0.038 C 
BRANCH  16  17
ATOM     17  C   UNL     1      -1.231   3.542 -25.185  0.00  0.00    +0.005 C 
BRANCH  17  18
ATOM     18  C   UNL     1      -2.488   3.446 -25.507  0.00  0.00    +0.000 C 
BRANCH  18  19
ATOM     19  C   UNL     1      -3.329   4.357 -25.120  0.00  0.00    +0.000 C 
BRANCH  19  20
ATOM     20  C   UNL     1      -4.582   4.055 -24.949  0.00  0.00    +0.000 C 
BRANCH  20  21
ATOM     21  C   UNL     1      -5.176   4.353 -23.831  0.00  0.00    +0.000 C 
BRANCH  21  22
ATOM     22  C   UNL     1      -5.565   3.407 -23.030  0.00  0.00    -0.000 C 
BRANCH  22  23
ATOM     23  C   UNL     1      -5.062   3.320 -21.834  0.00  0.00    -0.000 C 
BRANCH  23  24
ATOM     24  C   UNL     1      -4.020   2.572 -21.619  0.00  0.00    -0.000 C 
BRANCH  24  26
ATOM     25  C   UNL     1      -3.071   4.135 -20.307  0.00  0.00    +0.004 C 
ATOM     26  C   UNL     1      -2.965   3.075 -21.051  0.00  0.00    -0.003 C 
ENDBRANCH  24  26
ENDBRANCH  23  24
ENDBRANCH  22  23
ENDBRANCH  21  22
ENDBRANCH  20  21
ENDBRANCH  19  20
ENDBRANCH  18  19
ENDBRANCH  17  18
ENDBRANCH  16  17
ENDBRANCH   1  16
TORSDOF 14
ENDMDL
MODEL 2
REMARK VINA RESULT:    -8.016      1.439      3.517
REMARK INTER + INTRA:         -15.830
REMARK INTER:                 -13.817
REMARK INTRA:                  -2.013
REMARK UNBOUND:                -1.253
REMARK  Name = CCCCCCCCCCCC1=C(O)C(=O)C=C(NCCCC)C1=O                                ZINC000106618713
REMARK  16 active torsions:
REMARK  status: ('A' for Active; 'I' for Inactive)
REMARK    1  A    between atoms: C_1  and  C_2
REMARK    2  A    between atoms: C_2  and  C_3
REMARK    3  A    between atoms: C_3  and  C_4
REMARK    4  A    between atoms: C_4  and  C_5
REMARK    5  A    between atoms: C_5  and  C_6
REMARK    6  A    between atoms: C_6  and  C_7
REMARK    7  A    between atoms: C_7  and  C_8
REMARK    8  A    between atoms: C_8  and  C_9
REMARK    9  A    between atoms: C_9  and  C_10
REMARK   10  A    between atoms: C_10  and  C_11
REMARK   11  A    between atoms: C_11  and  C_12
REMARK   12  A    between atoms: C_18  and  N_19
REMARK   13  A    between atoms: N_19  and  C_20
REMARK   14  A    between atoms: C_20  and  C_21
REMARK   15  A    between atoms: C_21  and  C_22
REMARK   16  A    between atoms: C_22  and  C_23
REMARK                            x       y       z     vdW  Elec       q    Type
REMARK                         _______ _______ _______ _____ _____    ______ ____
ROOT
ATOM      1  C   UNL     1      -0.509   3.069 -22.670  0.00  0.00    -0.008 C 
ATOM      2  C   UNL     1      -0.079   4.227 -23.076  0.00  0.00    +0.228 C 
ATOM      3  C   UNL     1       1.162   4.370 -23.435  0.00  0.00    +0.227 C 
ATOM      4  C   UNL     1       1.973   3.355 -23.390  0.00  0.00    +0.076 C 
ATOM      5  C   UNL     1       1.544   2.197 -22.984  0.00  0.00    +0.018 C 
ATOM      6  O   UNL     1       1.592   5.528 -23.840  0.00  0.00    -0.284 OA
ATOM      7  O   UNL     1      -0.890   5.242 -23.121  0.00  0.00    -0.284 OA
ATOM      8  C   UNL     1       0.302   2.054 -22.625  0.00  0.00    -0.112 C 
ATOM      9  O   UNL     1      -0.128   0.896 -22.219  0.00  0.00    -0.828 OA
ENDROOT
BRANCH   5  10
ATOM     10  N   UNL     1       2.355   1.183 -22.939  0.00  0.00    -0.344 N 
ATOM     11  H   UNL     1       2.014   0.291 -22.698  0.00  0.00    +0.146 HD
BRANCH  10  12
ATOM     12  C   UNL     1       3.615   1.346 -23.211  0.00  0.00    +0.101 C 
BRANCH  12  13
ATOM     13  C   UNL     1       4.519   0.967 -22.357  0.00  0.00    +0.018 C 
BRANCH  13  14
ATOM     14  C   UNL     1       5.123   1.849 -21.617  0.00  0.00    -0.002 C 
ATOM     15  C   UNL     1       5.606   2.928 -22.158  0.00  0.00    +0.004 C 
ENDBRANCH  13  14
ENDBRANCH  12  13
ENDBRANCH  10  12
ENDBRANCH   5  10
BRANCH   1  16
ATOM     16  C   UNL     1      -1.750   2.926 -22.311  0.00  0.00    +0.038 C 
BRANCH  16  17
ATOM     17  C   UNL     1      -2.112   3.219 -21.098  0.00  0.00    +0.005 C 
BRANCH  17  18
ATOM     18  C   UNL     1      -3.356   3.502 -20.841  0.00  0.00    +0.000 C 
BRANCH  18  19
ATOM     19  C   UNL     1      -4.252   2.561 -20.850  0.00  0.00    +0.000 C 
BRANCH  19  20
ATOM     20  C   UNL     1      -5.245   2.616 -21.686  0.00  0.00    +0.000 C 
BRANCH  20  21
ATOM     21  C   UNL     1      -5.432   3.685 -22.403  0.00  0.00    +0.000 C 
BRANCH  21  22
ATOM     22  C   UNL     1      -5.290   3.634 -23.694  0.00  0.00    -0.000 C 
BRANCH  22  23
ATOM     23  C   UNL     1      -4.838   4.668 -24.339  0.00  0.00    -0.000 C 
BRANCH  23  24
ATOM     24  C   UNL     1      -3.724   4.584 -25.004  0.00  0.00    -0.000 C 
BRANCH  24  26
ATOM     25  C   UNL     1      -3.162   3.421 -26.847  0.00  0.00    +0.004 C 
ATOM     26  C   UNL     1      -3.386   3.463 -25.568  0.00  0.00    -0.003 C 
ENDBRANCH  24  26
ENDBRANCH  23  24
ENDBRANCH  22  23
ENDBRANCH  21  22
ENDBRANCH  20  21
ENDBRANCH  19  20
ENDBRANCH  18  19
ENDBRANCH  17  18
ENDBRANCH  16  17
ENDBRANCH   1  16
TORSDOF 14
ENDMDL
MODEL 3
REMARK VINA RESULT:    -7.741      1.374      2.392
REMARK INTER + INTRA:         -15.329
REMARK INTER:                 -13.425
REMARK INTRA:                  -1.904
REMARK UNBOUND:                -1.253
REMARK  Name = CCCCCCCCCCCC1=C(O)C(=O)C=C(NCCCC)C1=O                                ZINC000106618713
REMARK  16 active torsions:
REMARK  status: ('A' for Active; 'I' for Inactive)
REMARK    1  A    between atoms: C_1  and  C_2
REMARK    2  A    between atoms: C_2  and  C_3
REMARK    3  A    between atoms: C_3  and  C_4
REMARK    4  A    between atoms: C_4  and  C_5
REMARK    5  A    between atoms: C_5  and  C_6
REMARK    6  A    between atoms: C_6  and  C_7
REMARK    7  A    between atoms: C_7  and  C_8
REMARK    8  A    between atoms: C_8  and  C_9
REMARK    9  A    between atoms: C_9  and  C_10
REMARK   10  A    between atoms: C_10  and  C_11
REMARK   11  A    between atoms: C_11  and  C_12
REMARK   12  A    between atoms: C_18  and  N_19
REMARK   13  A    between atoms: N_19  and  C_20
REMARK   14  A    between atoms: C_20  and  C_21
REMARK   15  A    between atoms: C_21  and  C_22
REMARK   16  A    between atoms: C_22  and  C_23
REMARK                            x       y       z     vdW  Elec       q    Type
REMARK                         _______ _______ _______ _____ _____    ______ ____
ROOT
ATOM      1  C   UNL     1      -0.041   3.296 -23.182  0.00  0.00    -0.008 C 
ATOM      2  C   UNL     1       0.536   4.438 -23.408  0.00  0.00    +0.228 C 
ATOM      3  C   UNL     1       1.826   4.550 -23.286  0.00  0.00    +0.227 C 
ATOM      4  C   UNL     1       2.538   3.520 -22.939  0.00  0.00    +0.076 C 
ATOM      5  C   UNL     1       1.960   2.377 -22.714  0.00  0.00    +0.018 C 
ATOM      6  O   UNL     1       2.403   5.693 -23.511  0.00  0.00    -0.284 OA
ATOM      7  O   UNL     1      -0.176   5.469 -23.755  0.00  0.00    -0.284 OA
ATOM      8  C   UNL     1       0.670   2.265 -22.835  0.00  0.00    -0.112 C 
ATOM      9  O   UNL     1       0.093   1.122 -22.610  0.00  0.00    -0.828 OA
ENDROOT
BRANCH   5  10
ATOM     10  N   UNL     1       2.672   1.346 -22.367  0.00  0.00    -0.344 N 
ATOM     11  H   UNL     1       2.273   0.636 -21.815  0.00  0.00    +0.146 HD
BRANCH  10  12
ATOM     12  C   UNL     1       3.911   1.254 -22.749  0.00  0.00    +0.101 C 
BRANCH  12  13
ATOM     13  C   UNL     1       4.833   0.921 -21.894  0.00  0.00    +0.018 C 
BRANCH  13  14
ATOM     14  C   UNL     1       5.333   1.818 -21.096  0.00  0.00    -0.002 C 
ATOM     15  C   UNL     1       5.897   2.881 -21.588  0.00  0.00    +0.004 C 
ENDBRANCH  13  14
ENDBRANCH  12  13
ENDBRANCH  10  12
ENDBRANCH   5  10
BRANCH   1  16
ATOM     16  C   UNL     1      -1.331   3.183 -23.304  0.00  0.00    +0.038 C 
BRANCH  16  17
ATOM     17  C   UNL     1      -1.835   2.562 -24.328  0.00  0.00    +0.005 C 
BRANCH  17  18
ATOM     18  C   UNL     1      -2.290   3.239 -25.341  0.00  0.00    +0.000 C 
BRANCH  18  19
ATOM     19  C   UNL     1      -3.571   3.343 -25.531  0.00  0.00    +0.000 C 
BRANCH  19  20
ATOM     20  C   UNL     1      -4.171   4.475 -25.311  0.00  0.00    +0.000 C 
BRANCH  20  21
ATOM     21  C   UNL     1      -4.930   4.616 -24.264  0.00  0.00    +0.000 C 
BRANCH  21  22
ATOM     22  C   UNL     1      -5.250   3.579 -23.549  0.00  0.00    -0.000 C 
BRANCH  22  23
ATOM     23  C   UNL     1      -5.173   3.635 -22.253  0.00  0.00    -0.000 C 
BRANCH  23  24
ATOM     24  C   UNL     1      -4.571   2.688 -21.596  0.00  0.00    -0.000 C 
BRANCH  24  26
ATOM     25  C   UNL     1      -3.140   3.936 -20.387  0.00  0.00    +0.004 C 
ATOM     26  C   UNL     1      -3.985   2.951 -20.466  0.00  0.00    -0.003 C 
ENDBRANCH  24  26
ENDBRANCH  23  24
ENDBRANCH  22  23
ENDBRANCH  21  22
ENDBRANCH  20  21
ENDBRANCH  19  20
ENDBRANCH  18  19
ENDBRANCH  17  18
ENDBRANCH  16  17
ENDBRANCH   1  16
TORSDOF 14
ENDMDL
MODEL 4
REMARK VINA RESULT:    -7.632      2.104      6.062
REMARK INTER + INTRA:         -15.132
REMARK INTER:                 -12.915
REMARK INTRA:                  -2.217
REMARK UNBOUND:                -1.253
REMARK  Name = CCCCCCCCCCCC1=C(O)C(=O)C=C(NCCCC)C1=O                                ZINC000106618713
REMARK  16 active torsions:
REMARK  status: ('A' for Active; 'I' for Inactive)
REMARK    1  A    between atoms: C_1  and  C_2
REMARK    2  A    between atoms: C_2  and  C_3
REMARK    3  A    between atoms: C_3  and  C_4
REMARK    4  A    between atoms: C_4  and  C_5
REMARK    5  A    between atoms: C_5  and  C_6
REMARK    6  A    between atoms: C_6  and  C_7
REMARK    7  A    between atoms: C_7  and  C_8
REMARK    8  A    between atoms: C_8  and  C_9
REMARK    9  A    between atoms: C_9  and  C_10
REMARK   10  A    between atoms: C_10  and  C_11
REMARK   11  A    between atoms: C_11  and  C_12
REMARK   12  A    between atoms: C_18  and  N_19
REMARK   13  A    between atoms: N_19  and  C_20
REMARK   14  A    between atoms: C_20  and  C_21
REMARK   15  A    between atoms: C_21  and  C_22
REMARK   16  A    between atoms: C_22  and  C_23
REMARK                            x       y       z     vdW  Elec       q    Type
REMARK                         _______ _______ _______ _____ _____    ______ ____
ROOT
ATOM      1  C   UNL     1       3.125   2.846 -24.031  0.00  0.00    -0.008 C 
ATOM      2  C   UNL     1       3.240   3.952 -23.357  0.00  0.00    +0.228 C 
ATOM      3  C   UNL     1       2.316   4.864 -23.440  0.00  0.00    +0.227 C 
ATOM      4  C   UNL     1       1.277   4.669 -24.197  0.00  0.00    +0.076 C 
ATOM      5  C   UNL     1       1.162   3.563 -24.870  0.00  0.00    +0.018 C 
ATOM      6  O   UNL     1       2.432   5.970 -22.767  0.00  0.00    -0.284 OA
ATOM      7  O   UNL     1       4.279   4.147 -22.601  0.00  0.00    -0.284 OA
ATOM      8  C   UNL     1       2.086   2.651 -24.787  0.00  0.00    -0.112 C 
ATOM      9  O   UNL     1       1.970   1.545 -25.460  0.00  0.00    -0.828 OA
ENDROOT
BRANCH   5  10
ATOM     10  N   UNL     1       0.123   3.368 -25.627  0.00  0.00    -0.344 N 
ATOM     11  H   UNL     1       0.241   3.103 -26.567  0.00  0.00    +0.146 HD
BRANCH  10  12
ATOM     12  C   UNL     1      -1.073   3.523 -25.141  0.00  0.00    +0.101 C 
BRANCH  12  13
ATOM     13  C   UNL     1      -2.109   3.426 -25.920  0.00  0.00    +0.018 C 
BRANCH  13  14
ATOM     14  C   UNL     1      -3.292   3.249 -25.410  0.00  0.00    -0.002 C 
ATOM     15  C   UNL     1      -4.135   4.238 -25.368  0.00  0.00    +0.004 C 
ENDBRANCH  13  14
ENDBRANCH  12  13
ENDBRANCH  10  12
ENDBRANCH   5  10
BRANCH   1  16
ATOM     16  C   UNL     1       4.048   1.935 -23.948  0.00  0.00    +0.038 C 
BRANCH  16  17
ATOM     17  C   UNL     1       3.811   0.826 -23.312  0.00  0.00    +0.005 C 
BRANCH  17  18
ATOM     18  C   UNL     1       4.182   0.695 -22.073  0.00  0.00    +0.000 C 
BRANCH  18  19
ATOM     19  C   UNL     1       3.295   0.493 -21.146  0.00  0.00    +0.000 C 
BRANCH  19  20
ATOM     20  C   UNL     1       2.631   1.495 -20.651  0.00  0.00    +0.000 C 
BRANCH  20  21
ATOM     21  C   UNL     1       1.338   1.425 -20.535  0.00  0.00    +0.000 C 
BRANCH  21  22
ATOM     22  C   UNL     1       0.576   1.758 -21.535  0.00  0.00    -0.000 C 
BRANCH  22  23
ATOM     23  C   UNL     1      -0.698   1.506 -21.493  0.00  0.00    -0.000 C 
BRANCH  23  24
ATOM     24  C   UNL     1      -1.556   2.444 -21.767  0.00  0.00    -0.000 C 
BRANCH  24  26
ATOM     25  C   UNL     1      -3.662   3.237 -21.710  0.00  0.00    +0.004 C 
ATOM     26  C   UNL     1      -2.798   2.315 -21.406  0.00  0.00    -0.003 C 
ENDBRANCH  24  26
ENDBRANCH  23  24
ENDBRANCH  22  23
ENDBRANCH  21  22
ENDBRANCH  20  21
ENDBRANCH  19  20
ENDBRANCH  18  19
ENDBRANCH  17  18
ENDBRANCH  16  17
ENDBRANCH   1  16
TORSDOF 14
ENDMDL
MODEL 5
REMARK VINA RESULT:    -7.330      1.014      2.416
REMARK INTER + INTRA:         -14.581
REMARK INTER:                 -12.999
REMARK INTRA:                  -1.582
REMARK UNBOUND:                -1.253
REMARK  Name = CCCCCCCCCCCC1=C(O)C(=O)C=C(NCCCC)C1=O                                ZINC000106618713
REMARK  16 active torsions:
REMARK  status: ('A' for Active; 'I' for Inactive)
REMARK    1  A    between atoms: C_1  and  C_2
REMARK    2  A    between atoms: C_2  and  C_3
REMARK    3  A    between atoms: C_3  and  C_4
REMARK    4  A    between atoms: C_4  and  C_5
REMARK    5  A    between atoms: C_5  and  C_6
REMARK    6  A    between atoms: C_6  and  C_7
REMARK    7  A    between atoms: C_7  and  C_8
REMARK    8  A    between atoms: C_8  and  C_9
REMARK    9  A    between atoms: C_9  and  C_10
REMARK   10  A    between atoms: C_10  and  C_11
REMARK   11  A    between atoms: C_11  and  C_12
REMARK   12  A    between atoms: C_18  and  N_19
REMARK   13  A    between atoms: N_19  and  C_20
REMARK   14  A    between atoms: C_20  and  C_21
REMARK   15  A    between atoms: C_21  and  C_22
REMARK   16  A    between atoms: C_22  and  C_23
REMARK                            x       y       z     vdW  Elec       q    Type
REMARK                         _______ _______ _______ _____ _____    ______ ____
ROOT
ATOM      1  C   UNL     1       0.701   3.558 -23.489  0.00  0.00    -0.008 C 
ATOM      2  C   UNL     1       0.825   2.282 -23.272  0.00  0.00    +0.228 C 
ATOM      3  C   UNL     1       1.994   1.778 -23.008  0.00  0.00    +0.227 C 
ATOM      4  C   UNL     1       3.039   2.550 -22.961  0.00  0.00    +0.076 C 
ATOM      5  C   UNL     1       2.915   3.826 -23.178  0.00  0.00    +0.018 C 
ATOM      6  O   UNL     1       2.118   0.502 -22.792  0.00  0.00    -0.284 OA
ATOM      7  O   UNL     1      -0.220   1.510 -23.319  0.00  0.00    -0.284 OA
ATOM      8  C   UNL     1       1.746   4.329 -23.442  0.00  0.00    -0.112 C 
ATOM      9  O   UNL     1       1.622   5.605 -23.658  0.00  0.00    -0.828 OA
ENDROOT
BRANCH   5  10
ATOM     10  N   UNL     1       3.960   4.597 -23.131  0.00  0.00    -0.344 N 
ATOM     11  H   UNL     1       3.926   5.496 -23.531  0.00  0.00    +0.146 HD
BRANCH  10  12
ATOM     12  C   UNL     1       5.049   4.182 -22.555  0.00  0.00    +0.101 C 
BRANCH  12  13
ATOM     13  C   UNL     1       6.129   4.905 -22.608  0.00  0.00    +0.018 C 
BRANCH  13  14
ATOM     14  C   UNL     1       6.892   4.857 -23.660  0.00  0.00    -0.002 C 
ATOM     15  C   UNL     1       8.007   5.524 -23.682  0.00  0.00    +0.004 C 
ENDBRANCH  13  14
ENDBRANCH  12  13
ENDBRANCH  10  12
ENDBRANCH   5  10
BRANCH   1  16
ATOM     16  C   UNL     1      -0.468   4.062 -23.752  0.00  0.00    +0.038 C 
BRANCH  16  17
ATOM     17  C   UNL     1      -1.049   4.841 -22.889  0.00  0.00    +0.005 C 
BRANCH  17  18
ATOM     18  C   UNL     1      -1.527   4.347 -21.785  0.00  0.00    +0.000 C 
BRANCH  18  19
ATOM     19  C   UNL     1      -2.415   3.399 -21.827  0.00  0.00    +0.000 C 
BRANCH  19  20
ATOM     20  C   UNL     1      -3.584   3.580 -21.290  0.00  0.00    +0.000 C 
BRANCH  20  21
ATOM     21  C   UNL     1      -4.637   3.036 -21.826  0.00  0.00    +0.000 C 
BRANCH  21  22
ATOM     22  C   UNL     1      -5.355   3.709 -22.675  0.00  0.00    -0.000 C 
BRANCH  22  23
ATOM     23  C   UNL     1      -5.200   3.518 -23.952  0.00  0.00    -0.000 C 
BRANCH  23  24
ATOM     24  C   UNL     1      -4.930   4.523 -24.732  0.00  0.00    -0.000 C 
BRANCH  24  26
ATOM     25  C   UNL     1      -3.404   3.585 -26.096  0.00  0.00    +0.004 C 
ATOM     26  C   UNL     1      -3.787   4.577 -25.349  0.00  0.00    -0.003 C 
ENDBRANCH  24  26
ENDBRANCH  23  24
ENDBRANCH  22  23
ENDBRANCH  21  22
ENDBRANCH  20  21
ENDBRANCH  19  20
ENDBRANCH  18  19
ENDBRANCH  17  18
ENDBRANCH  16  17
ENDBRANCH   1  16
TORSDOF 14
ENDMDL
MODEL 6
REMARK VINA RESULT:    -7.263      1.852      3.263
REMARK INTER + INTRA:         -14.460
REMARK INTER:                 -12.989
REMARK INTRA:                  -1.471
REMARK UNBOUND:                -1.253
REMARK  Name = CCCCCCCCCCCC1=C(O)C(=O)C=C(NCCCC)C1=O                                ZINC000106618713
REMARK  16 active torsions:
REMARK  status: ('A' for Active; 'I' for Inactive)
REMARK    1  A    between atoms: C_1  and  C_2
REMARK    2  A    between atoms: C_2  and  C_3
REMARK    3  A    between atoms: C_3  and  C_4
REMARK    4  A    between atoms: C_4  and  C_5
REMARK    5  A    between atoms: C_5  and  C_6
REMARK    6  A    between atoms: C_6  and  C_7
REMARK    7  A    between atoms: C_7  and  C_8
REMARK    8  A    between atoms: C_8  and  C_9
REMARK    9  A    between atoms: C_9  and  C_10
REMARK   10  A    between atoms: C_10  and  C_11
REMARK   11  A    between atoms: C_11  and  C_12
REMARK   12  A    between atoms: C_18  and  N_19
REMARK   13  A    between atoms: N_19  and  C_20
REMARK   14  A    between atoms: C_20  and  C_21
REMARK   15  A    between atoms: C_21  and  C_22
REMARK   16  A    between atoms: C_22  and  C_23
REMARK                            x       y       z     vdW  Elec       q    Type
REMARK                         _______ _______ _______ _____ _____    ______ ____
ROOT
ATOM      1  C   UNL     1       0.871   3.054 -23.064  0.00  0.00    -0.008 C 
ATOM      2  C   UNL     1       1.834   2.183 -23.117  0.00  0.00    +0.228 C 
ATOM      3  C   UNL     1       3.071   2.584 -23.163  0.00  0.00    +0.227 C 
ATOM      4  C   UNL     1       3.343   3.855 -23.157  0.00  0.00    +0.076 C 
ATOM      5  C   UNL     1       2.379   4.726 -23.104  0.00  0.00    +0.018 C 
ATOM      6  O   UNL     1       4.034   1.713 -23.216  0.00  0.00    -0.284 OA
ATOM      7  O   UNL     1       1.562   0.912 -23.123  0.00  0.00    -0.284 OA
ATOM      8  C   UNL     1       1.143   4.325 -23.058  0.00  0.00    -0.112 C 
ATOM      9  O   UNL     1       0.179   5.196 -23.005  0.00  0.00    -0.828 OA
ENDROOT
BRANCH   5  10
ATOM     10  N   UNL     1       2.651   5.997 -23.098  0.00  0.00    -0.344 N 
ATOM     11  H   UNL     1       2.025   6.636 -23.508  0.00  0.00    +0.146 HD
BRANCH  10  12
ATOM     12  C   UNL     1       3.750   6.423 -22.551  0.00  0.00    +0.101 C 
BRANCH  12  13
ATOM     13  C   UNL     1       3.862   7.672 -22.205  0.00  0.00    +0.018 C 
BRANCH  13  14
ATOM     14  C   UNL     1       4.574   7.997 -21.166  0.00  0.00    -0.002 C 
ATOM     15  C   UNL     1       4.206   8.991 -20.413  0.00  0.00    +0.004 C 
ENDBRANCH  13  14
ENDBRANCH  12  13
ENDBRANCH  10  12
ENDBRANCH   5  10
BRANCH   1  16
ATOM     16  C   UNL     1      -0.365   2.654 -23.018  0.00  0.00    +0.038 C 
BRANCH  16  17
ATOM     17  C   UNL     1      -0.808   2.033 -21.965  0.00  0.00    +0.005 C 
BRANCH  17  18
ATOM     18  C   UNL     1      -2.054   2.153 -21.615  0.00  0.00    +0.000 C 
BRANCH  18  19
ATOM     19  C   UNL     1      -2.474   3.257 -21.073  0.00  0.00    +0.000 C 
BRANCH  19  20
ATOM     20  C   UNL     1      -3.722   3.603 -21.185  0.00  0.00    +0.000 C 
BRANCH  20  21
ATOM     21  C   UNL     1      -4.469   3.056 -22.099  0.00  0.00    +0.000 C 
BRANCH  21  22
ATOM     22  C   UNL     1      -5.221   3.799 -22.854  0.00  0.00    -0.000 C 
BRANCH  22  23
ATOM     23  C   UNL     1      -5.007   3.850 -24.135  0.00  0.00    -0.000 C 
BRANCH  23  24
ATOM     24  C   UNL     1      -3.792   3.960 -24.587  0.00  0.00    -0.000 C 
BRANCH  24  26
ATOM     25  C   UNL     1      -3.035   3.570 -26.671  0.00  0.00    +0.004 C 
ATOM     26  C   UNL     1      -3.357   3.132 -25.490  0.00  0.00    -0.003 C 
ENDBRANCH  24  26
ENDBRANCH  23  24
ENDBRANCH  22  23
ENDBRANCH  21  22
ENDBRANCH  20  21
ENDBRANCH  19  20
ENDBRANCH  18  19
ENDBRANCH  17  18
ENDBRANCH  16  17
ENDBRANCH   1  16
TORSDOF 14
ENDMDL
MODEL 7
REMARK VINA RESULT:    -6.979      2.760      7.240
REMARK INTER + INTRA:         -13.944
REMARK INTER:                 -12.295
REMARK INTRA:                  -1.648
REMARK UNBOUND:                -1.253
REMARK  Name = CCCCCCCCCCCC1=C(O)C(=O)C=C(NCCCC)C1=O                                ZINC000106618713
REMARK  16 active torsions:
REMARK  status: ('A' for Active; 'I' for Inactive)
REMARK    1  A    between atoms: C_1  and  C_2
REMARK    2  A    between atoms: C_2  and  C_3
REMARK    3  A    between atoms: C_3  and  C_4
REMARK    4  A    between atoms: C_4  and  C_5
REMARK    5  A    between atoms: C_5  and  C_6
REMARK    6  A    between atoms: C_6  and  C_7
REMARK    7  A    between atoms: C_7  and  C_8
REMARK    8  A    between atoms: C_8  and  C_9
REMARK    9  A    between atoms: C_9  and  C_10
REMARK   10  A    between atoms: C_10  and  C_11
REMARK   11  A    between atoms: C_11  and  C_12
REMARK   12  A    between atoms: C_18  and  N_19
REMARK   13  A    between atoms: N_19  and  C_20
REMARK   14  A    between atoms: C_20  and  C_21
REMARK   15  A    between atoms: C_21  and  C_22
REMARK   16  A    between atoms: C_22  and  C_23
REMARK                            x       y       z     vdW  Elec       q    Type
REMARK                         _______ _______ _______ _____ _____    ______ ____
ROOT
ATOM      1  C   UNL     1      -3.196   3.311 -21.796  0.00  0.00    -0.008 C 
ATOM      2  C   UNL     1      -4.219   2.787 -21.189  0.00  0.00    +0.228 C 
ATOM      3  C   UNL     1      -5.397   2.842 -21.736  0.00  0.00    +0.227 C 
ATOM      4  C   UNL     1      -5.553   3.420 -22.889  0.00  0.00    +0.076 C 
ATOM      5  C   UNL     1      -4.530   3.945 -23.497  0.00  0.00    +0.018 C 
ATOM      6  O   UNL     1      -6.420   2.317 -21.129  0.00  0.00    -0.284 OA
ATOM      7  O   UNL     1      -4.063   2.208 -20.036  0.00  0.00    -0.284 OA
ATOM      8  C   UNL     1      -3.351   3.890 -22.950  0.00  0.00    -0.112 C 
ATOM      9  O   UNL     1      -2.328   4.415 -23.557  0.00  0.00    -0.828 OA
ENDROOT
BRANCH   5  10
ATOM     10  N   UNL     1      -4.685   4.524 -24.650  0.00  0.00    -0.344 N 
ATOM     11  H   UNL     1      -4.492   5.484 -24.749  0.00  0.00    +0.146 HD
BRANCH  10  12
ATOM     12  C   UNL     1      -5.095   3.835 -25.673  0.00  0.00    +0.101 C 
BRANCH  12  13
ATOM     13  C   UNL     1      -4.279   3.024 -26.280  0.00  0.00    +0.018 C 
BRANCH  13  14
ATOM     14  C   UNL     1      -3.298   3.500 -26.989  0.00  0.00    -0.002 C 
ATOM     15  C   UNL     1      -2.084   3.461 -26.525  0.00  0.00    +0.004 C 
ENDBRANCH  13  14
ENDBRANCH  12  13
ENDBRANCH  10  12
ENDBRANCH   5  10
BRANCH   1  16
ATOM     16  C   UNL     1      -2.018   3.257 -21.250  0.00  0.00    +0.038 C 
BRANCH  16  17
ATOM     17  C   UNL     1      -1.038   2.677 -21.876  0.00  0.00    +0.005 C 
BRANCH  17  18
ATOM     18  C   UNL     1      -0.493   1.605 -21.381  0.00  0.00    +0.000 C 
BRANCH  18  19
ATOM     19  C   UNL     1       0.627   1.160 -21.867  0.00  0.00    +0.000 C 
BRANCH  19  20
ATOM     20  C   UNL     1       1.758   1.603 -21.406  0.00  0.00    +0.000 C 
BRANCH  20  21
ATOM     21  C   UNL     1       2.783   1.717 -22.198  0.00  0.00    +0.000 C 
BRANCH  21  22
ATOM     22  C   UNL     1       3.359   2.872 -22.354  0.00  0.00    -0.000 C 
BRANCH  22  23
ATOM     23  C   UNL     1       3.084   3.600 -23.395  0.00  0.00    -0.000 C 
BRANCH  23  24
ATOM     24  C   UNL     1       2.430   4.716 -23.254  0.00  0.00    -0.000 C 
BRANCH  24  26
ATOM     25  C   UNL     1       1.018   4.210 -24.933  0.00  0.00    +0.004 C 
ATOM     26  C   UNL     1       1.288   4.880 -23.852  0.00  0.00    -0.003 C 
ENDBRANCH  24  26
ENDBRANCH  23  24
ENDBRANCH  22  23
ENDBRANCH  21  22
ENDBRANCH  20  21
ENDBRANCH  19  20
ENDBRANCH  18  19
ENDBRANCH  17  18
ENDBRANCH  16  17
ENDBRANCH   1  16
TORSDOF 14
ENDMDL
MODEL 8
REMARK VINA RESULT:    -6.692      2.110      3.454
REMARK INTER + INTRA:         -13.421
REMARK INTER:                 -12.236
REMARK INTRA:                  -1.185
REMARK UNBOUND:                -1.253
REMARK  Name = CCCCCCCCCCCC1=C(O)C(=O)C=C(NCCCC)C1=O                                ZINC000106618713
REMARK  16 active torsions:
REMARK  status: ('A' for Active; 'I' for Inactive)
REMARK    1  A    between atoms: C_1  and  C_2
REMARK    2  A    between atoms: C_2  and  C_3
REMARK    3  A    between atoms: C_3  and  C_4
REMARK    4  A    between atoms: C_4  and  C_5
REMARK    5  A    between atoms: C_5  and  C_6
REMARK    6  A    between atoms: C_6  and  C_7
REMARK    7  A    between atoms: C_7  and  C_8
REMARK    8  A    between atoms: C_8  and  C_9
REMARK    9  A    between atoms: C_9  and  C_10
REMARK   10  A    between atoms: C_10  and  C_11
REMARK   11  A    between atoms: C_11  and  C_12
REMARK   12  A    between atoms: C_18  and  N_19
REMARK   13  A    between atoms: N_19  and  C_20
REMARK   14  A    between atoms: C_20  and  C_21
REMARK   15  A    between atoms: C_21  and  C_22
REMARK   16  A    between atoms: C_22  and  C_23
REMARK                            x       y       z     vdW  Elec       q    Type
REMARK                         _______ _______ _______ _____ _____    ______ ____
ROOT
ATOM      1  C   UNL     1       3.725   2.153 -23.288  0.00  0.00    -0.008 C 
ATOM      2  C   UNL     1       3.268   1.220 -22.507  0.00  0.00    +0.228 C 
ATOM      3  C   UNL     1       3.920   0.898 -21.429  0.00  0.00    +0.227 C 
ATOM      4  C   UNL     1       5.027   1.510 -21.132  0.00  0.00    +0.076 C 
ATOM      5  C   UNL     1       5.484   2.443 -21.913  0.00  0.00    +0.018 C 
ATOM      6  O   UNL     1       3.463  -0.035 -20.648  0.00  0.00    -0.284 OA
ATOM      7  O   UNL     1       2.160   0.608 -22.804  0.00  0.00    -0.284 OA
ATOM      8  C   UNL     1       4.833   2.765 -22.991  0.00  0.00    -0.112 C 
ATOM      9  O   UNL     1       5.290   3.698 -23.772  0.00  0.00    -0.828 OA
ENDROOT
BRANCH   5  10
ATOM     10  N   UNL     1       6.592   3.055 -21.616  0.00  0.00    -0.344 N 
ATOM     11  H   UNL     1       7.413   2.861 -22.123  0.00  0.00    +0.146 HD
BRANCH  10  12
ATOM     12  C   UNL     1       6.616   3.923 -20.648  0.00  0.00    +0.101 C 
BRANCH  12  13
ATOM     13  C   UNL     1       7.575   4.799 -20.584  0.00  0.00    +0.018 C 
BRANCH  13  14
ATOM     14  C   UNL     1       7.318   6.018 -20.212  0.00  0.00    -0.002 C 
ATOM     15  C   UNL     1       7.298   6.974 -21.094  0.00  0.00    +0.004 C 
ENDBRANCH  13  14
ENDBRANCH  12  13
ENDBRANCH  10  12
ENDBRANCH   5  10
BRANCH   1  16
ATOM     16  C   UNL     1       3.075   2.475 -24.366  0.00  0.00    +0.038 C 
BRANCH  16  17
ATOM     17  C   UNL     1       2.252   3.481 -24.353  0.00  0.00    +0.005 C 
BRANCH  17  18
ATOM     18  C   UNL     1       1.163   3.441 -25.063  0.00  0.00    +0.000 C 
BRANCH  18  19
ATOM     19  C   UNL     1       0.034   3.824 -24.547  0.00  0.00    +0.000 C 
BRANCH  19  20
ATOM     20  C   UNL     1      -0.007   4.871 -23.777  0.00  0.00    +0.000 C 
BRANCH  20  21
ATOM     21  C   UNL     1      -0.841   4.913 -22.780  0.00  0.00    +0.000 C 
BRANCH  21  22
ATOM     22  C   UNL     1      -1.798   4.038 -22.696  0.00  0.00    -0.000 C 
BRANCH  22  23
ATOM     23  C   UNL     1      -2.384   3.823 -21.556  0.00  0.00    -0.000 C 
BRANCH  23  24
ATOM     24  C   UNL     1      -3.318   2.924 -21.464  0.00  0.00    -0.000 C 
BRANCH  24  26
ATOM     25  C   UNL     1      -5.471   3.293 -22.010  0.00  0.00    +0.004 C 
ATOM     26  C   UNL     1      -4.279   2.892 -22.339  0.00  0.00    -0.003 C 
ENDBRANCH  24  26
ENDBRANCH  23  24
ENDBRANCH  22  23
ENDBRANCH  21  22
ENDBRANCH  20  21
ENDBRANCH  19  20
ENDBRANCH  18  19
ENDBRANCH  17  18
ENDBRANCH  16  17
ENDBRANCH   1  16
TORSDOF 14
ENDMDL
MODEL 9
REMARK VINA RESULT:    -6.608      1.523      3.666
REMARK INTER + INTRA:         -13.270
REMARK INTER:                 -12.017
REMARK INTRA:                  -1.253
REMARK UNBOUND:                -1.253
REMARK  Name = CCCCCCCCCCCC1=C(O)C(=O)C=C(NCCCC)C1=O                                ZINC000106618713
REMARK  16 active torsions:
REMARK  status: ('A' for Active; 'I' for Inactive)
REMARK    1  A    between atoms: C_1  and  C_2
REMARK    2  A    between atoms: C_2  and  C_3
REMARK    3  A    between atoms: C_3  and  C_4
REMARK    4  A    between atoms: C_4  and  C_5
REMARK    5  A    between atoms: C_5  and  C_6
REMARK    6  A    between atoms: C_6  and  C_7
REMARK    7  A    between atoms: C_7  and  C_8
REMARK    8  A    between atoms: C_8  and  C_9
REMARK    9  A    between atoms: C_9  and  C_10
REMARK   10  A    between atoms: C_10  and  C_11
REMARK   11  A    between atoms: C_11  and  C_12
REMARK   12  A    between atoms: C_18  and  N_19
REMARK   13  A    between atoms: N_19  and  C_20
REMARK   14  A    between atoms: C_20  and  C_21
REMARK   15  A    between atoms: C_21  and  C_22
REMARK   16  A    between atoms: C_22  and  C_23
REMARK                            x       y       z     vdW  Elec       q    Type
REMARK                         _______ _______ _______ _____ _____    ______ ____
ROOT
ATOM      1  C   UNL     1       2.348   2.792 -22.910  0.00  0.00    -0.008 C 
ATOM      2  C   UNL     1       1.954   4.011 -23.135  0.00  0.00    +0.228 C 
ATOM      3  C   UNL     1       2.825   4.973 -23.207  0.00  0.00    +0.227 C 
ATOM      4  C   UNL     1       4.090   4.717 -23.056  0.00  0.00    +0.076 C 
ATOM      5  C   UNL     1       4.485   3.499 -22.832  0.00  0.00    +0.018 C 
ATOM      6  O   UNL     1       2.431   6.191 -23.432  0.00  0.00    -0.284 OA
ATOM      7  O   UNL     1       0.688   4.267 -23.286  0.00  0.00    -0.284 OA
ATOM      8  C   UNL     1       3.613   2.536 -22.759  0.00  0.00    -0.112 C 
ATOM      9  O   UNL     1       4.008   1.318 -22.534  0.00  0.00    -0.828 OA
ENDROOT
BRANCH   5  10
ATOM     10  N   UNL     1       5.750   3.243 -22.680  0.00  0.00    -0.344 N 
ATOM     11  H   UNL     1       6.105   2.356 -22.919  0.00  0.00    +0.146 HD
BRANCH  10  12
ATOM     12  C   UNL     1       6.547   4.157 -22.213  0.00  0.00    +0.101 C 
BRANCH  12  13
ATOM     13  C   UNL     1       7.055   4.032 -21.023  0.00  0.00    +0.018 C 
BRANCH  13  14
ATOM     14  C   UNL     1       7.530   5.073 -20.406  0.00  0.00    -0.002 C 
ATOM     15  C   UNL     1       6.895   6.206 -20.462  0.00  0.00    +0.004 C 
ENDBRANCH  13  14
ENDBRANCH  12  13
ENDBRANCH  10  12
ENDBRANCH   5  10
BRANCH   1  16
ATOM     16  C   UNL     1       1.477   1.830 -22.837  0.00  0.00    +0.038 C 
BRANCH  16  17
ATOM     17  C   UNL     1       0.966   1.503 -21.688  0.00  0.00    +0.005 C 
BRANCH  17  18
ATOM     18  C   UNL     1      -0.306   1.249 -21.591  0.00  0.00    +0.000 C 
BRANCH  18  19
ATOM     19  C   UNL     1      -1.174   2.076 -22.092  0.00  0.00    +0.000 C 
BRANCH  19  20
ATOM     20  C   UNL     1      -2.081   2.608 -21.328  0.00  0.00    +0.000 C 
BRANCH  20  21
ATOM     21  C   UNL     1      -3.339   2.507 -21.643  0.00  0.00    +0.000 C 
BRANCH  21  22
ATOM     22  C   UNL     1      -3.936   3.484 -22.257  0.00  0.00    -0.000 C 
BRANCH  22  23
ATOM     23  C   UNL     1      -4.074   3.452 -23.549  0.00  0.00    -0.000 C 
BRANCH  23  24
ATOM     24  C   UNL     1      -3.322   4.198 -24.303  0.00  0.00    -0.000 C 
BRANCH  24  26
ATOM     25  C   UNL     1      -3.440   3.377 -26.395  0.00  0.00    +0.004 C 
ATOM     26  C   UNL     1      -2.738   3.688 -25.346  0.00  0.00    -0.003 C 
ENDBRANCH  24  26
ENDBRANCH  23  24
ENDBRANCH  22  23
ENDBRANCH  21  22
ENDBRANCH  20  21
ENDBRANCH  19  20
ENDBRANCH  18  19
ENDBRANCH  17  18
ENDBRANCH  16  17
ENDBRANCH   1  16
TORSDOF 14
ENDMDL
