MODEL 1
REMARK VINA RESULT:    -9.802      0.000      0.000
REMARK INTER + INTRA:         -11.428
REMARK INTER:                 -10.908
REMARK INTRA:                  -0.520
REMARK UNBOUND:                -0.480
REMARK  Name = ZINC000000338216
REMARK  4 active torsions:
REMARK  status: ('A' for Active; 'I' for Inactive)
REMARK    1  A    between atoms: C_1  and  C_2
REMARK    2  A    between atoms: C_3  and  O_4
REMARK    3  A    between atoms: C_6  and  O_7
REMARK    4  A    between atoms: C_12  and  C_13
REMARK                            x       y       z     vdW  Elec       q    Type
REMARK                         _______ _______ _______ _____ _____    ______ ____
ROOT
ATOM      1  C   UNL     1      -4.032   2.690 -21.021  0.00  0.00    +0.051 C 
ATOM      2  C   UNL     1      -4.192   3.061 -22.257  0.00  0.00    +0.034 A 
ATOM      3  C   UNL     1      -5.363   3.439 -22.675  0.00  0.00    +0.127 A 
ATOM      4  C   UNL     1      -5.524   3.810 -23.911  0.00  0.00    +0.092 A 
ATOM      5  C   UNL     1      -4.512   3.801 -24.728  0.00  0.00    +0.135 A 
ATOM      6  C   UNL     1      -3.342   3.422 -24.310  0.00  0.00    +0.106 A 
ATOM      7  C   UNL     1      -2.331   3.414 -25.128  0.00  0.00    +0.197 A 
ATOM      8  C   UNL     1      -1.160   3.035 -24.709  0.00  0.00    +0.098 A 
ATOM      9  C   UNL     1      -0.999   2.665 -23.473  0.00  0.00    +0.139 A 
ATOM     10  O   UNL     1      -2.011   2.674 -22.656  0.00  0.00    -0.454 OA
ATOM     11  O   UNL     1      -2.492   3.784 -26.363  0.00  0.00    -0.287 OA
ATOM     12  C   UNL     1      -3.181   3.052 -23.074  0.00  0.00    +0.149 A 
ENDROOT
BRANCH   9  13
ATOM     13  C   UNL     1       0.172   2.286 -23.054  0.00  0.00    +0.017 A 
ATOM     14  C   UNL     1       0.306   1.789 -21.861  0.00  0.00    +0.011 A 
ATOM     15  C   UNL     1       1.477   1.410 -21.442  0.00  0.00    +0.001 A 
ATOM     16  C   UNL     1       2.514   1.528 -22.217  0.00  0.00    +0.000 A 
ATOM     17  C   UNL     1       2.379   2.025 -23.411  0.00  0.00    +0.001 A 
ATOM     18  C   UNL     1       1.208   2.404 -23.830  0.00  0.00    +0.011 A 
ENDBRANCH   9  13
BRANCH   5  19
ATOM     19  O   UNL     1      -4.673   4.171 -25.964  0.00  0.00    -0.506 OA
ATOM     20  H   UNL     1      -4.022   4.699 -26.383  0.00  0.00    +0.292 HD
ENDBRANCH   5  19
BRANCH   3  21
ATOM     21  O   UNL     1      -6.374   3.448 -21.857  0.00  0.00    -0.506 OA
ATOM     22  H   UNL     1      -7.211   3.141 -22.145  0.00  0.00    +0.292 HD
ENDBRANCH   3  21
TORSDOF 3
ENDMDL
MODEL 2
REMARK VINA RESULT:    -9.788      1.106      2.969
REMARK INTER + INTRA:         -11.412
REMARK INTER:                 -10.910
REMARK INTRA:                  -0.502
REMARK UNBOUND:                -0.480
REMARK  Name = ZINC000000338216
REMARK  4 active torsions:
REMARK  status: ('A' for Active; 'I' for Inactive)
REMARK    1  A    between atoms: C_1  and  C_2
REMARK    2  A    between atoms: C_3  and  O_4
REMARK    3  A    between atoms: C_6  and  O_7
REMARK    4  A    between atoms: C_12  and  C_13
REMARK                            x       y       z     vdW  Elec       q    Type
REMARK                         _______ _______ _______ _____ _____    ______ ____
ROOT
ATOM      1  C   UNL     1      -2.387   3.598 -25.890  0.00  0.00    +0.051 C 
ATOM      2  C   UNL     1      -3.149   3.569 -24.837  0.00  0.00    +0.034 A 
ATOM      3  C   UNL     1      -4.417   3.833 -24.943  0.00  0.00    +0.127 A 
ATOM      4  C   UNL     1      -5.179   3.805 -23.891  0.00  0.00    +0.092 A 
ATOM      5  C   UNL     1      -4.671   3.511 -22.730  0.00  0.00    +0.135 A 
ATOM      6  C   UNL     1      -3.403   3.246 -22.623  0.00  0.00    +0.106 A 
ATOM      7  C   UNL     1      -2.896   2.953 -21.462  0.00  0.00    +0.197 A 
ATOM      8  C   UNL     1      -1.627   2.688 -21.355  0.00  0.00    +0.098 A 
ATOM      9  C   UNL     1      -0.866   2.718 -22.409  0.00  0.00    +0.139 A 
ATOM     10  O   UNL     1      -1.374   3.011 -23.569  0.00  0.00    -0.454 OA
ATOM     11  O   UNL     1      -3.657   2.924 -20.409  0.00  0.00    -0.287 OA
ATOM     12  C   UNL     1      -2.642   3.276 -23.676  0.00  0.00    +0.149 A 
ENDROOT
BRANCH   9  13
ATOM     13  C   UNL     1       0.402   2.453 -22.302  0.00  0.00    +0.017 A 
ATOM     14  C   UNL     1       1.270   3.149 -22.975  0.00  0.00    +0.011 A 
ATOM     15  C   UNL     1       2.539   2.885 -22.868  0.00  0.00    +0.001 A 
ATOM     16  C   UNL     1       2.939   1.925 -22.089  0.00  0.00    +0.000 A 
ATOM     17  C   UNL     1       2.071   1.229 -21.416  0.00  0.00    +0.001 A 
ATOM     18  C   UNL     1       0.803   1.493 -21.523  0.00  0.00    +0.011 A 
ENDBRANCH   9  13
BRANCH   5  19
ATOM     19  O   UNL     1      -5.432   3.482 -21.676  0.00  0.00    -0.506 OA
ATOM     20  H   UNL     1      -5.800   4.276 -21.342  0.00  0.00    +0.292 HD
ENDBRANCH   5  19
BRANCH   3  21
ATOM     21  O   UNL     1      -4.924   4.127 -26.104  0.00  0.00    -0.506 OA
ATOM     22  H   UNL     1      -5.781   4.503 -26.159  0.00  0.00    +0.292 HD
ENDBRANCH   3  21
TORSDOF 3
ENDMDL
MODEL 3
REMARK VINA RESULT:    -9.515      2.288      6.629
REMARK INTER + INTRA:         -11.107
REMARK INTER:                 -10.587
REMARK INTRA:                  -0.520
REMARK UNBOUND:                -0.480
REMARK  Name = ZINC000000338216
REMARK  4 active torsions:
REMARK  status: ('A' for Active; 'I' for Inactive)
REMARK    1  A    between atoms: C_1  and  C_2
REMARK    2  A    between atoms: C_3  and  O_4
REMARK    3  A    between atoms: C_6  and  O_7
REMARK    4  A    between atoms: C_12  and  C_13
REMARK                            x       y       z     vdW  Elec       q    Type
REMARK                         _______ _______ _______ _____ _____    ______ ____
ROOT
ATOM      1  C   UNL     1       1.823   2.677 -25.475  0.00  0.00    +0.051 C 
ATOM      2  C   UNL     1       2.025   2.209 -24.279  0.00  0.00    +0.034 A 
ATOM      3  C   UNL     1       3.206   1.791 -23.936  0.00  0.00    +0.127 A 
ATOM      4  C   UNL     1       3.409   1.323 -22.741  0.00  0.00    +0.092 A 
ATOM      5  C   UNL     1       2.429   1.274 -21.887  0.00  0.00    +0.135 A 
ATOM      6  C   UNL     1       1.247   1.692 -22.230  0.00  0.00    +0.106 A 
ATOM      7  C   UNL     1       0.268   1.643 -21.377  0.00  0.00    +0.197 A 
ATOM      8  C   UNL     1      -0.915   2.062 -21.720  0.00  0.00    +0.098 A 
ATOM      9  C   UNL     1      -1.117   2.530 -22.917  0.00  0.00    +0.139 A 
ATOM     10  O   UNL     1      -0.136   2.579 -23.769  0.00  0.00    -0.454 OA
ATOM     11  O   UNL     1       0.470   1.175 -20.182  0.00  0.00    -0.287 OA
ATOM     12  C   UNL     1       1.045   2.160 -23.426  0.00  0.00    +0.149 A 
ENDROOT
BRANCH   9  13
ATOM     13  C   UNL     1      -2.299   2.949 -23.260  0.00  0.00    +0.017 A 
ATOM     14  C   UNL     1      -2.528   3.315 -24.486  0.00  0.00    +0.011 A 
ATOM     15  C   UNL     1      -3.710   3.734 -24.830  0.00  0.00    +0.001 A 
ATOM     16  C   UNL     1      -4.662   3.787 -23.947  0.00  0.00    +0.000 A 
ATOM     17  C   UNL     1      -4.433   3.421 -22.720  0.00  0.00    +0.001 A 
ATOM     18  C   UNL     1      -3.251   3.002 -22.377  0.00  0.00    +0.011 A 
ENDBRANCH   9  13
BRANCH   5  19
ATOM     19  O   UNL     1       2.631   0.806 -20.691  0.00  0.00    -0.506 OA
ATOM     20  H   UNL     1       2.394  -0.078 -20.488  0.00  0.00    +0.292 HD
ENDBRANCH   5  19
BRANCH   3  21
ATOM     21  O   UNL     1       4.187   1.839 -24.790  0.00  0.00    -0.506 OA
ATOM     22  H   UNL     1       5.019   2.180 -24.527  0.00  0.00    +0.292 HD
ENDBRANCH   3  21
TORSDOF 3
ENDMDL
MODEL 4
REMARK VINA RESULT:    -8.972      2.284      5.882
REMARK INTER + INTRA:         -10.501
REMARK INTER:                  -9.986
REMARK INTRA:                  -0.515
REMARK UNBOUND:                -0.480
REMARK  Name = ZINC000000338216
REMARK  4 active torsions:
REMARK  status: ('A' for Active; 'I' for Inactive)
REMARK    1  A    between atoms: C_1  and  C_2
REMARK    2  A    between atoms: C_3  and  O_4
REMARK    3  A    between atoms: C_6  and  O_7
REMARK    4  A    between atoms: C_12  and  C_13
REMARK                            x       y       z     vdW  Elec       q    Type
REMARK                         _______ _______ _______ _____ _____    ______ ____
ROOT
ATOM      1  C   UNL     1       0.108   1.083 -21.036  0.00  0.00    +0.051 C 
ATOM      2  C   UNL     1       0.913   1.868 -21.688  0.00  0.00    +0.034 A 
ATOM      3  C   UNL     1       2.198   1.764 -21.522  0.00  0.00    +0.127 A 
ATOM      4  C   UNL     1       3.004   2.549 -22.173  0.00  0.00    +0.092 A 
ATOM      5  C   UNL     1       2.524   3.438 -22.993  0.00  0.00    +0.135 A 
ATOM      6  C   UNL     1       1.240   3.541 -23.159  0.00  0.00    +0.106 A 
ATOM      7  C   UNL     1       0.760   4.429 -23.978  0.00  0.00    +0.197 A 
ATOM      8  C   UNL     1      -0.525   4.533 -24.146  0.00  0.00    +0.098 A 
ATOM      9  C   UNL     1      -1.331   3.747 -23.493  0.00  0.00    +0.139 A 
ATOM     10  O   UNL     1      -0.851   2.859 -22.674  0.00  0.00    -0.454 OA
ATOM     11  O   UNL     1       1.566   5.214 -24.630  0.00  0.00    -0.287 OA
ATOM     12  C   UNL     1       0.434   2.756 -22.507  0.00  0.00    +0.149 A 
ENDROOT
BRANCH   9  13
ATOM     13  C   UNL     1      -2.616   3.851 -23.660  0.00  0.00    +0.017 A 
ATOM     14  C   UNL     1      -3.428   3.398 -22.752  0.00  0.00    +0.011 A 
ATOM     15  C   UNL     1      -4.713   3.501 -22.918  0.00  0.00    +0.001 A 
ATOM     16  C   UNL     1      -5.186   4.057 -23.994  0.00  0.00    +0.000 A 
ATOM     17  C   UNL     1      -4.374   4.511 -24.903  0.00  0.00    +0.001 A 
ATOM     18  C   UNL     1      -3.089   4.407 -24.736  0.00  0.00    +0.011 A 
ENDBRANCH   9  13
BRANCH   5  19
ATOM     19  O   UNL     1       3.330   4.222 -23.645  0.00  0.00    -0.506 OA
ATOM     20  H   UNL     1       3.688   3.948 -24.466  0.00  0.00    +0.292 HD
ENDBRANCH   5  19
BRANCH   3  21
ATOM     21  O   UNL     1       2.678   0.876 -20.702  0.00  0.00    -0.506 OA
ATOM     22  H   UNL     1       3.489   0.449 -20.897  0.00  0.00    +0.292 HD
ENDBRANCH   3  21
TORSDOF 3
ENDMDL
MODEL 5
REMARK VINA RESULT:    -8.659      3.178      6.751
REMARK INTER + INTRA:         -10.151
REMARK INTER:                  -9.656
REMARK INTRA:                  -0.495
REMARK UNBOUND:                -0.480
REMARK  Name = ZINC000000338216
REMARK  4 active torsions:
REMARK  status: ('A' for Active; 'I' for Inactive)
REMARK    1  A    between atoms: C_1  and  C_2
REMARK    2  A    between atoms: C_3  and  O_4
REMARK    3  A    between atoms: C_6  and  O_7
REMARK    4  A    between atoms: C_12  and  C_13
REMARK                            x       y       z     vdW  Elec       q    Type
REMARK                         _______ _______ _______ _____ _____    ______ ____
ROOT
ATOM      1  C   UNL     1       2.633   0.520 -22.854  0.00  0.00    +0.051 C 
ATOM      2  C   UNL     1       3.156   1.708 -22.941  0.00  0.00    +0.034 A 
ATOM      3  C   UNL     1       4.447   1.851 -22.940  0.00  0.00    +0.127 A 
ATOM      4  C   UNL     1       4.971   3.038 -23.027  0.00  0.00    +0.092 A 
ATOM      5  C   UNL     1       4.200   4.082 -23.114  0.00  0.00    +0.135 A 
ATOM      6  C   UNL     1       2.909   3.939 -23.115  0.00  0.00    +0.106 A 
ATOM      7  C   UNL     1       2.139   4.983 -23.203  0.00  0.00    +0.197 A 
ATOM      8  C   UNL     1       0.847   4.840 -23.204  0.00  0.00    +0.098 A 
ATOM      9  C   UNL     1       0.324   3.652 -23.117  0.00  0.00    +0.139 A 
ATOM     10  O   UNL     1       1.095   2.608 -23.029  0.00  0.00    -0.454 OA
ATOM     11  O   UNL     1       2.661   6.170 -23.289  0.00  0.00    -0.287 OA
ATOM     12  C   UNL     1       2.386   2.752 -23.029  0.00  0.00    +0.149 A 
ENDROOT
BRANCH   9  13
ATOM     13  C   UNL     1      -0.968   3.508 -23.118  0.00  0.00    +0.017 A 
ATOM     14  C   UNL     1      -1.540   2.766 -22.217  0.00  0.00    +0.011 A 
ATOM     15  C   UNL     1      -2.832   2.622 -22.218  0.00  0.00    +0.001 A 
ATOM     16  C   UNL     1      -3.552   3.221 -23.119  0.00  0.00    +0.000 A 
ATOM     17  C   UNL     1      -2.979   3.964 -24.021  0.00  0.00    +0.001 A 
ATOM     18  C   UNL     1      -1.688   4.107 -24.020  0.00  0.00    +0.011 A 
ENDBRANCH   9  13
BRANCH   5  19
ATOM     19  O   UNL     1       4.723   5.270 -23.201  0.00  0.00    -0.506 OA
ATOM     20  H   UNL     1       5.445   5.423 -23.778  0.00  0.00    +0.292 HD
ENDBRANCH   5  19
BRANCH   3  21
ATOM     21  O   UNL     1       5.218   0.807 -22.852  0.00  0.00    -0.506 OA
ATOM     22  H   UNL     1       4.925  -0.020 -23.182  0.00  0.00    +0.292 HD
ENDBRANCH   3  21
TORSDOF 3
ENDMDL
MODEL 6
REMARK VINA RESULT:    -8.354      1.910      3.182
REMARK INTER + INTRA:          -9.810
REMARK INTER:                  -9.315
REMARK INTRA:                  -0.495
REMARK UNBOUND:                -0.480
REMARK  Name = ZINC000000338216
REMARK  4 active torsions:
REMARK  status: ('A' for Active; 'I' for Inactive)
REMARK    1  A    between atoms: C_1  and  C_2
REMARK    2  A    between atoms: C_3  and  O_4
REMARK    3  A    between atoms: C_6  and  O_7
REMARK    4  A    between atoms: C_12  and  C_13
REMARK                            x       y       z     vdW  Elec       q    Type
REMARK                         _______ _______ _______ _____ _____    ______ ____
ROOT
ATOM      1  C   UNL     1      -1.565   2.175 -21.260  0.00  0.00    +0.051 C 
ATOM      2  C   UNL     1      -1.413   2.526 -22.503  0.00  0.00    +0.034 A 
ATOM      3  C   UNL     1      -2.444   2.883 -23.208  0.00  0.00    +0.127 A 
ATOM      4  C   UNL     1      -2.293   3.234 -24.451  0.00  0.00    +0.092 A 
ATOM      5  C   UNL     1      -1.108   3.227 -24.988  0.00  0.00    +0.135 A 
ATOM      6  C   UNL     1      -0.077   2.870 -24.282  0.00  0.00    +0.106 A 
ATOM      7  C   UNL     1       1.107   2.863 -24.819  0.00  0.00    +0.197 A 
ATOM      8  C   UNL     1       2.139   2.505 -24.114  0.00  0.00    +0.098 A 
ATOM      9  C   UNL     1       1.987   2.154 -22.871  0.00  0.00    +0.139 A 
ATOM     10  O   UNL     1       0.802   2.161 -22.334  0.00  0.00    -0.454 OA
ATOM     11  O   UNL     1       1.259   3.213 -26.062  0.00  0.00    -0.287 OA
ATOM     12  C   UNL     1      -0.229   2.519 -23.040  0.00  0.00    +0.149 A 
ENDROOT
BRANCH   9  13
ATOM     13  C   UNL     1       3.018   1.796 -22.165  0.00  0.00    +0.017 A 
ATOM     14  C   UNL     1       2.981   0.698 -21.472  0.00  0.00    +0.011 A 
ATOM     15  C   UNL     1       4.013   0.339 -20.766  0.00  0.00    +0.001 A 
ATOM     16  C   UNL     1       5.081   1.080 -20.754  0.00  0.00    +0.000 A 
ATOM     17  C   UNL     1       5.117   2.180 -21.448  0.00  0.00    +0.001 A 
ATOM     18  C   UNL     1       4.086   2.537 -22.153  0.00  0.00    +0.011 A 
ENDBRANCH   9  13
BRANCH   5  19
ATOM     19  O   UNL     1      -0.956   3.578 -26.230  0.00  0.00    -0.506 OA
ATOM     20  H   UNL     1      -1.701   3.824 -26.742  0.00  0.00    +0.292 HD
ENDBRANCH   5  19
BRANCH   3  21
ATOM     21  O   UNL     1      -3.629   2.891 -22.671  0.00  0.00    -0.506 OA
ATOM     22  H   UNL     1      -4.125   2.098 -22.623  0.00  0.00    +0.292 HD
ENDBRANCH   3  21
TORSDOF 3
ENDMDL
MODEL 7
REMARK VINA RESULT:    -7.884      2.948      5.490
REMARK INTER + INTRA:          -9.286
REMARK INTER:                  -8.795
REMARK INTRA:                  -0.491
REMARK UNBOUND:                -0.480
REMARK  Name = ZINC000000338216
REMARK  4 active torsions:
REMARK  status: ('A' for Active; 'I' for Inactive)
REMARK    1  A    between atoms: C_1  and  C_2
REMARK    2  A    between atoms: C_3  and  O_4
REMARK    3  A    between atoms: C_6  and  O_7
REMARK    4  A    between atoms: C_12  and  C_13
REMARK                            x       y       z     vdW  Elec       q    Type
REMARK                         _______ _______ _______ _____ _____    ______ ____
ROOT
ATOM      1  C   UNL     1       0.952   4.076 -25.490  0.00  0.00    +0.051 C 
ATOM      2  C   UNL     1       0.567   3.349 -24.483  0.00  0.00    +0.034 A 
ATOM      3  C   UNL     1      -0.670   2.958 -24.400  0.00  0.00    +0.127 A 
ATOM      4  C   UNL     1      -1.056   2.231 -23.394  0.00  0.00    +0.092 A 
ATOM      5  C   UNL     1      -0.205   1.897 -22.470  0.00  0.00    +0.135 A 
ATOM      6  C   UNL     1       1.032   2.288 -22.553  0.00  0.00    +0.106 A 
ATOM      7  C   UNL     1       1.882   1.954 -21.629  0.00  0.00    +0.197 A 
ATOM      8  C   UNL     1       3.120   2.345 -21.711  0.00  0.00    +0.098 A 
ATOM      9  C   UNL     1       3.506   3.072 -22.719  0.00  0.00    +0.139 A 
ATOM     10  O   UNL     1       2.654   3.406 -23.642  0.00  0.00    -0.454 OA
ATOM     11  O   UNL     1       1.497   1.227 -20.622  0.00  0.00    -0.287 OA
ATOM     12  C   UNL     1       1.417   3.015 -23.559  0.00  0.00    +0.149 A 
ENDROOT
BRANCH   9  13
ATOM     13  C   UNL     1       4.742   3.464 -22.802  0.00  0.00    +0.017 A 
ATOM     14  C   UNL     1       5.015   4.725 -22.961  0.00  0.00    +0.011 A 
ATOM     15  C   UNL     1       6.252   5.117 -23.044  0.00  0.00    +0.001 A 
ATOM     16  C   UNL     1       7.216   4.248 -22.968  0.00  0.00    +0.000 A 
ATOM     17  C   UNL     1       6.942   2.986 -22.808  0.00  0.00    +0.001 A 
ATOM     18  C   UNL     1       5.706   2.595 -22.725  0.00  0.00    +0.011 A 
ENDBRANCH   9  13
BRANCH   5  19
ATOM     19  O   UNL     1      -0.590   1.170 -21.463  0.00  0.00    -0.506 OA
ATOM     20  H   UNL     1      -1.419   0.732 -21.491  0.00  0.00    +0.292 HD
ENDBRANCH   5  19
BRANCH   3  21
ATOM     21  O   UNL     1      -1.522   3.292 -25.325  0.00  0.00    -0.506 OA
ATOM     22  H   UNL     1      -2.412   3.476 -25.097  0.00  0.00    +0.292 HD
ENDBRANCH   3  21
TORSDOF 3
ENDMDL
MODEL 8
REMARK VINA RESULT:    -7.585      1.895      4.097
REMARK INTER + INTRA:          -8.952
REMARK INTER:                  -8.450
REMARK INTRA:                  -0.502
REMARK UNBOUND:                -0.480
REMARK  Name = ZINC000000338216
REMARK  4 active torsions:
REMARK  status: ('A' for Active; 'I' for Inactive)
REMARK    1  A    between atoms: C_1  and  C_2
REMARK    2  A    between atoms: C_3  and  O_4
REMARK    3  A    between atoms: C_6  and  O_7
REMARK    4  A    between atoms: C_12  and  C_13
REMARK                            x       y       z     vdW  Elec       q    Type
REMARK                         _______ _______ _______ _____ _____    ______ ____
ROOT
ATOM      1  C   UNL     1       0.697   3.418 -25.887  0.00  0.00    +0.051 C 
ATOM      2  C   UNL     1      -0.279   3.185 -25.060  0.00  0.00    +0.034 A 
ATOM      3  C   UNL     1      -1.507   3.403 -25.425  0.00  0.00    +0.127 A 
ATOM      4  C   UNL     1      -2.483   3.170 -24.598  0.00  0.00    +0.092 A 
ATOM      5  C   UNL     1      -2.229   2.718 -23.405  0.00  0.00    +0.135 A 
ATOM      6  C   UNL     1      -1.001   2.500 -23.040  0.00  0.00    +0.106 A 
ATOM      7  C   UNL     1      -0.748   2.048 -21.848  0.00  0.00    +0.197 A 
ATOM      8  C   UNL     1       0.480   1.830 -21.482  0.00  0.00    +0.098 A 
ATOM      9  C   UNL     1       1.456   2.063 -22.310  0.00  0.00    +0.139 A 
ATOM     10  O   UNL     1       1.202   2.515 -23.502  0.00  0.00    -0.454 OA
ATOM     11  O   UNL     1      -1.724   1.815 -21.021  0.00  0.00    -0.287 OA
ATOM     12  C   UNL     1      -0.026   2.733 -23.867  0.00  0.00    +0.149 A 
ENDROOT
BRANCH   9  13
ATOM     13  C   UNL     1       2.684   1.845 -21.945  0.00  0.00    +0.017 A 
ATOM     14  C   UNL     1       3.619   2.688 -22.271  0.00  0.00    +0.011 A 
ATOM     15  C   UNL     1       4.848   2.470 -21.906  0.00  0.00    +0.001 A 
ATOM     16  C   UNL     1       5.141   1.409 -21.215  0.00  0.00    +0.000 A 
ATOM     17  C   UNL     1       4.206   0.566 -20.888  0.00  0.00    +0.001 A 
ATOM     18  C   UNL     1       2.978   0.784 -21.253  0.00  0.00    +0.011 A 
ENDBRANCH   9  13
BRANCH   5  19
ATOM     19  O   UNL     1      -3.205   2.485 -22.578  0.00  0.00    -0.506 OA
ATOM     20  H   UNL     1      -3.057   1.959 -21.816  0.00  0.00    +0.292 HD
ENDBRANCH   5  19
BRANCH   3  21
ATOM     21  O   UNL     1      -1.760   3.855 -26.618  0.00  0.00    -0.506 OA
ATOM     22  H   UNL     1      -1.230   4.536 -26.983  0.00  0.00    +0.292 HD
ENDBRANCH   3  21
TORSDOF 3
ENDMDL
MODEL 9
REMARK VINA RESULT:    -6.974      4.518      7.323
REMARK INTER + INTRA:          -8.269
REMARK INTER:                  -7.789
REMARK INTRA:                  -0.480
REMARK UNBOUND:                -0.480
REMARK  Name = ZINC000000338216
REMARK  4 active torsions:
REMARK  status: ('A' for Active; 'I' for Inactive)
REMARK    1  A    between atoms: C_1  and  C_2
REMARK    2  A    between atoms: C_3  and  O_4
REMARK    3  A    between atoms: C_6  and  O_7
REMARK    4  A    between atoms: C_12  and  C_13
REMARK                            x       y       z     vdW  Elec       q    Type
REMARK                         _______ _______ _______ _____ _____    ______ ____
ROOT
ATOM      1  C   UNL     1       1.709   4.825 -23.570  0.00  0.00    +0.051 C 
ATOM      2  C   UNL     1       1.996   3.637 -23.128  0.00  0.00    +0.034 A 
ATOM      3  C   UNL     1       1.049   2.768 -22.935  0.00  0.00    +0.127 A 
ATOM      4  C   UNL     1       1.336   1.580 -22.492  0.00  0.00    +0.092 A 
ATOM      5  C   UNL     1       2.572   1.261 -22.243  0.00  0.00    +0.135 A 
ATOM      6  C   UNL     1       3.519   2.129 -22.436  0.00  0.00    +0.106 A 
ATOM      7  C   UNL     1       4.754   1.810 -22.187  0.00  0.00    +0.197 A 
ATOM      8  C   UNL     1       5.702   2.678 -22.380  0.00  0.00    +0.098 A 
ATOM      9  C   UNL     1       5.414   3.867 -22.823  0.00  0.00    +0.139 A 
ATOM     10  O   UNL     1       4.179   4.186 -23.072  0.00  0.00    -0.454 OA
ATOM     11  O   UNL     1       5.042   0.622 -21.745  0.00  0.00    -0.287 OA
ATOM     12  C   UNL     1       3.231   3.317 -22.879  0.00  0.00    +0.149 A 
ENDROOT
BRANCH   9  13
ATOM     13  C   UNL     1       6.362   4.736 -23.016  0.00  0.00    +0.017 A 
ATOM     14  C   UNL     1       7.255   4.529 -23.937  0.00  0.00    +0.011 A 
ATOM     15  C   UNL     1       8.203   5.398 -24.131  0.00  0.00    +0.001 A 
ATOM     16  C   UNL     1       8.257   6.473 -23.403  0.00  0.00    +0.000 A 
ATOM     17  C   UNL     1       7.363   6.680 -22.481  0.00  0.00    +0.001 A 
ATOM     18  C   UNL     1       6.416   5.812 -22.288  0.00  0.00    +0.011 A 
ENDBRANCH   9  13
BRANCH   5  19
ATOM     19  O   UNL     1       2.859   0.073 -21.801  0.00  0.00    -0.506 OA
ATOM     20  H   UNL     1       3.435  -0.028 -21.068  0.00  0.00    +0.292 HD
ENDBRANCH   5  19
BRANCH   3  21
ATOM     21  O   UNL     1      -0.187   3.088 -23.184  0.00  0.00    -0.506 OA
ATOM     22  H   UNL     1      -0.832   3.026 -22.507  0.00  0.00    +0.292 HD
ENDBRANCH   3  21
TORSDOF 3
ENDMDL
