MODEL 1
REMARK VINA RESULT:   -11.537      0.000      0.000
REMARK INTER + INTRA:         -12.325
REMARK INTER:                 -12.175
REMARK INTRA:                  -0.149
REMARK UNBOUND:                 0.224
REMARK  Name = COc1ccc2c3c1O[C@]1(C)[C@@H](O)C=C[C@H]4[C@@H](C2)N(C)CC[C@@]341      ZINC000253505004
REMARK  5 active torsions:
REMARK  status: ('A' for Active; 'I' for Inactive)
REMARK    1  A    between atoms: C_1  and  O_2
REMARK    2  A    between atoms: O_2  and  C_3
REMARK    3  A    between atoms: C_10  and  C_11
REMARK    4  A    between atoms: C_12  and  O_13
REMARK    5  A    between atoms: N_19  and  C_20
REMARK                            x       y       z     vdW  Elec       q    Type
REMARK                         _______ _______ _______ _____ _____    ______ ____
ROOT
ATOM      1  C   UNL     1       0.447   2.239 -23.323  0.00  0.00    +0.162 A 
ATOM      2  C   UNL     1       0.406   1.881 -22.110  0.00  0.00    +0.050 A 
ATOM      3  C   UNL     1      -0.667   1.934 -21.468  0.00  0.00    +0.008 A 
ATOM      4  C   UNL     1      -1.712   2.344 -22.030  0.00  0.00    -0.034 A 
ATOM      5  C   UNL     1      -1.691   2.704 -23.237  0.00  0.00    +0.012 A 
ATOM      6  C   UNL     1      -2.733   3.112 -23.794  0.00  0.00    +0.058 C 
ATOM      7  C   UNL     1      -3.853   3.593 -24.532  0.00  0.00    +0.067 C 
ATOM      8  C   UNL     1      -5.078   3.663 -23.834  0.00  0.00    +0.132 C 
ATOM      9  N   UNL     1      -5.084   3.256 -22.484  0.00  0.00    +0.236 N 
ATOM     10  H   UNL     1      -5.941   3.286 -21.931  0.00  0.00    +0.203 HD
ATOM     11  C   UNL     1      -6.128   3.287 -21.794  0.00  0.00    +0.190 C 
ATOM     12  C   UNL     1      -3.845   2.807 -21.941  0.00  0.00    +0.076 C 
ATOM     13  C   UNL     1      -3.808   3.166 -23.155  0.00  0.00    +0.075 C 
ATOM     14  C   UNL     1      -4.860   3.579 -23.719  0.00  0.00    -0.019 C 
ATOM     15  C   UNL     1      -4.830   3.935 -24.920  0.00  0.00    +0.004 C 
ATOM     16  C   UNL     1      -3.749   3.884 -25.572  0.00  0.00    +0.181 C 
ATOM     17  C   UNL     1      -2.706   3.476 -25.015  0.00  0.00    +0.148 C 
ATOM     18  C   UNL     1      -2.391   3.760 -26.193  0.00  0.00    +0.060 C 
ATOM     19  O   UNL     1      -1.232   3.177 -25.149  0.00  0.00    -0.478 OA
ATOM     20  C   UNL     1      -2.805   2.398 -21.380  0.00  0.00    +0.090 C 
ATOM     21  C   UNL     1      -0.610   2.653 -23.888  0.00  0.00    +0.167 A 
ENDROOT
BRANCH   1  23
ATOM     22  C   UNL     1       2.192   3.224 -24.151  0.00  0.00    +0.277 C 
ATOM     23  O   UNL     1       1.522   2.185 -23.960  0.00  0.00    -0.491 OA
ENDBRANCH   1  23
BRANCH  16  24
ATOM     24  O   UNL     1      -3.721   4.241 -26.772  0.00  0.00    -0.384 OA
ATOM     25  H   UNL     1      -3.052   3.723 -27.248  0.00  0.00    +0.210 HD
ENDBRANCH  16  24
TORSDOF 2
ENDMDL
MODEL 2
REMARK VINA RESULT:   -10.968      2.055      5.013
REMARK INTER + INTRA:         -11.705
REMARK INTER:                 -11.593
REMARK INTRA:                  -0.113
REMARK UNBOUND:                 0.224
REMARK  Name = COc1ccc2c3c1O[C@]1(C)[C@@H](O)C=C[C@H]4[C@@H](C2)N(C)CC[C@@]341      ZINC000253505004
REMARK  5 active torsions:
REMARK  status: ('A' for Active; 'I' for Inactive)
REMARK    1  A    between atoms: C_1  and  O_2
REMARK    2  A    between atoms: O_2  and  C_3
REMARK    3  A    between atoms: C_10  and  C_11
REMARK    4  A    between atoms: C_12  and  O_13
REMARK    5  A    between atoms: N_19  and  C_20
REMARK                            x       y       z     vdW  Elec       q    Type
REMARK                         _______ _______ _______ _____ _____    ______ ____
ROOT
ATOM      1  C   UNL     1      -3.427   3.249 -23.044  0.00  0.00    +0.162 A 
ATOM      2  C   UNL     1      -3.614   2.730 -21.906  0.00  0.00    +0.050 A 
ATOM      3  C   UNL     1      -2.664   2.201 -21.285  0.00  0.00    +0.008 A 
ATOM      4  C   UNL     1      -1.517   2.184 -21.793  0.00  0.00    -0.034 A 
ATOM      5  C   UNL     1      -1.311   2.696 -22.926  0.00  0.00    +0.012 A 
ATOM      6  C   UNL     1      -0.167   2.678 -23.431  0.00  0.00    +0.058 C 
ATOM      7  C   UNL     1       1.088   2.717 -24.104  0.00  0.00    +0.067 C 
ATOM      8  C   UNL     1       2.178   2.127 -23.428  0.00  0.00    +0.132 C 
ATOM      9  N   UNL     1       1.931   1.559 -22.161  0.00  0.00    +0.236 N 
ATOM     10  H   UNL     1       2.681   1.119 -21.627  0.00  0.00    +0.203 HD
ATOM     11  C   UNL     1       2.841   1.017 -21.496  0.00  0.00    +0.190 C 
ATOM     12  C   UNL     1       0.593   1.631 -21.673  0.00  0.00    +0.076 C 
ATOM     13  C   UNL     1       0.784   2.149 -22.812  0.00  0.00    +0.075 C 
ATOM     14  C   UNL     1       1.939   2.132 -23.324  0.00  0.00    -0.019 C 
ATOM     15  C   UNL     1       2.135   2.643 -24.450  0.00  0.00    +0.004 C 
ATOM     16  C   UNL     1       1.180   3.178 -25.081  0.00  0.00    +0.181 C 
ATOM     17  C   UNL     1       0.035   3.197 -24.577  0.00  0.00    +0.148 C 
ATOM     18  C   UNL     1      -0.057   3.767 -25.687  0.00  0.00    +0.060 C 
ATOM     19  O   UNL     1      -1.409   3.610 -24.728  0.00  0.00    -0.478 OA
ATOM     20  C   UNL     1      -0.549   1.647 -21.165  0.00  0.00    +0.090 C 
ATOM     21  C   UNL     1      -2.267   3.231 -23.556  0.00  0.00    +0.167 A 
ENDROOT
BRANCH   1  23
ATOM     22  C   UNL     1      -5.546   3.673 -23.222  0.00  0.00    +0.277 C 
ATOM     23  O   UNL     1      -4.379   3.777 -23.661  0.00  0.00    -0.491 OA
ENDBRANCH   1  23
BRANCH  16  24
ATOM     24  O   UNL     1       1.378   3.689 -26.207  0.00  0.00    -0.384 OA
ATOM     25  H   UNL     1       0.795   3.269 -26.860  0.00  0.00    +0.210 HD
ENDBRANCH  16  24
TORSDOF 2
ENDMDL
MODEL 3
REMARK VINA RESULT:   -10.630      2.127      5.490
REMARK INTER + INTRA:         -11.338
REMARK INTER:                 -11.263
REMARK INTRA:                  -0.075
REMARK UNBOUND:                 0.224
REMARK  Name = COc1ccc2c3c1O[C@]1(C)[C@@H](O)C=C[C@H]4[C@@H](C2)N(C)CC[C@@]341      ZINC000253505004
REMARK  5 active torsions:
REMARK  status: ('A' for Active; 'I' for Inactive)
REMARK    1  A    between atoms: C_1  and  O_2
REMARK    2  A    between atoms: O_2  and  C_3
REMARK    3  A    between atoms: C_10  and  C_11
REMARK    4  A    between atoms: C_12  and  O_13
REMARK    5  A    between atoms: N_19  and  C_20
REMARK                            x       y       z     vdW  Elec       q    Type
REMARK                         _______ _______ _______ _____ _____    ______ ____
ROOT
ATOM      1  C   UNL     1      -4.630   3.712 -23.055  0.00  0.00    +0.162 A 
ATOM      2  C   UNL     1      -4.814   4.160 -24.224  0.00  0.00    +0.050 A 
ATOM      3  C   UNL     1      -3.877   4.173 -25.055  0.00  0.00    +0.008 A 
ATOM      4  C   UNL     1      -2.747   3.737 -24.728  0.00  0.00    -0.034 A 
ATOM      5  C   UNL     1      -2.544   3.287 -23.569  0.00  0.00    +0.012 A 
ATOM      6  C   UNL     1      -1.416   2.853 -23.246  0.00  0.00    +0.058 C 
ATOM      7  C   UNL     1      -0.179   2.335 -22.766  0.00  0.00    +0.067 C 
ATOM      8  C   UNL     1       0.896   2.336 -23.681  0.00  0.00    +0.132 C 
ATOM      9  N   UNL     1       0.653   2.844 -24.974  0.00  0.00    +0.236 N 
ATOM     10  H   UNL     1       1.392   2.869 -25.676  0.00  0.00    +0.203 HD
ATOM     11  C   UNL     1       1.551   2.880 -25.844  0.00  0.00    +0.190 C 
ATOM     12  C   UNL     1      -0.666   3.314 -25.243  0.00  0.00    +0.076 C 
ATOM     13  C   UNL     1      -0.478   2.864 -24.075  0.00  0.00    +0.075 C 
ATOM     14  C   UNL     1       0.661   2.426 -23.746  0.00  0.00    -0.019 C 
ATOM     15  C   UNL     1       0.853   1.980 -22.592  0.00  0.00    +0.004 C 
ATOM     16  C   UNL     1      -0.089   1.965 -21.750  0.00  0.00    +0.181 C 
ATOM     17  C   UNL     1      -1.218   2.399 -22.072  0.00  0.00    +0.148 C 
ATOM     18  C   UNL     1      -1.308   2.022 -20.882  0.00  0.00    +0.060 C 
ATOM     19  O   UNL     1      -2.641   2.664 -21.647  0.00  0.00    -0.478 OA
ATOM     20  C   UNL     1      -1.792   3.748 -25.570  0.00  0.00    +0.090 C 
ATOM     21  C   UNL     1      -3.486   3.273 -22.728  0.00  0.00    +0.167 A 
ENDROOT
BRANCH   1  23
ATOM     22  C   UNL     1      -5.961   2.620 -21.737  0.00  0.00    +0.277 C 
ATOM     23  O   UNL     1      -5.569   3.702 -22.228  0.00  0.00    -0.491 OA
ENDBRANCH   1  23
BRANCH  16  24
ATOM     24  O   UNL     1       0.106   1.519 -20.596  0.00  0.00    -0.384 OA
ATOM     25  H   UNL     1       0.889   0.946 -20.599  0.00  0.00    +0.210 HD
ENDBRANCH  16  24
TORSDOF 2
ENDMDL
MODEL 4
REMARK VINA RESULT:   -10.565      1.826      3.186
REMARK INTER + INTRA:         -11.267
REMARK INTER:                 -11.121
REMARK INTRA:                  -0.146
REMARK UNBOUND:                 0.224
REMARK  Name = COc1ccc2c3c1O[C@]1(C)[C@@H](O)C=C[C@H]4[C@@H](C2)N(C)CC[C@@]341      ZINC000253505004
REMARK  5 active torsions:
REMARK  status: ('A' for Active; 'I' for Inactive)
REMARK    1  A    between atoms: C_1  and  O_2
REMARK    2  A    between atoms: O_2  and  C_3
REMARK    3  A    between atoms: C_10  and  C_11
REMARK    4  A    between atoms: C_12  and  O_13
REMARK    5  A    between atoms: N_19  and  C_20
REMARK                            x       y       z     vdW  Elec       q    Type
REMARK                         _______ _______ _______ _____ _____    ______ ____
ROOT
ATOM      1  C   UNL     1       1.123   3.088 -23.347  0.00  0.00    +0.162 A 
ATOM      2  C   UNL     1       1.275   3.228 -24.595  0.00  0.00    +0.050 A 
ATOM      3  C   UNL     1       0.284   3.393 -25.342  0.00  0.00    +0.008 A 
ATOM      4  C   UNL     1      -0.870   3.422 -24.851  0.00  0.00    -0.034 A 
ATOM      5  C   UNL     1      -1.042   3.285 -23.610  0.00  0.00    +0.012 A 
ATOM      6  C   UNL     1      -2.193   3.314 -23.123  0.00  0.00    +0.058 C 
ATOM      7  C   UNL     1      -3.453   3.329 -22.457  0.00  0.00    +0.067 C 
ATOM      8  C   UNL     1      -4.589   3.514 -23.273  0.00  0.00    +0.132 C 
ATOM      9  N   UNL     1      -4.380   3.666 -24.660  0.00  0.00    +0.236 N 
ATOM     10  H   UNL     1      -5.165   3.803 -25.298  0.00  0.00    +0.203 HD
ATOM     11  C   UNL     1      -5.333   3.834 -25.453  0.00  0.00    +0.190 C 
ATOM     12  C   UNL     1      -3.030   3.618 -25.116  0.00  0.00    +0.076 C 
ATOM     13  C   UNL     1      -3.186   3.479 -23.867  0.00  0.00    +0.075 C 
ATOM     14  C   UNL     1      -4.349   3.508 -23.373  0.00  0.00    -0.019 C 
ATOM     15  C   UNL     1      -4.511   3.371 -22.139  0.00  0.00    +0.004 C 
ATOM     16  C   UNL     1      -3.513   3.204 -21.381  0.00  0.00    +0.181 C 
ATOM     17  C   UNL     1      -2.361   3.175 -21.868  0.00  0.00    +0.148 C 
ATOM     18  C   UNL     1      -2.229   3.015 -20.633  0.00  0.00    +0.060 C 
ATOM     19  O   UNL     1      -0.881   3.031 -21.610  0.00  0.00    -0.478 OA
ATOM     20  C   UNL     1      -1.881   3.590 -25.607  0.00  0.00    +0.090 C 
ATOM     21  C   UNL     1      -0.045   3.118 -22.853  0.00  0.00    +0.167 A 
ENDROOT
BRANCH   1  23
ATOM     22  C   UNL     1       2.384   1.786 -22.158  0.00  0.00    +0.277 C 
ATOM     23  O   UNL     1       2.116   2.923 -22.605  0.00  0.00    -0.491 OA
ENDBRANCH   1  23
BRANCH  16  24
ATOM     24  O   UNL     1      -3.677   3.067 -20.147  0.00  0.00    -0.384 OA
ATOM     25  H   UNL     1      -2.867   2.709 -19.751  0.00  0.00    +0.210 HD
ENDBRANCH  16  24
TORSDOF 2
ENDMDL
MODEL 5
REMARK VINA RESULT:   -10.240      1.182      1.729
REMARK INTER + INTRA:         -10.914
REMARK INTER:                 -10.799
REMARK INTRA:                  -0.114
REMARK UNBOUND:                 0.224
REMARK  Name = COc1ccc2c3c1O[C@]1(C)[C@@H](O)C=C[C@H]4[C@@H](C2)N(C)CC[C@@]341      ZINC000253505004
REMARK  5 active torsions:
REMARK  status: ('A' for Active; 'I' for Inactive)
REMARK    1  A    between atoms: C_1  and  O_2
REMARK    2  A    between atoms: O_2  and  C_3
REMARK    3  A    between atoms: C_10  and  C_11
REMARK    4  A    between atoms: C_12  and  O_13
REMARK    5  A    between atoms: N_19  and  C_20
REMARK                            x       y       z     vdW  Elec       q    Type
REMARK                         _______ _______ _______ _____ _____    ______ ____
ROOT
ATOM      1  C   UNL     1       2.017   1.859 -22.625  0.00  0.00    +0.162 A 
ATOM      2  C   UNL     1       1.842   1.521 -21.419  0.00  0.00    +0.050 A 
ATOM      3  C   UNL     1       0.705   1.586 -20.899  0.00  0.00    +0.008 A 
ATOM      4  C   UNL     1      -0.270   1.990 -21.577  0.00  0.00    -0.034 A 
ATOM      5  C   UNL     1      -0.116   2.332 -22.780  0.00  0.00    +0.012 A 
ATOM      6  C   UNL     1      -1.090   2.734 -23.454  0.00  0.00    +0.058 C 
ATOM      7  C   UNL     1      -2.121   3.207 -24.317  0.00  0.00    +0.067 C 
ATOM      8  C   UNL     1      -3.414   3.291 -23.757  0.00  0.00    +0.132 C 
ATOM      9  N   UNL     1      -3.569   2.904 -22.410  0.00  0.00    +0.236 N 
ATOM     10  H   UNL     1      -4.481   2.945 -21.954  0.00  0.00    +0.203 HD
ATOM     11  C   UNL     1      -4.681   2.949 -21.839  0.00  0.00    +0.190 C 
ATOM     12  C   UNL     1      -2.398   2.460 -21.729  0.00  0.00    +0.076 C 
ATOM     13  C   UNL     1      -2.227   2.800 -22.936  0.00  0.00    +0.075 C 
ATOM     14  C   UNL     1      -3.210   3.207 -23.618  0.00  0.00    -0.019 C 
ATOM     15  C   UNL     1      -3.048   3.545 -24.814  0.00  0.00    +0.004 C 
ATOM     16  C   UNL     1      -1.902   3.481 -25.343  0.00  0.00    +0.181 C 
ATOM     17  C   UNL     1      -0.928   3.078 -24.670  0.00  0.00    +0.148 C 
ATOM     18  C   UNL     1      -0.486   3.344 -25.811  0.00  0.00    +0.060 C 
ATOM     19  O   UNL     1       0.550   2.774 -24.638  0.00  0.00    -0.478 OA
ATOM     20  C   UNL     1      -1.428   2.057 -21.051  0.00  0.00    +0.090 C 
ATOM     21  C   UNL     1       1.029   2.267 -23.309  0.00  0.00    +0.167 A 
ENDROOT
BRANCH   1  23
ATOM     22  C   UNL     1       3.755   2.838 -23.474  0.00  0.00    +0.277 C 
ATOM     23  O   UNL     1       3.154   1.793 -23.141  0.00  0.00    -0.491 OA
ENDBRANCH   1  23
BRANCH  16  24
ATOM     24  O   UNL     1      -1.742   3.819 -26.538  0.00  0.00    -0.384 OA
ATOM     25  H   UNL     1      -2.441   3.424 -27.083  0.00  0.00    +0.210 HD
ENDBRANCH  16  24
TORSDOF 2
ENDMDL
MODEL 6
REMARK VINA RESULT:   -10.092      2.954      6.782
REMARK INTER + INTRA:         -10.753
REMARK INTER:                 -10.630
REMARK INTRA:                  -0.123
REMARK UNBOUND:                 0.224
REMARK  Name = COc1ccc2c3c1O[C@]1(C)[C@@H](O)C=C[C@H]4[C@@H](C2)N(C)CC[C@@]341      ZINC000253505004
REMARK  5 active torsions:
REMARK  status: ('A' for Active; 'I' for Inactive)
REMARK    1  A    between atoms: C_1  and  O_2
REMARK    2  A    between atoms: O_2  and  C_3
REMARK    3  A    between atoms: C_10  and  C_11
REMARK    4  A    between atoms: C_12  and  O_13
REMARK    5  A    between atoms: N_19  and  C_20
REMARK                            x       y       z     vdW  Elec       q    Type
REMARK                         _______ _______ _______ _____ _____    ______ ____
ROOT
ATOM      1  C   UNL     1      -1.229   3.211 -23.355  0.00  0.00    +0.162 A 
ATOM      2  C   UNL     1      -1.325   4.442 -23.632  0.00  0.00    +0.050 A 
ATOM      3  C   UNL     1      -0.308   5.172 -23.647  0.00  0.00    +0.008 A 
ATOM      4  C   UNL     1       0.817   4.681 -23.386  0.00  0.00    -0.034 A 
ATOM      5  C   UNL     1       0.933   3.458 -23.107  0.00  0.00    +0.012 A 
ATOM      6  C   UNL     1       2.055   2.971 -22.847  0.00  0.00    +0.058 C 
ATOM      7  C   UNL     1       3.277   2.308 -22.535  0.00  0.00    +0.067 C 
ATOM      8  C   UNL     1       4.441   3.106 -22.545  0.00  0.00    +0.132 C 
ATOM      9  N   UNL     1       4.294   4.472 -22.858  0.00  0.00    +0.236 N 
ATOM     10  H   UNL     1       5.101   5.096 -22.880  0.00  0.00    +0.203 HD
ATOM     11  C   UNL     1       5.275   5.248 -22.889  0.00  0.00    +0.190 C 
ATOM     12  C   UNL     1       2.973   4.930 -23.140  0.00  0.00    +0.076 C 
ATOM     13  C   UNL     1       3.074   3.699 -22.862  0.00  0.00    +0.075 C 
ATOM     14  C   UNL     1       4.207   3.205 -22.599  0.00  0.00    -0.019 C 
ATOM     15  C   UNL     1       4.314   1.988 -22.323  0.00  0.00    +0.004 C 
ATOM     16  C   UNL     1       3.290   1.248 -22.306  0.00  0.00    +0.181 C 
ATOM     17  C   UNL     1       2.167   1.734 -22.566  0.00  0.00    +0.148 C 
ATOM     18  C   UNL     1       1.982   0.518 -22.331  0.00  0.00    +0.060 C 
ATOM     19  O   UNL     1       0.685   1.488 -22.719  0.00  0.00    -0.478 OA
ATOM     20  C   UNL     1       1.853   5.420 -23.401  0.00  0.00    +0.090 C 
ATOM     21  C   UNL     1      -0.091   2.718 -23.091  0.00  0.00    +0.167 A 
ENDROOT
BRANCH   1  23
ATOM     22  C   UNL     1      -3.286   2.872 -22.758  0.00  0.00    +0.277 C 
ATOM     23  O   UNL     1      -2.248   2.486 -23.340  0.00  0.00    -0.491 OA
ENDBRANCH   1  23
BRANCH  16  24
ATOM     24  O   UNL     1       3.398   0.031 -22.030  0.00  0.00    -0.384 OA
ATOM     25  H   UNL     1       3.171  -0.499 -22.810  0.00  0.00    +0.210 HD
ENDBRANCH  16  24
TORSDOF 2
ENDMDL
MODEL 7
REMARK VINA RESULT:    -9.699      2.302      5.873
REMARK INTER + INTRA:         -10.325
REMARK INTER:                 -10.210
REMARK INTRA:                  -0.116
REMARK UNBOUND:                 0.224
REMARK  Name = COc1ccc2c3c1O[C@]1(C)[C@@H](O)C=C[C@H]4[C@@H](C2)N(C)CC[C@@]341      ZINC000253505004
REMARK  5 active torsions:
REMARK  status: ('A' for Active; 'I' for Inactive)
REMARK    1  A    between atoms: C_1  and  O_2
REMARK    2  A    between atoms: O_2  and  C_3
REMARK    3  A    between atoms: C_10  and  C_11
REMARK    4  A    between atoms: C_12  and  O_13
REMARK    5  A    between atoms: N_19  and  C_20
REMARK                            x       y       z     vdW  Elec       q    Type
REMARK                         _______ _______ _______ _____ _____    ______ ____
ROOT
ATOM      1  C   UNL     1      -3.230   3.319 -24.128  0.00  0.00    +0.162 A 
ATOM      2  C   UNL     1      -3.003   3.769 -25.289  0.00  0.00    +0.050 A 
ATOM      3  C   UNL     1      -1.839   3.786 -25.748  0.00  0.00    +0.008 A 
ATOM      4  C   UNL     1      -0.887   3.354 -25.053  0.00  0.00    -0.034 A 
ATOM      5  C   UNL     1      -1.093   2.902 -23.895  0.00  0.00    +0.012 A 
ATOM      6  C   UNL     1      -0.143   2.473 -23.205  0.00  0.00    +0.058 C 
ATOM      7  C   UNL     1       0.857   1.959 -22.330  0.00  0.00    +0.067 C 
ATOM      8  C   UNL     1       2.181   1.965 -22.821  0.00  0.00    +0.132 C 
ATOM      9  N   UNL     1       2.394   2.474 -24.118  0.00  0.00    +0.236 N 
ATOM     10  H   UNL     1       3.330   2.503 -24.524  0.00  0.00    +0.203 HD
ATOM     11  C   UNL     1       3.536   2.515 -24.628  0.00  0.00    +0.190 C 
ATOM     12  C   UNL     1       1.245   2.939 -24.824  0.00  0.00    +0.076 C 
ATOM     13  C   UNL     1       1.023   2.489 -23.662  0.00  0.00    +0.075 C 
ATOM     14  C   UNL     1       1.982   2.054 -22.963  0.00  0.00    -0.019 C 
ATOM     15  C   UNL     1       1.769   1.607 -21.813  0.00  0.00    +0.004 C 
ATOM     16  C   UNL     1       0.595   1.588 -21.345  0.00  0.00    +0.181 C 
ATOM     17  C   UNL     1      -0.356   2.017 -22.035  0.00  0.00    +0.148 C 
ATOM     18  C   UNL     1      -0.849   1.638 -20.948  0.00  0.00    +0.060 C 
ATOM     19  O   UNL     1      -1.841   2.276 -22.123  0.00  0.00    -0.478 OA
ATOM     20  C   UNL     1       0.298   3.370 -25.517  0.00  0.00    +0.090 C 
ATOM     21  C   UNL     1      -2.266   2.884 -23.429  0.00  0.00    +0.167 A 
ENDROOT
BRANCH   1  23
ATOM     22  C   UNL     1      -5.247   4.114 -24.102  0.00  0.00    +0.277 C 
ATOM     23  O   UNL     1      -4.395   3.304 -23.674  0.00  0.00    -0.491 OA
ENDBRANCH   1  23
BRANCH  16  24
ATOM     24  O   UNL     1       0.384   1.140 -20.194  0.00  0.00    -0.384 OA
ATOM     25  H   UNL     1       0.303   1.878 -19.570  0.00  0.00    +0.210 HD
ENDBRANCH  16  24
TORSDOF 2
ENDMDL
MODEL 8
REMARK VINA RESULT:    -8.641      3.943      6.403
REMARK INTER + INTRA:          -9.174
REMARK INTER:                  -9.025
REMARK INTRA:                  -0.149
REMARK UNBOUND:                 0.224
REMARK  Name = COc1ccc2c3c1O[C@]1(C)[C@@H](O)C=C[C@H]4[C@@H](C2)N(C)CC[C@@]341      ZINC000253505004
REMARK  5 active torsions:
REMARK  status: ('A' for Active; 'I' for Inactive)
REMARK    1  A    between atoms: C_1  and  O_2
REMARK    2  A    between atoms: O_2  and  C_3
REMARK    3  A    between atoms: C_10  and  C_11
REMARK    4  A    between atoms: C_12  and  O_13
REMARK    5  A    between atoms: N_19  and  C_20
REMARK                            x       y       z     vdW  Elec       q    Type
REMARK                         _______ _______ _______ _____ _____    ______ ____
ROOT
ATOM      1  C   UNL     1       6.194   4.139 -22.603  0.00  0.00    +0.162 A 
ATOM      2  C   UNL     1       6.021   5.391 -22.659  0.00  0.00    +0.050 A 
ATOM      3  C   UNL     1       4.872   5.868 -22.801  0.00  0.00    +0.008 A 
ATOM      4  C   UNL     1       3.883   5.100 -22.889  0.00  0.00    -0.034 A 
ATOM      5  C   UNL     1       4.036   3.851 -22.836  0.00  0.00    +0.012 A 
ATOM      6  C   UNL     1       3.049   3.087 -22.924  0.00  0.00    +0.058 C 
ATOM      7  C   UNL     1       2.004   2.123 -23.012  0.00  0.00    +0.067 C 
ATOM      8  C   UNL     1       0.697   2.632 -23.173  0.00  0.00    +0.132 C 
ATOM      9  N   UNL     1       0.543   4.032 -23.231  0.00  0.00    +0.236 N 
ATOM     10  H   UNL     1      -0.378   4.455 -23.346  0.00  0.00    +0.203 HD
ATOM     11  C   UNL     1      -0.580   4.564 -23.372  0.00  0.00    +0.190 C 
ATOM     12  C   UNL     1       1.730   4.815 -23.121  0.00  0.00    +0.076 C 
ATOM     13  C   UNL     1       1.899   3.562 -23.066  0.00  0.00    +0.075 C 
ATOM     14  C   UNL     1       0.903   2.789 -23.155  0.00  0.00    -0.019 C 
ATOM     15  C   UNL     1       1.064   1.548 -23.100  0.00  0.00    +0.004 C 
ATOM     16  C   UNL     1       2.222   1.062 -22.957  0.00  0.00    +0.181 C 
ATOM     17  C   UNL     1       3.210   1.825 -22.869  0.00  0.00    +0.148 C 
ATOM     18  C   UNL     1       3.654   0.657 -22.785  0.00  0.00    +0.060 C 
ATOM     19  O   UNL     1       4.705   1.946 -22.705  0.00  0.00    -0.478 OA
ATOM     20  C   UNL     1       2.714   5.581 -23.034  0.00  0.00    +0.090 C 
ATOM     21  C   UNL     1       5.193   3.366 -22.692  0.00  0.00    +0.167 A 
ENDROOT
BRANCH   1  23
ATOM     22  C   UNL     1       8.046   3.410 -23.464  0.00  0.00    +0.277 C 
ATOM     23  O   UNL     1       7.344   3.667 -22.461  0.00  0.00    -0.491 OA
ENDBRANCH   1  23
BRANCH  16  24
ATOM     24  O   UNL     1       2.380  -0.179 -22.903  0.00  0.00    -0.384 OA
ATOM     25  H   UNL     1       1.753  -0.558 -22.268  0.00  0.00    +0.210 HD
ENDBRANCH  16  24
TORSDOF 2
ENDMDL
