MODEL 1
REMARK VINA RESULT:    -6.631      0.000      0.000
REMARK INTER + INTRA:          -8.957
REMARK INTER:                  -8.423
REMARK INTRA:                  -0.534
REMARK UNBOUND:                -0.388
REMARK  Name = ZINC000000899863
REMARK  7 active torsions:
REMARK  status: ('A' for Active; 'I' for Inactive)
REMARK    1  A    between atoms: C_1  and  C_2
REMARK    2  A    between atoms: C_2  and  O_3
REMARK    3  A    between atoms: O_3  and  C_4
REMARK    4  A    between atoms: C_4  and  C_6
REMARK    5  A    between atoms: C_7  and  C_8
REMARK    6  A    between atoms: C_11  and  O_12
REMARK    7  A    between atoms: O_12  and  C_13
REMARK                            x       y       z     vdW  Elec       q    Type
REMARK                         _______ _______ _______ _____ _____    ______ ____
ROOT
ATOM      1  C   UNL     1      -1.445   2.667 -22.349  0.00  0.00    -0.025 A 
ATOM      2  C   UNL     1      -1.828   2.910 -21.131  0.00  0.00    +0.011 A 
ATOM      3  C   UNL     1      -3.052   3.276 -20.895  0.00  0.00    +0.046 A 
ATOM      4  C   UNL     1      -3.894   3.399 -21.878  0.00  0.00    +0.120 A 
ATOM      5  C   UNL     1      -3.512   3.156 -23.096  0.00  0.00    +0.046 A 
ATOM      6  C   UNL     1      -2.287   2.790 -23.332  0.00  0.00    +0.011 A 
ENDROOT
BRANCH   1   8
ATOM      7  C   UNL     1       0.385   1.491 -21.768  0.00  0.00    +0.092 C 
ATOM      8  C   UNL     1      -0.220   2.301 -22.585  0.00  0.00    +0.015 C 
BRANCH   7   9
ATOM      9  C   UNL     1       1.610   1.125 -22.004  0.00  0.00    +0.332 C 
ATOM     10  O   UNL     1       2.440   0.960 -21.017  0.00  0.00    -0.246 OA
BRANCH   9  11
ATOM     11  O   UNL     1       2.005   0.924 -23.226  0.00  0.00    -0.462 OA
BRANCH  11  13
ATOM     12  C   UNL     1       3.639   2.186 -24.125  0.00  0.00    +0.048 C 
ATOM     13  C   UNL     1       3.255   1.090 -23.541  0.00  0.00    +0.229 C 
ENDBRANCH  11  13
ENDBRANCH   9  11
ENDBRANCH   7   9
ENDBRANCH   1   8
BRANCH   4  14
ATOM     14  O   UNL     1      -5.120   3.765 -21.642  0.00  0.00    -0.495 OA
ATOM     15  C   UNL     1      -6.109   3.020 -22.037  0.00  0.00    +0.277 C 
ENDBRANCH   4  14
TORSDOF 5
ENDMDL
MODEL 2
REMARK VINA RESULT:    -6.602      1.398      6.313
REMARK INTER + INTRA:          -8.919
REMARK INTER:                  -8.582
REMARK INTRA:                  -0.337
REMARK UNBOUND:                -0.388
REMARK  Name = ZINC000000899863
REMARK  7 active torsions:
REMARK  status: ('A' for Active; 'I' for Inactive)
REMARK    1  A    between atoms: C_1  and  C_2
REMARK    2  A    between atoms: C_2  and  O_3
REMARK    3  A    between atoms: O_3  and  C_4
REMARK    4  A    between atoms: C_4  and  C_6
REMARK    5  A    between atoms: C_7  and  C_8
REMARK    6  A    between atoms: C_11  and  O_12
REMARK    7  A    between atoms: O_12  and  C_13
REMARK                            x       y       z     vdW  Elec       q    Type
REMARK                         _______ _______ _______ _____ _____    ______ ____
ROOT
ATOM      1  C   UNL     1      -0.970   2.980 -22.744  0.00  0.00    -0.025 A 
ATOM      2  C   UNL     1      -1.060   2.252 -21.671  0.00  0.00    +0.011 A 
ATOM      3  C   UNL     1      -0.052   1.525 -21.292  0.00  0.00    +0.046 A 
ATOM      4  C   UNL     1       1.047   1.525 -21.987  0.00  0.00    +0.120 A 
ATOM      5  C   UNL     1       1.137   2.253 -23.060  0.00  0.00    +0.046 A 
ATOM      6  C   UNL     1       0.128   2.980 -23.439  0.00  0.00    +0.011 A 
ENDROOT
BRANCH   1   8
ATOM      7  C   UNL     1      -3.016   3.146 -23.668  0.00  0.00    +0.092 C 
ATOM      8  C   UNL     1      -1.978   3.707 -23.123  0.00  0.00    +0.015 C 
BRANCH   7   9
ATOM      9  C   UNL     1      -4.025   3.873 -24.047  0.00  0.00    +0.332 C 
ATOM     10  O   UNL     1      -3.890   4.706 -25.037  0.00  0.00    -0.246 OA
BRANCH   9  11
ATOM     11  O   UNL     1      -5.168   3.768 -23.437  0.00  0.00    -0.462 OA
BRANCH  11  13
ATOM     12  C   UNL     1      -6.191   2.718 -21.728  0.00  0.00    +0.048 C 
ATOM     13  C   UNL     1      -5.206   3.435 -22.181  0.00  0.00    +0.229 C 
ENDBRANCH  11  13
ENDBRANCH   9  11
ENDBRANCH   7   9
ENDBRANCH   1   8
BRANCH   4  14
ATOM     14  O   UNL     1       2.056   0.798 -21.608  0.00  0.00    -0.495 OA
ATOM     15  C   UNL     1       2.956   0.433 -22.473  0.00  0.00    +0.277 C 
ENDBRANCH   4  14
TORSDOF 5
ENDMDL
MODEL 3
REMARK VINA RESULT:    -6.593      2.010      6.643
REMARK INTER + INTRA:          -8.908
REMARK INTER:                  -8.458
REMARK INTRA:                  -0.449
REMARK UNBOUND:                -0.388
REMARK  Name = ZINC000000899863
REMARK  7 active torsions:
REMARK  status: ('A' for Active; 'I' for Inactive)
REMARK    1  A    between atoms: C_1  and  C_2
REMARK    2  A    between atoms: C_2  and  O_3
REMARK    3  A    between atoms: O_3  and  C_4
REMARK    4  A    between atoms: C_4  and  C_6
REMARK    5  A    between atoms: C_7  and  C_8
REMARK    6  A    between atoms: C_11  and  O_12
REMARK    7  A    between atoms: O_12  and  C_13
REMARK                            x       y       z     vdW  Elec       q    Type
REMARK                         _______ _______ _______ _____ _____    ______ ____
ROOT
ATOM      1  C   UNL     1      -1.128   4.083 -23.796  0.00  0.00    -0.025 A 
ATOM      2  C   UNL     1      -0.894   2.818 -23.613  0.00  0.00    +0.011 A 
ATOM      3  C   UNL     1       0.305   2.414 -23.316  0.00  0.00    +0.046 A 
ATOM      4  C   UNL     1       1.271   3.276 -23.202  0.00  0.00    +0.120 A 
ATOM      5  C   UNL     1       1.038   4.542 -23.386  0.00  0.00    +0.046 A 
ATOM      6  C   UNL     1      -0.162   4.946 -23.683  0.00  0.00    +0.011 A 
ENDROOT
BRANCH   1   8
ATOM      7  C   UNL     1      -3.329   3.664 -24.007  0.00  0.00    +0.092 C 
ATOM      8  C   UNL     1      -2.327   4.487 -24.093  0.00  0.00    +0.015 C 
BRANCH   7   9
ATOM      9  C   UNL     1      -4.529   4.068 -24.305  0.00  0.00    +0.332 C 
ATOM     10  O   UNL     1      -4.733   4.756 -25.388  0.00  0.00    -0.246 OA
BRANCH   9  11
ATOM     11  O   UNL     1      -5.524   3.782 -23.518  0.00  0.00    -0.462 OA
BRANCH  11  13
ATOM     12  C   UNL     1      -6.179   2.693 -21.659  0.00  0.00    +0.048 C 
ATOM     13  C   UNL     1      -5.299   3.410 -22.293  0.00  0.00    +0.229 C 
ENDBRANCH  11  13
ENDBRANCH   9  11
ENDBRANCH   7   9
ENDBRANCH   1   8
BRANCH   4  14
ATOM     14  O   UNL     1       2.471   2.873 -22.905  0.00  0.00    -0.495 OA
ATOM     15  C   UNL     1       3.464   3.712 -22.931  0.00  0.00    +0.277 C 
ENDBRANCH   4  14
TORSDOF 5
ENDMDL
MODEL 4
REMARK VINA RESULT:    -6.187      1.457      6.109
REMARK INTER + INTRA:          -8.383
REMARK INTER:                  -8.139
REMARK INTRA:                  -0.244
REMARK UNBOUND:                -0.388
REMARK  Name = ZINC000000899863
REMARK  7 active torsions:
REMARK  status: ('A' for Active; 'I' for Inactive)
REMARK    1  A    between atoms: C_1  and  C_2
REMARK    2  A    between atoms: C_2  and  O_3
REMARK    3  A    between atoms: O_3  and  C_4
REMARK    4  A    between atoms: C_4  and  C_6
REMARK    5  A    between atoms: C_7  and  C_8
REMARK    6  A    between atoms: C_11  and  O_12
REMARK    7  A    between atoms: O_12  and  C_13
REMARK                            x       y       z     vdW  Elec       q    Type
REMARK                         _______ _______ _______ _____ _____    ______ ____
ROOT
ATOM      1  C   UNL     1      -1.020   3.174 -22.436  0.00  0.00    -0.025 A 
ATOM      2  C   UNL     1      -0.040   3.727 -23.087  0.00  0.00    +0.011 A 
ATOM      3  C   UNL     1       1.153   3.215 -23.026  0.00  0.00    +0.046 A 
ATOM      4  C   UNL     1       1.366   2.149 -22.313  0.00  0.00    +0.120 A 
ATOM      5  C   UNL     1       0.387   1.595 -21.661  0.00  0.00    +0.046 A 
ATOM      6  C   UNL     1      -0.806   2.108 -21.723  0.00  0.00    +0.011 A 
ENDROOT
BRANCH   1   8
ATOM      7  C   UNL     1      -3.254   2.908 -22.518  0.00  0.00    +0.092 C 
ATOM      8  C   UNL     1      -2.213   3.686 -22.497  0.00  0.00    +0.015 C 
BRANCH   7   9
ATOM      9  C   UNL     1      -4.448   3.420 -22.579  0.00  0.00    +0.332 C 
ATOM     10  O   UNL     1      -5.019   3.866 -21.500  0.00  0.00    -0.246 OA
BRANCH   9  11
ATOM     11  O   UNL     1      -5.069   3.485 -23.719  0.00  0.00    -0.462 OA
BRANCH  11  13
ATOM     12  C   UNL     1      -4.268   3.704 -25.812  0.00  0.00    +0.048 C 
ATOM     13  C   UNL     1      -4.601   4.234 -24.673  0.00  0.00    +0.229 C 
ENDBRANCH  11  13
ENDBRANCH   9  11
ENDBRANCH   7   9
ENDBRANCH   1   8
BRANCH   4  14
ATOM     14  O   UNL     1       2.560   1.636 -22.252  0.00  0.00    -0.495 OA
ATOM     15  C   UNL     1       2.743   0.380 -22.533  0.00  0.00    +0.277 C 
ENDBRANCH   4  14
TORSDOF 5
ENDMDL
MODEL 5
REMARK VINA RESULT:    -6.133      2.551      6.517
REMARK INTER + INTRA:          -8.314
REMARK INTER:                  -7.901
REMARK INTRA:                  -0.412
REMARK UNBOUND:                -0.388
REMARK  Name = ZINC000000899863
REMARK  7 active torsions:
REMARK  status: ('A' for Active; 'I' for Inactive)
REMARK    1  A    between atoms: C_1  and  C_2
REMARK    2  A    between atoms: C_2  and  O_3
REMARK    3  A    between atoms: O_3  and  C_4
REMARK    4  A    between atoms: C_4  and  C_6
REMARK    5  A    between atoms: C_7  and  C_8
REMARK    6  A    between atoms: C_11  and  O_12
REMARK    7  A    between atoms: O_12  and  C_13
REMARK                            x       y       z     vdW  Elec       q    Type
REMARK                         _______ _______ _______ _____ _____    ______ ____
ROOT
ATOM      1  C   UNL     1       0.875   3.600 -23.284  0.00  0.00    -0.025 A 
ATOM      2  C   UNL     1       1.010   4.885 -23.431  0.00  0.00    +0.011 A 
ATOM      3  C   UNL     1       2.185   5.431 -23.330  0.00  0.00    +0.046 A 
ATOM      4  C   UNL     1       3.226   4.693 -23.081  0.00  0.00    +0.120 A 
ATOM      5  C   UNL     1       3.091   3.408 -22.934  0.00  0.00    +0.046 A 
ATOM      6  C   UNL     1       1.915   2.862 -23.035  0.00  0.00    +0.011 A 
ENDROOT
BRANCH   1   8
ATOM      7  C   UNL     1      -1.367   3.794 -23.327  0.00  0.00    +0.092 C 
ATOM      8  C   UNL     1      -0.300   3.054 -23.386  0.00  0.00    +0.015 C 
BRANCH   7   9
ATOM      9  C   UNL     1      -2.543   3.247 -23.428  0.00  0.00    +0.332 C 
ATOM     10  O   UNL     1      -2.850   2.558 -24.487  0.00  0.00    -0.246 OA
BRANCH   9  11
ATOM     11  O   UNL     1      -3.411   3.391 -22.471  0.00  0.00    -0.462 OA
BRANCH  11  13
ATOM     12  C   UNL     1      -3.187   3.595 -20.240  0.00  0.00    +0.048 C 
ATOM     13  C   UNL     1      -3.192   2.854 -21.308  0.00  0.00    +0.229 C 
ENDBRANCH  11  13
ENDBRANCH   9  11
ENDBRANCH   7   9
ENDBRANCH   1   8
BRANCH   4  14
ATOM     14  O   UNL     1       4.401   5.239 -22.979  0.00  0.00    -0.495 OA
ATOM     15  C   UNL     1       5.467   4.495 -22.996  0.00  0.00    +0.277 C 
ENDBRANCH   4  14
TORSDOF 5
ENDMDL
MODEL 6
REMARK VINA RESULT:    -6.023      2.362      3.000
REMARK INTER + INTRA:          -8.171
REMARK INTER:                  -7.674
REMARK INTRA:                  -0.498
REMARK UNBOUND:                -0.388
REMARK  Name = ZINC000000899863
REMARK  7 active torsions:
REMARK  status: ('A' for Active; 'I' for Inactive)
REMARK    1  A    between atoms: C_1  and  C_2
REMARK    2  A    between atoms: C_2  and  O_3
REMARK    3  A    between atoms: O_3  and  C_4
REMARK    4  A    between atoms: C_4  and  C_6
REMARK    5  A    between atoms: C_7  and  C_8
REMARK    6  A    between atoms: C_11  and  O_12
REMARK    7  A    between atoms: O_12  and  C_13
REMARK                            x       y       z     vdW  Elec       q    Type
REMARK                         _______ _______ _______ _____ _____    ______ ____
ROOT
ATOM      1  C   UNL     1      -0.503   3.997 -24.395  0.00  0.00    -0.025 A 
ATOM      2  C   UNL     1      -1.157   3.605 -25.449  0.00  0.00    +0.011 A 
ATOM      3  C   UNL     1      -2.450   3.485 -25.404  0.00  0.00    +0.046 A 
ATOM      4  C   UNL     1      -3.091   3.757 -24.306  0.00  0.00    +0.120 A 
ATOM      5  C   UNL     1      -2.438   4.150 -23.253  0.00  0.00    +0.046 A 
ATOM      6  C   UNL     1      -1.144   4.270 -23.298  0.00  0.00    +0.011 A 
ENDROOT
BRANCH   1   8
ATOM      7  C   UNL     1       1.487   4.043 -23.345  0.00  0.00    +0.092 C 
ATOM      8  C   UNL     1       0.790   4.117 -24.440  0.00  0.00    +0.015 C 
BRANCH   7   9
ATOM      9  C   UNL     1       2.781   4.163 -23.389  0.00  0.00    +0.332 C 
ATOM     10  O   UNL     1       3.360   5.171 -22.807  0.00  0.00    -0.246 OA
BRANCH   9  11
ATOM     11  O   UNL     1       3.495   3.275 -24.015  0.00  0.00    -0.462 OA
BRANCH  11  13
ATOM     12  C   UNL     1       3.900   1.202 -23.235  0.00  0.00    +0.048 C 
ATOM     13  C   UNL     1       4.244   2.451 -23.343  0.00  0.00    +0.229 C 
ENDBRANCH  11  13
ENDBRANCH   9  11
ENDBRANCH   7   9
ENDBRANCH   1   8
BRANCH   4  14
ATOM     14  O   UNL     1      -4.385   3.638 -24.262  0.00  0.00    -0.495 OA
ATOM     15  C   UNL     1      -4.999   3.639 -23.116  0.00  0.00    +0.277 C 
ENDBRANCH   4  14
TORSDOF 5
ENDMDL
MODEL 7
REMARK VINA RESULT:    -5.975      1.789      6.572
REMARK INTER + INTRA:          -8.109
REMARK INTER:                  -7.671
REMARK INTRA:                  -0.439
REMARK UNBOUND:                -0.388
REMARK  Name = ZINC000000899863
REMARK  7 active torsions:
REMARK  status: ('A' for Active; 'I' for Inactive)
REMARK    1  A    between atoms: C_1  and  C_2
REMARK    2  A    between atoms: C_2  and  O_3
REMARK    3  A    between atoms: O_3  and  C_4
REMARK    4  A    between atoms: C_4  and  C_6
REMARK    5  A    between atoms: C_7  and  C_8
REMARK    6  A    between atoms: C_11  and  O_12
REMARK    7  A    between atoms: O_12  and  C_13
REMARK                            x       y       z     vdW  Elec       q    Type
REMARK                         _______ _______ _______ _____ _____    ______ ____
ROOT
ATOM      1  C   UNL     1       0.639   2.429 -22.666  0.00  0.00    -0.025 A 
ATOM      2  C   UNL     1       1.539   3.194 -23.209  0.00  0.00    +0.011 A 
ATOM      3  C   UNL     1       2.769   3.148 -22.792  0.00  0.00    +0.046 A 
ATOM      4  C   UNL     1       3.100   2.337 -21.832  0.00  0.00    +0.120 A 
ATOM      5  C   UNL     1       2.200   1.572 -21.288  0.00  0.00    +0.046 A 
ATOM      6  C   UNL     1       0.969   1.618 -21.706  0.00  0.00    +0.011 A 
ENDROOT
BRANCH   1   8
ATOM      7  C   UNL     1      -1.250   3.595 -23.040  0.00  0.00    +0.092 C 
ATOM      8  C   UNL     1      -0.591   2.475 -23.083  0.00  0.00    +0.015 C 
BRANCH   7   9
ATOM      9  C   UNL     1      -2.481   3.642 -23.457  0.00  0.00    +0.332 C 
ATOM     10  O   UNL     1      -2.841   4.545 -24.320  0.00  0.00    -0.246 OA
BRANCH   9  11
ATOM     11  O   UNL     1      -3.351   2.785 -23.011  0.00  0.00    -0.462 OA
BRANCH  11  13
ATOM     12  C   UNL     1      -5.336   3.510 -22.232  0.00  0.00    +0.048 C 
ATOM     13  C   UNL     1      -4.122   3.101 -22.012  0.00  0.00    +0.229 C 
ENDBRANCH  11  13
ENDBRANCH   9  11
ENDBRANCH   7   9
ENDBRANCH   1   8
BRANCH   4  14
ATOM     14  O   UNL     1       4.330   2.290 -21.414  0.00  0.00    -0.495 OA
ATOM     15  C   UNL     1       5.251   1.762 -22.164  0.00  0.00    +0.277 C 
ENDBRANCH   4  14
TORSDOF 5
ENDMDL
MODEL 8
REMARK VINA RESULT:    -5.932      1.565      2.138
REMARK INTER + INTRA:          -8.054
REMARK INTER:                  -7.567
REMARK INTRA:                  -0.487
REMARK UNBOUND:                -0.388
REMARK  Name = ZINC000000899863
REMARK  7 active torsions:
REMARK  status: ('A' for Active; 'I' for Inactive)
REMARK    1  A    between atoms: C_1  and  C_2
REMARK    2  A    between atoms: C_2  and  O_3
REMARK    3  A    between atoms: O_3  and  C_4
REMARK    4  A    between atoms: C_4  and  C_6
REMARK    5  A    between atoms: C_7  and  C_8
REMARK    6  A    between atoms: C_11  and  O_12
REMARK    7  A    between atoms: O_12  and  C_13
REMARK                            x       y       z     vdW  Elec       q    Type
REMARK                         _______ _______ _______ _____ _____    ______ ____
ROOT
ATOM      1  C   UNL     1      -0.285   3.134 -22.612  0.00  0.00    -0.025 A 
ATOM      2  C   UNL     1      -0.968   4.205 -22.887  0.00  0.00    +0.011 A 
ATOM      3  C   UNL     1      -2.195   4.319 -22.474  0.00  0.00    +0.046 A 
ATOM      4  C   UNL     1      -2.740   3.360 -21.785  0.00  0.00    +0.120 A 
ATOM      5  C   UNL     1      -2.058   2.288 -21.510  0.00  0.00    +0.046 A 
ATOM      6  C   UNL     1      -0.830   2.175 -21.924  0.00  0.00    +0.011 A 
ENDROOT
BRANCH   1   8
ATOM      7  C   UNL     1       1.571   1.891 -22.891  0.00  0.00    +0.092 C 
ATOM      8  C   UNL     1       0.942   3.020 -23.026  0.00  0.00    +0.015 C 
BRANCH   7   9
ATOM      9  C   UNL     1       2.798   1.777 -23.304  0.00  0.00    +0.332 C 
ATOM     10  O   UNL     1       3.282   2.639 -24.148  0.00  0.00    -0.246 OA
BRANCH   9  11
ATOM     11  O   UNL     1       3.541   0.800 -22.874  0.00  0.00    -0.462 OA
BRANCH  11  13
ATOM     12  C   UNL     1       4.358   0.432 -20.808  0.00  0.00    +0.048 C 
ATOM     13  C   UNL     1       3.384   0.348 -21.665  0.00  0.00    +0.229 C 
ENDBRANCH  11  13
ENDBRANCH   9  11
ENDBRANCH   7   9
ENDBRANCH   1   8
BRANCH   4  14
ATOM     14  O   UNL     1      -3.967   3.473 -21.371  0.00  0.00    -0.495 OA
ATOM     15  C   UNL     1      -4.950   3.381 -22.217  0.00  0.00    +0.277 C 
ENDBRANCH   4  14
TORSDOF 5
ENDMDL
MODEL 9
REMARK VINA RESULT:    -5.462      2.455      6.635
REMARK INTER + INTRA:          -7.447
REMARK INTER:                  -7.059
REMARK INTRA:                  -0.388
REMARK UNBOUND:                -0.388
REMARK  Name = ZINC000000899863
REMARK  7 active torsions:
REMARK  status: ('A' for Active; 'I' for Inactive)
REMARK    1  A    between atoms: C_1  and  C_2
REMARK    2  A    between atoms: C_2  and  O_3
REMARK    3  A    between atoms: O_3  and  C_4
REMARK    4  A    between atoms: C_4  and  C_6
REMARK    5  A    between atoms: C_7  and  C_8
REMARK    6  A    between atoms: C_11  and  O_12
REMARK    7  A    between atoms: O_12  and  C_13
REMARK                            x       y       z     vdW  Elec       q    Type
REMARK                         _______ _______ _______ _____ _____    ______ ____
ROOT
ATOM      1  C   UNL     1       1.456   2.833 -23.323  0.00  0.00    -0.025 A 
ATOM      2  C   UNL     1       1.340   1.923 -22.402  0.00  0.00    +0.011 A 
ATOM      3  C   UNL     1       2.376   1.226 -22.042  0.00  0.00    +0.046 A 
ATOM      4  C   UNL     1       3.529   1.439 -22.603  0.00  0.00    +0.120 A 
ATOM      5  C   UNL     1       3.646   2.349 -23.524  0.00  0.00    +0.046 A 
ATOM      6  C   UNL     1       2.609   3.046 -23.884  0.00  0.00    +0.011 A 
ENDROOT
BRANCH   1   8
ATOM      7  C   UNL     1      -0.717   2.938 -23.902  0.00  0.00    +0.092 C 
ATOM      8  C   UNL     1       0.420   3.530 -23.683  0.00  0.00    +0.015 C 
BRANCH   7   9
ATOM      9  C   UNL     1      -1.754   3.635 -24.262  0.00  0.00    +0.332 C 
ATOM     10  O   UNL     1      -1.860   4.878 -23.896  0.00  0.00    -0.246 OA
BRANCH   9  11
ATOM     11  O   UNL     1      -2.684   3.089 -24.987  0.00  0.00    -0.462 OA
BRANCH  11  13
ATOM     12  C   UNL     1      -4.822   3.774 -25.160  0.00  0.00    +0.048 C 
ATOM     13  C   UNL     1      -3.586   3.833 -25.557  0.00  0.00    +0.229 C 
ENDBRANCH  11  13
ENDBRANCH   9  11
ENDBRANCH   7   9
ENDBRANCH   1   8
BRANCH   4  14
ATOM     14  O   UNL     1       4.567   0.742 -22.243  0.00  0.00    -0.495 OA
ATOM     15  C   UNL     1       4.697   0.362 -21.007  0.00  0.00    +0.277 C 
ENDBRANCH   4  14
TORSDOF 5
ENDMDL
