MODEL 1
REMARK VINA RESULT:   -10.208      0.000      0.000
REMARK INTER + INTRA:         -11.822
REMARK INTER:                 -11.480
REMARK INTRA:                  -0.342
REMARK UNBOUND:                 0.177
REMARK  Name = COc1ccc2c(c1Oc1ccccc1)[C@]13CCN(C)[C@H](C2)[C@@H]1[C@@H](C)CC(=O)C3  ZINC000096316421
REMARK  6 active torsions:
REMARK  status: ('A' for Active; 'I' for Inactive)
REMARK    1  A    between atoms: C_1  and  O_2
REMARK    2  A    between atoms: O_2  and  C_3
REMARK    3  A    between atoms: C_8  and  O_9
REMARK    4  A    between atoms: O_9  and  C_10
REMARK    5  A    between atoms: N_19  and  C_20
REMARK    6  A    between atoms: C_24  and  C_25
REMARK                            x       y       z     vdW  Elec       q    Type
REMARK                         _______ _______ _______ _____ _____    ______ ____
ROOT
ATOM      1  C   UNL     1      -1.786   2.703 -21.227  0.00  0.00    +0.162 A 
ATOM      2  C   UNL     1      -2.943   2.731 -20.727  0.00  0.00    +0.050 A 
ATOM      3  C   UNL     1      -3.924   2.965 -21.485  0.00  0.00    +0.008 A 
ATOM      4  C   UNL     1      -3.684   3.194 -22.910  0.00  0.00    -0.035 A 
ATOM      5  C   UNL     1      -2.688   3.154 -23.254  0.00  0.00    +0.009 A 
ATOM      6  C   UNL     1      -2.317   3.270 -24.122  0.00  0.00    +0.019 C 
ATOM      7  C   UNL     1      -2.780   3.034 -22.526  0.00  0.00    +0.063 C 
ATOM      8  C   UNL     1      -4.198   3.114 -22.169  0.00  0.00    +0.132 C 
ATOM      9  N   UNL     1      -4.984   3.341 -23.002  0.00  0.00    +0.236 N 
ATOM     10  H   UNL     1      -5.401   3.545 -23.910  0.00  0.00    +0.203 HD
ATOM     11  C   UNL     1      -4.572   3.567 -24.508  0.00  0.00    +0.073 C 
ATOM     12  C   UNL     1      -5.958   3.281 -22.105  0.00  0.00    +0.190 C 
ATOM     13  C   UNL     1      -1.134   3.224 -24.536  0.00  0.00    +0.086 C 
ATOM     14  C   UNL     1      -0.891   3.422 -25.790  0.00  0.00    +0.134 C 
ATOM     15  O   UNL     1       0.311   3.377 -26.222  0.00  0.00    -0.297 OA
ATOM     16  C   UNL     1      -1.857   3.670 -26.639  0.00  0.00    +0.078 C 
ATOM     17  C   UNL     1      -3.085   3.725 -26.247  0.00  0.00    +0.002 C 
ATOM     18  C   UNL     1      -4.031   3.968 -27.078  0.00  0.00    +0.008 C 
ATOM     19  C   UNL     1      -3.368   3.539 -25.040  0.00  0.00    +0.052 C 
ATOM     20  C   UNL     1      -4.671   3.427 -23.663  0.00  0.00    +0.090 C 
ATOM     21  C   UNL     1      -1.646   2.913 -22.489  0.00  0.00    +0.174 A 
ENDROOT
BRANCH   1  23
ATOM     22  C   UNL     1       0.099   1.428 -20.645  0.00  0.00    +0.277 C 
ATOM     23  O   UNL     1      -0.593   2.474 -20.616  0.00  0.00    -0.491 OA
ENDBRANCH   1  23
BRANCH  21  24
ATOM     24  O   UNL     1      -0.359   2.948 -23.421  0.00  0.00    -0.452 OA
BRANCH  24  25
ATOM     25  C   UNL     1       0.869   3.613 -23.361  0.00  0.00    +0.129 A 
ATOM     26  C   UNL     1       1.893   2.846 -23.354  0.00  0.00    +0.046 A 
ATOM     27  C   UNL     1       3.065   3.352 -23.301  0.00  0.00    +0.004 A 
ATOM     28  C   UNL     1       3.214   4.617 -23.254  0.00  0.00    +0.000 A 
ATOM     29  C   UNL     1       2.191   5.386 -23.261  0.00  0.00    +0.004 A 
ATOM     30  C   UNL     1       1.017   4.882 -23.314  0.00  0.00    +0.046 A 
ENDBRANCH  24  25
ENDBRANCH  21  24
TORSDOF 3
ENDMDL
MODEL 2
REMARK VINA RESULT:    -9.829      1.233      1.937
REMARK INTER + INTRA:         -11.377
REMARK INTER:                 -10.583
REMARK INTRA:                  -0.794
REMARK UNBOUND:                 0.177
REMARK  Name = COc1ccc2c(c1Oc1ccccc1)[C@]13CCN(C)[C@H](C2)[C@@H]1[C@@H](C)CC(=O)C3  ZINC000096316421
REMARK  6 active torsions:
REMARK  status: ('A' for Active; 'I' for Inactive)
REMARK    1  A    between atoms: C_1  and  O_2
REMARK    2  A    between atoms: O_2  and  C_3
REMARK    3  A    between atoms: C_8  and  O_9
REMARK    4  A    between atoms: O_9  and  C_10
REMARK    5  A    between atoms: N_19  and  C_20
REMARK    6  A    between atoms: C_24  and  C_25
REMARK                            x       y       z     vdW  Elec       q    Type
REMARK                         _______ _______ _______ _____ _____    ______ ____
ROOT
ATOM      1  C   UNL     1       0.066   1.544 -21.293  0.00  0.00    +0.162 A 
ATOM      2  C   UNL     1      -0.935   1.388 -20.542  0.00  0.00    +0.050 A 
ATOM      3  C   UNL     1      -2.060   1.795 -20.941  0.00  0.00    +0.008 A 
ATOM      4  C   UNL     1      -2.163   2.430 -22.255  0.00  0.00    -0.035 A 
ATOM      5  C   UNL     1      -1.281   2.525 -22.826  0.00  0.00    +0.009 A 
ATOM      6  C   UNL     1      -1.126   2.897 -23.687  0.00  0.00    +0.019 C 
ATOM      7  C   UNL     1      -1.199   2.198 -22.163  0.00  0.00    +0.063 C 
ATOM      8  C   UNL     1      -2.485   2.124 -21.467  0.00  0.00    +0.132 C 
ATOM      9  N   UNL     1      -3.440   2.553 -21.984  0.00  0.00    +0.236 N 
ATOM     10  H   UNL     1      -4.056   2.993 -22.667  0.00  0.00    +0.203 HD
ATOM     11  C   UNL     1      -3.395   3.214 -23.416  0.00  0.00    +0.073 C 
ATOM     12  C   UNL     1      -4.170   2.205 -20.934  0.00  0.00    +0.190 C 
ATOM     13  C   UNL     1      -0.080   3.012 -24.370  0.00  0.00    +0.086 C 
ATOM     14  C   UNL     1      -0.140   3.569 -25.535  0.00  0.00    +0.134 C 
ATOM     15  O   UNL     1       0.920   3.691 -26.238  0.00  0.00    -0.297 OA
ATOM     16  C   UNL     1      -1.272   4.017 -26.018  0.00  0.00    +0.078 C 
ATOM     17  C   UNL     1      -2.367   3.914 -25.342  0.00  0.00    +0.002 C 
ATOM     18  C   UNL     1      -3.475   4.352 -25.815  0.00  0.00    +0.008 C 
ATOM     19  C   UNL     1      -2.357   3.381 -24.207  0.00  0.00    +0.052 C 
ATOM     20  C   UNL     1      -3.293   2.835 -22.648  0.00  0.00    +0.090 C 
ATOM     21  C   UNL     1      -0.095   2.111 -22.437  0.00  0.00    +0.174 A 
ENDROOT
BRANCH   1  23
ATOM     22  C   UNL     1       2.139   1.613 -20.191  0.00  0.00    +0.277 C 
ATOM     23  O   UNL     1       1.362   1.191 -21.080  0.00  0.00    -0.491 OA
ENDBRANCH   1  23
BRANCH  21  24
ATOM     24  O   UNL     1       0.930   2.456 -23.602  0.00  0.00    -0.452 OA
BRANCH  24  25
ATOM     25  C   UNL     1       2.296   2.749 -23.642  0.00  0.00    +0.129 A 
ATOM     26  C   UNL     1       2.608   3.905 -23.192  0.00  0.00    +0.046 A 
ATOM     27  C   UNL     1       3.831   4.274 -23.183  0.00  0.00    +0.004 A 
ATOM     28  C   UNL     1       4.738   3.492 -23.621  0.00  0.00    +0.000 A 
ATOM     29  C   UNL     1       4.428   2.336 -24.072  0.00  0.00    +0.004 A 
ATOM     30  C   UNL     1       3.205   1.965 -24.082  0.00  0.00    +0.046 A 
ENDBRANCH  24  25
ENDBRANCH  21  24
TORSDOF 3
ENDMDL
MODEL 3
REMARK VINA RESULT:    -9.435      1.336      3.885
REMARK INTER + INTRA:         -10.913
REMARK INTER:                 -10.490
REMARK INTRA:                  -0.423
REMARK UNBOUND:                 0.177
REMARK  Name = COc1ccc2c(c1Oc1ccccc1)[C@]13CCN(C)[C@H](C2)[C@@H]1[C@@H](C)CC(=O)C3  ZINC000096316421
REMARK  6 active torsions:
REMARK  status: ('A' for Active; 'I' for Inactive)
REMARK    1  A    between atoms: C_1  and  O_2
REMARK    2  A    between atoms: O_2  and  C_3
REMARK    3  A    between atoms: C_8  and  O_9
REMARK    4  A    between atoms: O_9  and  C_10
REMARK    5  A    between atoms: N_19  and  C_20
REMARK    6  A    between atoms: C_24  and  C_25
REMARK                            x       y       z     vdW  Elec       q    Type
REMARK                         _______ _______ _______ _____ _____    ______ ____
ROOT
ATOM      1  C   UNL     1       0.099   3.216 -25.483  0.00  0.00    +0.162 A 
ATOM      2  C   UNL     1      -0.785   3.662 -26.264  0.00  0.00    +0.050 A 
ATOM      3  C   UNL     1      -1.970   3.760 -25.842  0.00  0.00    +0.008 A 
ATOM      4  C   UNL     1      -2.274   3.355 -24.469  0.00  0.00    -0.035 A 
ATOM      5  C   UNL     1      -1.480   2.992 -23.877  0.00  0.00    +0.009 A 
ATOM      6  C   UNL     1      -1.457   2.681 -22.978  0.00  0.00    +0.019 C 
ATOM      7  C   UNL     1      -1.297   3.190 -24.570  0.00  0.00    +0.063 C 
ATOM      8  C   UNL     1      -2.475   3.675 -25.291  0.00  0.00    +0.132 C 
ATOM      9  N   UNL     1      -3.507   3.701 -24.747  0.00  0.00    +0.236 N 
ATOM     10  H   UNL     1      -4.227   3.604 -24.032  0.00  0.00    +0.203 HD
ATOM     11  C   UNL     1      -3.682   3.228 -23.252  0.00  0.00    +0.073 C 
ATOM     12  C   UNL     1      -4.076   4.188 -25.840  0.00  0.00    +0.190 C 
ATOM     13  C   UNL     1      -0.517   2.249 -22.270  0.00  0.00    +0.086 C 
ATOM     14  C   UNL     1      -0.755   1.883 -21.053  0.00  0.00    +0.134 C 
ATOM     15  O   UNL     1       0.196   1.441 -20.322  0.00  0.00    -0.297 OA
ATOM     16  C   UNL     1      -1.959   1.955 -20.543  0.00  0.00    +0.078 C 
ATOM     17  C   UNL     1      -2.949   2.396 -21.245  0.00  0.00    +0.002 C 
ATOM     18  C   UNL     1      -4.128   2.466 -20.746  0.00  0.00    +0.008 C 
ATOM     19  C   UNL     1      -2.766   2.761 -22.430  0.00  0.00    +0.052 C 
ATOM     20  C   UNL     1      -3.462   3.456 -24.054  0.00  0.00    +0.090 C 
ATOM     21  C   UNL     1      -0.236   2.878 -24.288  0.00  0.00    +0.174 A 
ENDROOT
BRANCH   1  23
ATOM     22  C   UNL     1       1.989   1.998 -26.165  0.00  0.00    +0.277 C 
ATOM     23  O   UNL     1       1.426   3.023 -25.711  0.00  0.00    -0.491 OA
ENDBRANCH   1  23
BRANCH  21  24
ATOM     24  O   UNL     1       0.609   2.293 -23.076  0.00  0.00    -0.452 OA
BRANCH  24  25
ATOM     25  C   UNL     1       1.976   2.197 -22.798  0.00  0.00    +0.129 A 
ATOM     26  C   UNL     1       2.423   1.002 -22.718  0.00  0.00    +0.046 A 
ATOM     27  C   UNL     1       3.660   0.800 -22.468  0.00  0.00    +0.004 A 
ATOM     28  C   UNL     1       4.446   1.790 -22.299  0.00  0.00    +0.000 A 
ATOM     29  C   UNL     1       4.001   2.987 -22.378  0.00  0.00    +0.004 A 
ATOM     30  C   UNL     1       2.764   3.189 -22.628  0.00  0.00    +0.046 A 
ENDBRANCH  24  25
ENDBRANCH  21  24
TORSDOF 3
ENDMDL
MODEL 4
REMARK VINA RESULT:    -9.187      2.928      6.759
REMARK INTER + INTRA:         -10.621
REMARK INTER:                  -9.983
REMARK INTRA:                  -0.639
REMARK UNBOUND:                 0.177
REMARK  Name = COc1ccc2c(c1Oc1ccccc1)[C@]13CCN(C)[C@H](C2)[C@@H]1[C@@H](C)CC(=O)C3  ZINC000096316421
REMARK  6 active torsions:
REMARK  status: ('A' for Active; 'I' for Inactive)
REMARK    1  A    between atoms: C_1  and  O_2
REMARK    2  A    between atoms: O_2  and  C_3
REMARK    3  A    between atoms: C_8  and  O_9
REMARK    4  A    between atoms: O_9  and  C_10
REMARK    5  A    between atoms: N_19  and  C_20
REMARK    6  A    between atoms: C_24  and  C_25
REMARK                            x       y       z     vdW  Elec       q    Type
REMARK                         _______ _______ _______ _____ _____    ______ ____
ROOT
ATOM      1  C   UNL     1       1.571   1.021 -22.249  0.00  0.00    +0.162 A 
ATOM      2  C   UNL     1       2.380   0.120 -21.898  0.00  0.00    +0.050 A 
ATOM      3  C   UNL     1       3.603   0.413 -21.793  0.00  0.00    +0.008 A 
ATOM      4  C   UNL     1       4.035   1.780 -22.082  0.00  0.00    -0.035 A 
ATOM      5  C   UNL     1       3.299   2.478 -22.371  0.00  0.00    +0.009 A 
ATOM      6  C   UNL     1       3.361   3.399 -22.600  0.00  0.00    +0.019 C 
ATOM      7  C   UNL     1       3.051   1.791 -22.230  0.00  0.00    +0.063 C 
ATOM      8  C   UNL     1       4.159   0.916 -21.841  0.00  0.00    +0.132 C 
ATOM      9  N   UNL     1       5.240   1.352 -21.794  0.00  0.00    +0.236 N 
ATOM     10  H   UNL     1       6.026   2.000 -21.846  0.00  0.00    +0.203 HD
ATOM     11  C   UNL     1       5.556   2.860 -22.137  0.00  0.00    +0.073 C 
ATOM     12  C   UNL     1       5.706   0.169 -21.421  0.00  0.00    +0.190 C 
ATOM     13  C   UNL     1       2.489   4.233 -22.943  0.00  0.00    +0.086 C 
ATOM     14  C   UNL     1       2.841   5.449 -23.205  0.00  0.00    +0.134 C 
ATOM     15  O   UNL     1       1.961   6.306 -23.556  0.00  0.00    -0.297 OA
ATOM     16  C   UNL     1       4.091   5.829 -23.119  0.00  0.00    +0.078 C 
ATOM     17  C   UNL     1       5.013   4.997 -22.768  0.00  0.00    +0.002 C 
ATOM     18  C   UNL     1       6.237   5.369 -22.684  0.00  0.00    +0.008 C 
ATOM     19  C   UNL     1       4.719   3.807 -22.505  0.00  0.00    +0.052 C 
ATOM     20  C   UNL     1       5.261   2.066 -21.976  0.00  0.00    +0.090 C 
ATOM     21  C   UNL     1       2.018   2.203 -22.489  0.00  0.00    +0.174 A 
ENDROOT
BRANCH   1  23
ATOM     22  C   UNL     1      -0.675   1.070 -21.564  0.00  0.00    +0.277 C 
ATOM     23  O   UNL     1       0.225   0.943 -22.427  0.00  0.00    -0.491 OA
ENDBRANCH   1  23
BRANCH  21  24
ATOM     24  O   UNL     1       1.289   3.541 -22.941  0.00  0.00    -0.452 OA
BRANCH  24  25
ATOM     25  C   UNL     1       0.059   3.824 -23.544  0.00  0.00    +0.129 A 
ATOM     26  C   UNL     1      -0.046   3.429 -24.755  0.00  0.00    +0.046 A 
ATOM     27  C   UNL     1      -1.130   3.637 -25.400  0.00  0.00    +0.004 A 
ATOM     28  C   UNL     1      -2.103   4.237 -24.836  0.00  0.00    +0.000 A 
ATOM     29  C   UNL     1      -1.999   4.633 -23.623  0.00  0.00    +0.004 A 
ATOM     30  C   UNL     1      -0.916   4.425 -22.977  0.00  0.00    +0.046 A 
ENDBRANCH  24  25
ENDBRANCH  21  24
TORSDOF 3
ENDMDL
MODEL 5
REMARK VINA RESULT:    -8.590      2.039      5.233
REMARK INTER + INTRA:          -9.920
REMARK INTER:                  -9.200
REMARK INTRA:                  -0.720
REMARK UNBOUND:                 0.177
REMARK  Name = COc1ccc2c(c1Oc1ccccc1)[C@]13CCN(C)[C@H](C2)[C@@H]1[C@@H](C)CC(=O)C3  ZINC000096316421
REMARK  6 active torsions:
REMARK  status: ('A' for Active; 'I' for Inactive)
REMARK    1  A    between atoms: C_1  and  O_2
REMARK    2  A    between atoms: O_2  and  C_3
REMARK    3  A    between atoms: C_8  and  O_9
REMARK    4  A    between atoms: O_9  and  C_10
REMARK    5  A    between atoms: N_19  and  C_20
REMARK    6  A    between atoms: C_24  and  C_25
REMARK                            x       y       z     vdW  Elec       q    Type
REMARK                         _______ _______ _______ _____ _____    ______ ____
ROOT
ATOM      1  C   UNL     1      -1.618   2.034 -21.641  0.00  0.00    +0.162 A 
ATOM      2  C   UNL     1      -1.118   1.532 -20.597  0.00  0.00    +0.050 A 
ATOM      3  C   UNL     1       0.136   1.420 -20.521  0.00  0.00    +0.008 A 
ATOM      4  C   UNL     1       0.961   1.873 -21.641  0.00  0.00    -0.035 A 
ATOM      5  C   UNL     1       0.470   2.281 -22.480  0.00  0.00    +0.009 A 
ATOM      6  C   UNL     1       0.807   2.629 -23.299  0.00  0.00    +0.019 C 
ATOM      7  C   UNL     1       0.026   2.060 -21.926  0.00  0.00    +0.063 C 
ATOM      8  C   UNL     1       0.818   1.513 -20.823  0.00  0.00    +0.132 C 
ATOM      9  N   UNL     1       1.981   1.483 -20.916  0.00  0.00    +0.236 N 
ATOM     10  H   UNL     1       2.926   1.589 -21.284  0.00  0.00    +0.203 HD
ATOM     11  C   UNL     1       2.737   2.012 -22.196  0.00  0.00    +0.073 C 
ATOM     12  C   UNL     1       2.067   0.935 -19.712  0.00  0.00    +0.190 C 
ATOM     13  C   UNL     1       0.228   3.116 -24.299  0.00  0.00    +0.086 C 
ATOM     14  C   UNL     1       0.930   3.524 -25.304  0.00  0.00    +0.134 C 
ATOM     15  O   UNL     1       0.350   4.022 -26.328  0.00  0.00    -0.297 OA
ATOM     16  C   UNL     1       2.238   3.441 -25.300  0.00  0.00    +0.078 C 
ATOM     17  C   UNL     1       2.865   2.945 -24.286  0.00  0.00    +0.002 C 
ATOM     18  C   UNL     1       4.145   2.864 -24.282  0.00  0.00    +0.008 C 
ATOM     19  C   UNL     1       2.225   2.536 -23.289  0.00  0.00    +0.052 C 
ATOM     20  C   UNL     1       2.216   1.757 -21.558  0.00  0.00    +0.090 C 
ATOM     21  C   UNL     1      -0.834   2.412 -22.589  0.00  0.00    +0.174 A 
ENDROOT
BRANCH   1  23
ATOM     22  C   UNL     1      -3.807   2.779 -21.227  0.00  0.00    +0.277 C 
ATOM     23  O   UNL     1      -2.925   2.253 -21.946  0.00  0.00    -0.491 OA
ENDBRANCH   1  23
BRANCH  21  24
ATOM     24  O   UNL     1      -1.126   3.068 -24.006  0.00  0.00    -0.452 OA
BRANCH  24  25
ATOM     25  C   UNL     1      -2.291   3.381 -24.714  0.00  0.00    +0.129 A 
ATOM     26  C   UNL     1      -2.775   4.537 -24.462  0.00  0.00    +0.046 A 
ATOM     27  C   UNL     1      -3.839   4.924 -25.054  0.00  0.00    +0.004 A 
ATOM     28  C   UNL     1      -4.416   4.158 -25.895  0.00  0.00    +0.000 A 
ATOM     29  C   UNL     1      -3.932   3.001 -26.149  0.00  0.00    +0.004 A 
ATOM     30  C   UNL     1      -2.868   2.613 -25.557  0.00  0.00    +0.046 A 
ENDBRANCH  24  25
ENDBRANCH  21  24
TORSDOF 3
ENDMDL
MODEL 6
REMARK VINA RESULT:    -8.178      2.767      7.107
REMARK INTER + INTRA:          -9.436
REMARK INTER:                  -9.186
REMARK INTRA:                  -0.250
REMARK UNBOUND:                 0.177
REMARK  Name = COc1ccc2c(c1Oc1ccccc1)[C@]13CCN(C)[C@H](C2)[C@@H]1[C@@H](C)CC(=O)C3  ZINC000096316421
REMARK  6 active torsions:
REMARK  status: ('A' for Active; 'I' for Inactive)
REMARK    1  A    between atoms: C_1  and  O_2
REMARK    2  A    between atoms: O_2  and  C_3
REMARK    3  A    between atoms: C_8  and  O_9
REMARK    4  A    between atoms: O_9  and  C_10
REMARK    5  A    between atoms: N_19  and  C_20
REMARK    6  A    between atoms: C_24  and  C_25
REMARK                            x       y       z     vdW  Elec       q    Type
REMARK                         _______ _______ _______ _____ _____    ______ ____
ROOT
ATOM      1  C   UNL     1       1.829   5.208 -23.413  0.00  0.00    +0.162 A 
ATOM      2  C   UNL     1       2.797   6.015 -23.400  0.00  0.00    +0.050 A 
ATOM      3  C   UNL     1       3.938   5.587 -23.072  0.00  0.00    +0.008 A 
ATOM      4  C   UNL     1       4.095   4.176 -22.720  0.00  0.00    -0.035 A 
ATOM      5  C   UNL     1       3.238   3.562 -22.754  0.00  0.00    +0.009 A 
ATOM      6  C   UNL     1       3.119   2.637 -22.569  0.00  0.00    +0.019 C 
ATOM      7  C   UNL     1       3.128   4.274 -22.938  0.00  0.00    +0.063 C 
ATOM      8  C   UNL     1       4.384   5.023 -22.853  0.00  0.00    +0.132 C 
ATOM      9  N   UNL     1       5.358   4.468 -22.530  0.00  0.00    +0.236 N 
ATOM     10  H   UNL     1       6.002   3.735 -22.233  0.00  0.00    +0.203 HD
ATOM     11  C   UNL     1       5.373   2.930 -22.178  0.00  0.00    +0.073 C 
ATOM     12  C   UNL     1       6.044   5.596 -22.647  0.00  0.00    +0.190 C 
ATOM     13  C   UNL     1       2.103   1.903 -22.608  0.00  0.00    +0.086 C 
ATOM     14  C   UNL     1       2.210   0.652 -22.303  0.00  0.00    +0.134 C 
ATOM     15  O   UNL     1       1.181  -0.105 -22.340  0.00  0.00    -0.297 OA
ATOM     16  C   UNL     1       3.361   0.133 -21.952  0.00  0.00    +0.078 C 
ATOM     17  C   UNL     1       4.426   0.860 -21.901  0.00  0.00    +0.002 C 
ATOM     18  C   UNL     1       5.552   0.353 -21.558  0.00  0.00    +0.008 C 
ATOM     19  C   UNL     1       4.369   2.079 -22.189  0.00  0.00    +0.052 C 
ATOM     20  C   UNL     1       5.239   3.755 -22.392  0.00  0.00    +0.090 C 
ATOM     21  C   UNL     1       2.037   3.979 -23.092  0.00  0.00    +0.174 A 
ENDROOT
BRANCH   1  23
ATOM     22  C   UNL     1      -0.399   5.801 -22.965  0.00  0.00    +0.277 C 
ATOM     23  O   UNL     1       0.526   5.435 -23.729  0.00  0.00    -0.491 OA
ENDBRANCH   1  23
BRANCH  21  24
ATOM     24  O   UNL     1       1.062   2.727 -23.006  0.00  0.00    -0.452 OA
BRANCH  24  25
ATOM     25  C   UNL     1      -0.320   2.577 -22.850  0.00  0.00    +0.129 A 
ATOM     26  C   UNL     1      -0.720   2.542 -21.637  0.00  0.00    +0.046 A 
ATOM     27  C   UNL     1      -1.965   2.408 -21.382  0.00  0.00    +0.004 A 
ATOM     28  C   UNL     1      -2.805   2.309 -22.336  0.00  0.00    +0.000 A 
ATOM     29  C   UNL     1      -2.406   2.343 -23.551  0.00  0.00    +0.004 A 
ATOM     30  C   UNL     1      -1.161   2.477 -23.807  0.00  0.00    +0.046 A 
ENDBRANCH  24  25
ENDBRANCH  21  24
TORSDOF 3
ENDMDL
MODEL 7
REMARK VINA RESULT:    -7.693      3.735      6.399
REMARK INTER + INTRA:          -8.865
REMARK INTER:                  -8.081
REMARK INTRA:                  -0.784
REMARK UNBOUND:                 0.177
REMARK  Name = COc1ccc2c(c1Oc1ccccc1)[C@]13CCN(C)[C@H](C2)[C@@H]1[C@@H](C)CC(=O)C3  ZINC000096316421
REMARK  6 active torsions:
REMARK  status: ('A' for Active; 'I' for Inactive)
REMARK    1  A    between atoms: C_1  and  O_2
REMARK    2  A    between atoms: O_2  and  C_3
REMARK    3  A    between atoms: C_8  and  O_9
REMARK    4  A    between atoms: O_9  and  C_10
REMARK    5  A    between atoms: N_19  and  C_20
REMARK    6  A    between atoms: C_24  and  C_25
REMARK                            x       y       z     vdW  Elec       q    Type
REMARK                         _______ _______ _______ _____ _____    ______ ____
ROOT
ATOM      1  C   UNL     1       3.430   5.891 -22.800  0.00  0.00    +0.162 A 
ATOM      2  C   UNL     1       2.286   6.190 -23.239  0.00  0.00    +0.050 A 
ATOM      3  C   UNL     1       1.470   5.259 -23.483  0.00  0.00    +0.008 A 
ATOM      4  C   UNL     1       1.879   3.874 -23.250  0.00  0.00    -0.035 A 
ATOM      5  C   UNL     1       2.853   3.703 -22.882  0.00  0.00    +0.009 A 
ATOM      6  C   UNL     1       3.312   2.900 -22.665  0.00  0.00    +0.019 C 
ATOM      7  C   UNL     1       2.672   4.417 -22.991  0.00  0.00    +0.063 C 
ATOM      8  C   UNL     1       1.304   4.526 -23.501  0.00  0.00    +0.132 C 
ATOM      9  N   UNL     1       0.680   3.555 -23.673  0.00  0.00    +0.236 N 
ATOM     10  H   UNL     1       0.409   2.573 -23.714  0.00  0.00    +0.203 HD
ATOM     11  C   UNL     1       1.260   2.118 -23.374  0.00  0.00    +0.073 C 
ATOM     12  C   UNL     1      -0.345   4.283 -24.093  0.00  0.00    +0.190 C 
ATOM     13  C   UNL     1       4.468   2.692 -22.227  0.00  0.00    +0.086 C 
ATOM     14  C   UNL     1       4.858   1.479 -22.011  0.00  0.00    +0.134 C 
ATOM     15  O   UNL     1       6.035   1.256 -21.565  0.00  0.00    -0.297 OA
ATOM     16  C   UNL     1       4.069   0.459 -22.241  0.00  0.00    +0.078 C 
ATOM     17  C   UNL     1       2.872   0.637 -22.692  0.00  0.00    +0.002 C 
ATOM     18  C   UNL     1       2.100  -0.361 -22.917  0.00  0.00    +0.008 C 
ATOM     19  C   UNL     1       2.451   1.797 -22.916  0.00  0.00    +0.052 C 
ATOM     20  C   UNL     1       1.057   2.947 -23.497  0.00  0.00    +0.090 C 
ATOM     21  C   UNL     1       3.725   4.652 -22.617  0.00  0.00    +0.174 A 
ENDROOT
BRANCH   1  23
ATOM     22  C   UNL     1       4.442   7.707 -21.706  0.00  0.00    +0.277 C 
ATOM     23  O   UNL     1       4.462   6.712 -22.469  0.00  0.00    -0.491 OA
ENDBRANCH   1  23
BRANCH  21  24
ATOM     24  O   UNL     1       5.046   3.944 -22.089  0.00  0.00    -0.452 OA
BRANCH  24  25
ATOM     25  C   UNL     1       6.386   4.331 -21.991  0.00  0.00    +0.129 A 
ATOM     26  C   UNL     1       7.017   4.357 -23.103  0.00  0.00    +0.046 A 
ATOM     27  C   UNL     1       8.249   4.697 -23.126  0.00  0.00    +0.004 A 
ATOM     28  C   UNL     1       8.846   5.010 -22.044  0.00  0.00    +0.000 A 
ATOM     29  C   UNL     1       8.215   4.984 -20.931  0.00  0.00    +0.004 A 
ATOM     30  C   UNL     1       6.984   4.644 -20.906  0.00  0.00    +0.046 A 
ENDBRANCH  24  25
ENDBRANCH  21  24
TORSDOF 3
ENDMDL
MODEL 8
REMARK VINA RESULT:    -7.233      6.072      9.327
REMARK INTER + INTRA:          -8.324
REMARK INTER:                  -7.581
REMARK INTRA:                  -0.744
REMARK UNBOUND:                 0.177
REMARK  Name = COc1ccc2c(c1Oc1ccccc1)[C@]13CCN(C)[C@H](C2)[C@@H]1[C@@H](C)CC(=O)C3  ZINC000096316421
REMARK  6 active torsions:
REMARK  status: ('A' for Active; 'I' for Inactive)
REMARK    1  A    between atoms: C_1  and  O_2
REMARK    2  A    between atoms: O_2  and  C_3
REMARK    3  A    between atoms: C_8  and  O_9
REMARK    4  A    between atoms: O_9  and  C_10
REMARK    5  A    between atoms: N_19  and  C_20
REMARK    6  A    between atoms: C_24  and  C_25
REMARK                            x       y       z     vdW  Elec       q    Type
REMARK                         _______ _______ _______ _____ _____    ______ ____
ROOT
ATOM      1  C   UNL     1       7.797   6.762 -22.183  0.00  0.00    +0.162 A 
ATOM      2  C   UNL     1       8.802   6.068 -22.500  0.00  0.00    +0.050 A 
ATOM      3  C   UNL     1       8.615   4.928 -23.004  0.00  0.00    +0.008 A 
ATOM      4  C   UNL     1       7.245   4.453 -23.203  0.00  0.00    -0.035 A 
ATOM      5  C   UNL     1       6.456   5.090 -22.913  0.00  0.00    +0.009 A 
ATOM      6  C   UNL     1       5.513   4.982 -22.953  0.00  0.00    +0.019 C 
ATOM      7  C   UNL     1       7.141   5.357 -22.800  0.00  0.00    +0.063 C 
ATOM      8  C   UNL     1       8.147   4.388 -23.239  0.00  0.00    +0.132 C 
ATOM      9  N   UNL     1       7.799   3.368 -23.688  0.00  0.00    +0.236 N 
ATOM     10  H   UNL     1       7.205   2.609 -24.020  0.00  0.00    +0.203 HD
ATOM     11  C   UNL     1       6.274   2.993 -23.841  0.00  0.00    +0.073 C 
ATOM     12  C   UNL     1       9.062   3.008 -23.860  0.00  0.00    +0.190 C 
ATOM     13  C   UNL     1       4.571   5.736 -22.610  0.00  0.00    +0.086 C 
ATOM     14  C   UNL     1       3.350   5.344 -22.773  0.00  0.00    +0.134 C 
ATOM     15  O   UNL     1       2.384   6.105 -22.427  0.00  0.00    -0.297 OA
ATOM     16  C   UNL     1       3.075   4.172 -23.290  0.00  0.00    +0.078 C 
ATOM     17  C   UNL     1       4.020   3.372 -23.654  0.00  0.00    +0.002 C 
ATOM     18  C   UNL     1       3.751   2.225 -24.160  0.00  0.00    +0.008 C 
ATOM     19  C   UNL     1       5.219   3.710 -23.514  0.00  0.00    +0.052 C 
ATOM     20  C   UNL     1       7.065   3.310 -23.708  0.00  0.00    +0.090 C 
ATOM     21  C   UNL     1       6.620   6.284 -22.385  0.00  0.00    +0.174 A 
ENDROOT
BRANCH   1  23
ATOM     22  C   UNL     1       8.410   8.439 -20.657  0.00  0.00    +0.277 C 
ATOM     23  O   UNL     1       7.752   8.004 -21.632  0.00  0.00    -0.491 OA
ENDBRANCH   1  23
BRANCH  21  24
ATOM     24  O   UNL     1       5.173   6.879 -22.108  0.00  0.00    -0.452 OA
BRANCH  24  25
ATOM     25  C   UNL     1       4.694   8.133 -21.716  0.00  0.00    +0.129 A 
ATOM     26  C   UNL     1       4.438   8.242 -20.468  0.00  0.00    +0.046 A 
ATOM     27  C   UNL     1       3.995   9.347 -20.004  0.00  0.00    +0.004 A 
ATOM     28  C   UNL     1       3.809  10.339 -20.784  0.00  0.00    +0.000 A 
ATOM     29  C   UNL     1       4.064  10.231 -22.034  0.00  0.00    +0.004 A 
ATOM     30  C   UNL     1       4.507   9.126 -22.499  0.00  0.00    +0.046 A 
ENDBRANCH  24  25
ENDBRANCH  21  24
TORSDOF 3
ENDMDL
