MODEL 1
REMARK VINA RESULT:   -11.209      0.000      0.000
REMARK INTER + INTRA:         -12.012
REMARK INTER:                 -11.862
REMARK INTRA:                  -0.150
REMARK UNBOUND:                -0.148
REMARK  Name = COc1ccc2c3c1O[C@@]1(C)C(=O)C=C[C@H]4[C@@H](C2)N(C)CC[C@@]341         ZINC000253504788
REMARK  4 active torsions:
REMARK  status: ('A' for Active; 'I' for Inactive)
REMARK    1  A    between atoms: C_1  and  O_2
REMARK    2  A    between atoms: O_2  and  C_3
REMARK    3  A    between atoms: C_10  and  C_11
REMARK    4  A    between atoms: N_19  and  C_20
REMARK                            x       y       z     vdW  Elec       q    Type
REMARK                         _______ _______ _______ _____ _____    ______ ____
ROOT
ATOM      1  C   UNL     1       0.805   2.220 -23.216  0.00  0.00    +0.162 A 
ATOM      2  C   UNL     1       0.775   1.879 -21.999  0.00  0.00    +0.050 A 
ATOM      3  C   UNL     1      -0.297   1.921 -21.353  0.00  0.00    +0.008 A 
ATOM      4  C   UNL     1      -1.351   2.305 -21.916  0.00  0.00    -0.034 A 
ATOM      5  C   UNL     1      -1.340   2.649 -23.128  0.00  0.00    +0.013 A 
ATOM      6  C   UNL     1      -2.391   3.032 -23.688  0.00  0.00    +0.062 C 
ATOM      7  C   UNL     1      -3.522   3.483 -24.428  0.00  0.00    +0.067 C 
ATOM      8  C   UNL     1      -4.746   3.541 -23.726  0.00  0.00    +0.132 C 
ATOM      9  N   UNL     1      -4.740   3.153 -22.371  0.00  0.00    +0.236 N 
ATOM     10  H   UNL     1      -5.596   3.175 -21.814  0.00  0.00    +0.203 HD
ATOM     11  C   UNL     1      -5.782   3.176 -21.677  0.00  0.00    +0.190 C 
ATOM     12  C   UNL     1      -3.491   2.733 -21.826  0.00  0.00    +0.076 C 
ATOM     13  C   UNL     1      -3.465   3.075 -23.045  0.00  0.00    +0.076 C 
ATOM     14  C   UNL     1      -4.526   3.462 -23.611  0.00  0.00    -0.013 C 
ATOM     15  C   UNL     1      -4.507   3.802 -24.816  0.00  0.00    +0.046 C 
ATOM     16  C   UNL     1      -3.427   3.761 -25.472  0.00  0.00    +0.200 C 
ATOM     17  O   UNL     1      -3.410   4.102 -26.677  0.00  0.00    -0.288 OA
ATOM     18  C   UNL     1      -2.375   3.378 -24.913  0.00  0.00    +0.180 C 
ATOM     19  C   UNL     1      -2.070   3.652 -26.096  0.00  0.00    +0.065 C 
ATOM     20  O   UNL     1      -0.897   3.104 -25.049  0.00  0.00    -0.473 OA
ATOM     21  C   UNL     1      -2.443   2.350 -21.263  0.00  0.00    +0.090 C 
ATOM     22  C   UNL     1      -0.261   2.608 -23.783  0.00  0.00    +0.167 A 
ENDROOT
BRANCH   1  24
ATOM     23  C   UNL     1       2.552   3.216 -24.027  0.00  0.00    +0.277 C 
ATOM     24  O   UNL     1       1.879   2.176 -23.857  0.00  0.00    -0.491 OA
ENDBRANCH   1  24
TORSDOF 1
ENDMDL
MODEL 2
REMARK VINA RESULT:   -10.602      1.972      3.173
REMARK INTER + INTRA:         -11.370
REMARK INTER:                 -11.255
REMARK INTRA:                  -0.115
REMARK UNBOUND:                -0.148
REMARK  Name = COc1ccc2c3c1O[C@@]1(C)C(=O)C=C[C@H]4[C@@H](C2)N(C)CC[C@@]341         ZINC000253504788
REMARK  4 active torsions:
REMARK  status: ('A' for Active; 'I' for Inactive)
REMARK    1  A    between atoms: C_1  and  O_2
REMARK    2  A    between atoms: O_2  and  C_3
REMARK    3  A    between atoms: C_10  and  C_11
REMARK    4  A    between atoms: N_19  and  C_20
REMARK                            x       y       z     vdW  Elec       q    Type
REMARK                         _______ _______ _______ _____ _____    ______ ____
ROOT
ATOM      1  C   UNL     1       0.237   1.867 -21.626  0.00  0.00    +0.162 A 
ATOM      2  C   UNL     1       1.071   1.990 -22.569  0.00  0.00    +0.050 A 
ATOM      3  C   UNL     1       0.710   2.431 -23.684  0.00  0.00    +0.008 A 
ATOM      4  C   UNL     1      -0.488   2.755 -23.869  0.00  0.00    -0.034 A 
ATOM      5  C   UNL     1      -1.333   2.640 -22.942  0.00  0.00    +0.013 A 
ATOM      6  C   UNL     1      -2.527   2.963 -23.130  0.00  0.00    +0.062 C 
ATOM      7  C   UNL     1      -3.909   3.299 -23.226  0.00  0.00    +0.067 C 
ATOM      8  C   UNL     1      -4.345   3.799 -24.472  0.00  0.00    +0.132 C 
ATOM      9  N   UNL     1      -3.386   3.921 -25.499  0.00  0.00    +0.236 N 
ATOM     10  H   UNL     1      -3.645   4.277 -26.420  0.00  0.00    +0.203 HD
ATOM     11  C   UNL     1      -3.690   4.356 -26.632  0.00  0.00    +0.190 C 
ATOM     12  C   UNL     1      -2.053   3.526 -25.185  0.00  0.00    +0.076 C 
ATOM     13  C   UNL     1      -2.890   3.405 -24.244  0.00  0.00    +0.076 C 
ATOM     14  C   UNL     1      -4.097   3.731 -24.431  0.00  0.00    -0.013 C 
ATOM     15  C   UNL     1      -4.931   3.614 -23.505  0.00  0.00    +0.046 C 
ATOM     16  C   UNL     1      -4.571   3.169 -22.377  0.00  0.00    +0.200 C 
ATOM     17  O   UNL     1      -5.407   3.052 -21.452  0.00  0.00    -0.288 OA
ATOM     18  C   UNL     1      -3.377   2.845 -22.189  0.00  0.00    +0.180 C 
ATOM     19  C   UNL     1      -3.979   2.628 -21.113  0.00  0.00    +0.065 C 
ATOM     20  O   UNL     1      -2.349   2.306 -21.225  0.00  0.00    -0.473 OA
ATOM     21  C   UNL     1      -0.858   3.204 -25.002  0.00  0.00    +0.090 C 
ATOM     22  C   UNL     1      -0.973   2.195 -21.816  0.00  0.00    +0.167 A 
ENDROOT
BRANCH   1  24
ATOM     23  C   UNL     1       1.811   1.454 -20.193  0.00  0.00    +0.277 C 
ATOM     24  O   UNL     1       0.602   1.426 -20.514  0.00  0.00    -0.491 OA
ENDBRANCH   1  24
TORSDOF 1
ENDMDL
MODEL 3
REMARK VINA RESULT:   -10.592      1.951      4.891
REMARK INTER + INTRA:         -11.359
REMARK INTER:                 -11.246
REMARK INTRA:                  -0.113
REMARK UNBOUND:                -0.148
REMARK  Name = COc1ccc2c3c1O[C@@]1(C)C(=O)C=C[C@H]4[C@@H](C2)N(C)CC[C@@]341         ZINC000253504788
REMARK  4 active torsions:
REMARK  status: ('A' for Active; 'I' for Inactive)
REMARK    1  A    between atoms: C_1  and  O_2
REMARK    2  A    between atoms: O_2  and  C_3
REMARK    3  A    between atoms: C_10  and  C_11
REMARK    4  A    between atoms: N_19  and  C_20
REMARK                            x       y       z     vdW  Elec       q    Type
REMARK                         _______ _______ _______ _____ _____    ______ ____
ROOT
ATOM      1  C   UNL     1      -3.434   3.249 -23.090  0.00  0.00    +0.162 A 
ATOM      2  C   UNL     1      -3.680   2.698 -21.978  0.00  0.00    +0.050 A 
ATOM      3  C   UNL     1      -2.764   2.154 -21.321  0.00  0.00    +0.008 A 
ATOM      4  C   UNL     1      -1.590   2.155 -21.767  0.00  0.00    -0.034 A 
ATOM      5  C   UNL     1      -1.325   2.699 -22.872  0.00  0.00    +0.013 A 
ATOM      6  C   UNL     1      -0.156   2.698 -23.314  0.00  0.00    +0.062 C 
ATOM      7  C   UNL     1       1.135   2.760 -23.916  0.00  0.00    +0.067 C 
ATOM      8  C   UNL     1       2.189   2.155 -23.197  0.00  0.00    +0.132 C 
ATOM      9  N   UNL     1       1.875   1.550 -21.963  0.00  0.00    +0.236 N 
ATOM     10  H   UNL     1       2.597   1.098 -21.401  0.00  0.00    +0.203 HD
ATOM     11  C   UNL     1       2.751   0.993 -21.264  0.00  0.00    +0.190 C 
ATOM     12  C   UNL     1       0.512   1.605 -21.547  0.00  0.00    +0.076 C 
ATOM     13  C   UNL     1       0.763   2.155 -22.659  0.00  0.00    +0.076 C 
ATOM     14  C   UNL     1       1.944   2.156 -23.107  0.00  0.00    -0.013 C 
ATOM     15  C   UNL     1       2.199   2.699 -24.206  0.00  0.00    +0.046 C 
ATOM     16  C   UNL     1       1.277   3.249 -24.873  0.00  0.00    +0.200 C 
ATOM     17  O   UNL     1       1.534   3.791 -25.972  0.00  0.00    -0.288 OA
ATOM     18  C   UNL     1       0.107   3.250 -24.432  0.00  0.00    +0.180 C 
ATOM     19  C   UNL     1       0.073   3.851 -25.529  0.00  0.00    +0.065 C 
ATOM     20  O   UNL     1      -1.329   3.662 -24.650  0.00  0.00    -0.473 OA
ATOM     21  C   UNL     1      -0.656   1.603 -21.101  0.00  0.00    +0.090 C 
ATOM     22  C   UNL     1      -2.247   3.248 -23.538  0.00  0.00    +0.167 A 
ENDROOT
BRANCH   1  24
ATOM     23  C   UNL     1      -5.533   3.734 -23.332  0.00  0.00    +0.277 C 
ATOM     24  O   UNL     1      -4.353   3.791 -23.743  0.00  0.00    -0.491 OA
ENDBRANCH   1  24
TORSDOF 1
ENDMDL
MODEL 4
REMARK VINA RESULT:   -10.570      2.194      5.430
REMARK INTER + INTRA:         -11.336
REMARK INTER:                 -11.220
REMARK INTRA:                  -0.117
REMARK UNBOUND:                -0.148
REMARK  Name = COc1ccc2c3c1O[C@@]1(C)C(=O)C=C[C@H]4[C@@H](C2)N(C)CC[C@@]341         ZINC000253504788
REMARK  4 active torsions:
REMARK  status: ('A' for Active; 'I' for Inactive)
REMARK    1  A    between atoms: C_1  and  O_2
REMARK    2  A    between atoms: O_2  and  C_3
REMARK    3  A    between atoms: C_10  and  C_11
REMARK    4  A    between atoms: N_19  and  C_20
REMARK                            x       y       z     vdW  Elec       q    Type
REMARK                         _______ _______ _______ _____ _____    ______ ____
ROOT
ATOM      1  C   UNL     1      -4.696   3.115 -22.368  0.00  0.00    +0.162 A 
ATOM      2  C   UNL     1      -5.087   3.739 -23.396  0.00  0.00    +0.050 A 
ATOM      3  C   UNL     1      -4.276   4.054 -24.295  0.00  0.00    +0.008 A 
ATOM      4  C   UNL     1      -3.064   3.748 -24.179  0.00  0.00    -0.034 A 
ATOM      5  C   UNL     1      -2.656   3.126 -23.162  0.00  0.00    +0.013 A 
ATOM      6  C   UNL     1      -1.448   2.822 -23.047  0.00  0.00    +0.062 C 
ATOM      7  C   UNL     1      -0.101   2.425 -22.809  0.00  0.00    +0.067 C 
ATOM      8  C   UNL     1       0.838   2.766 -23.806  0.00  0.00    +0.132 C 
ATOM      9  N   UNL     1       0.364   3.462 -24.938  0.00  0.00    +0.236 N 
ATOM     10  H   UNL     1       0.998   3.734 -25.690  0.00  0.00    +0.203 HD
ATOM     11  C   UNL     1       1.130   3.802 -25.867  0.00  0.00    +0.190 C 
ATOM     12  C   UNL     1      -1.029   3.761 -24.973  0.00  0.00    +0.076 C 
ATOM     13  C   UNL     1      -0.634   3.136 -23.946  0.00  0.00    +0.076 C 
ATOM     14  C   UNL     1       0.586   2.828 -23.829  0.00  0.00    -0.013 C 
ATOM     15  C   UNL     1       0.983   2.210 -22.815  0.00  0.00    +0.046 C 
ATOM     16  C   UNL     1       0.168   1.890 -21.904  0.00  0.00    +0.200 C 
ATOM     17  O   UNL     1       0.567   1.272 -20.891  0.00  0.00    -0.288 OA
ATOM     18  C   UNL     1      -1.041   2.194 -22.017  0.00  0.00    +0.180 C 
ATOM     19  C   UNL     1      -0.927   1.591 -20.926  0.00  0.00    +0.065 C 
ATOM     20  O   UNL     1      -2.421   2.147 -21.407  0.00  0.00    -0.473 OA
ATOM     21  C   UNL     1      -2.236   4.066 -25.091  0.00  0.00    +0.090 C 
ATOM     22  C   UNL     1      -3.472   2.807 -22.252  0.00  0.00    +0.167 A 
ENDROOT
BRANCH   1  24
ATOM     23  C   UNL     1      -6.713   2.605 -21.756  0.00  0.00    +0.277 C 
ATOM     24  O   UNL     1      -5.511   2.802 -21.471  0.00  0.00    -0.491 OA
ENDBRANCH   1  24
TORSDOF 1
ENDMDL
MODEL 5
REMARK VINA RESULT:   -10.004      2.836      6.619
REMARK INTER + INTRA:         -10.737
REMARK INTER:                 -10.617
REMARK INTRA:                  -0.120
REMARK UNBOUND:                -0.148
REMARK  Name = COc1ccc2c3c1O[C@@]1(C)C(=O)C=C[C@H]4[C@@H](C2)N(C)CC[C@@]341         ZINC000253504788
REMARK  4 active torsions:
REMARK  status: ('A' for Active; 'I' for Inactive)
REMARK    1  A    between atoms: C_1  and  O_2
REMARK    2  A    between atoms: O_2  and  C_3
REMARK    3  A    between atoms: C_10  and  C_11
REMARK    4  A    between atoms: N_19  and  C_20
REMARK                            x       y       z     vdW  Elec       q    Type
REMARK                         _______ _______ _______ _____ _____    ______ ____
ROOT
ATOM      1  C   UNL     1      -1.130   3.265 -23.370  0.00  0.00    +0.162 A 
ATOM      2  C   UNL     1      -1.214   4.498 -23.637  0.00  0.00    +0.050 A 
ATOM      3  C   UNL     1      -0.191   5.219 -23.643  0.00  0.00    +0.008 A 
ATOM      4  C   UNL     1       0.929   4.717 -23.382  0.00  0.00    -0.034 A 
ATOM      5  C   UNL     1       1.033   3.490 -23.114  0.00  0.00    +0.013 A 
ATOM      6  C   UNL     1       2.151   2.991 -22.854  0.00  0.00    +0.062 C 
ATOM      7  C   UNL     1       3.366   2.314 -22.544  0.00  0.00    +0.067 C 
ATOM      8  C   UNL     1       4.537   3.102 -22.544  0.00  0.00    +0.132 C 
ATOM      9  N   UNL     1       4.403   4.473 -22.846  0.00  0.00    +0.236 N 
ATOM     10  H   UNL     1       5.215   5.090 -22.860  0.00  0.00    +0.203 HD
ATOM     11  C   UNL     1       5.391   5.240 -22.867  0.00  0.00    +0.190 C 
ATOM     12  C   UNL     1       3.087   4.944 -23.128  0.00  0.00    +0.076 C 
ATOM     13  C   UNL     1       3.176   3.710 -22.860  0.00  0.00    +0.076 C 
ATOM     14  C   UNL     1       4.304   3.204 -22.597  0.00  0.00    -0.013 C 
ATOM     15  C   UNL     1       4.399   1.984 -22.332  0.00  0.00    +0.046 C 
ATOM     16  C   UNL     1       3.368   1.252 -22.324  0.00  0.00    +0.200 C 
ATOM     17  O   UNL     1       3.465   0.032 -22.058  0.00  0.00    -0.288 OA
ATOM     18  C   UNL     1       2.250   1.751 -22.584  0.00  0.00    +0.180 C 
ATOM     19  C   UNL     1       2.054   0.535 -22.359  0.00  0.00    +0.065 C 
ATOM     20  O   UNL     1       0.767   1.520 -22.743  0.00  0.00    -0.473 OA
ATOM     21  C   UNL     1       1.972   5.447 -23.388  0.00  0.00    +0.090 C 
ATOM     22  C   UNL     1       0.003   2.759 -23.107  0.00  0.00    +0.167 A 
ENDROOT
BRANCH   1  24
ATOM     23  C   UNL     1      -3.225   2.986 -22.886  0.00  0.00    +0.277 C 
ATOM     24  O   UNL     1      -2.155   2.549 -23.365  0.00  0.00    -0.491 OA
ENDBRANCH   1  24
TORSDOF 1
ENDMDL
MODEL 6
REMARK VINA RESULT:    -9.426      1.857      3.048
REMARK INTER + INTRA:         -10.125
REMARK INTER:                  -9.976
REMARK INTRA:                  -0.149
REMARK UNBOUND:                -0.148
REMARK  Name = COc1ccc2c3c1O[C@@]1(C)C(=O)C=C[C@H]4[C@@H](C2)N(C)CC[C@@]341         ZINC000253504788
REMARK  4 active torsions:
REMARK  status: ('A' for Active; 'I' for Inactive)
REMARK    1  A    between atoms: C_1  and  O_2
REMARK    2  A    between atoms: O_2  and  C_3
REMARK    3  A    between atoms: C_10  and  C_11
REMARK    4  A    between atoms: N_19  and  C_20
REMARK                            x       y       z     vdW  Elec       q    Type
REMARK                         _______ _______ _______ _____ _____    ______ ____
ROOT
ATOM      1  C   UNL     1       3.717   1.759 -22.450  0.00  0.00    +0.162 A 
ATOM      2  C   UNL     1       3.583   1.261 -21.295  0.00  0.00    +0.050 A 
ATOM      3  C   UNL     1       2.453   1.187 -20.762  0.00  0.00    +0.008 A 
ATOM      4  C   UNL     1       1.443   1.609 -21.376  0.00  0.00    -0.034 A 
ATOM      5  C   UNL     1       1.557   2.108 -22.528  0.00  0.00    +0.013 A 
ATOM      6  C   UNL     1       0.549   2.528 -23.138  0.00  0.00    +0.062 C 
ATOM      7  C   UNL     1      -0.523   3.038 -23.926  0.00  0.00    +0.067 C 
ATOM      8  C   UNL     1      -1.810   2.967 -23.351  0.00  0.00    +0.132 C 
ATOM      9  N   UNL     1      -1.920   2.405 -22.062  0.00  0.00    +0.236 N 
ATOM     10  H   UNL     1      -2.825   2.329 -21.598  0.00  0.00    +0.203 HD
ATOM     11  C   UNL     1      -3.023   2.306 -21.482  0.00  0.00    +0.190 C 
ATOM     12  C   UNL     1      -0.713   1.956 -21.451  0.00  0.00    +0.076 C 
ATOM     13  C   UNL     1      -0.583   2.455 -22.607  0.00  0.00    +0.076 C 
ATOM     14  C   UNL     1      -1.599   2.880 -23.225  0.00  0.00    -0.013 C 
ATOM     15  C   UNL     1      -1.478   3.375 -24.369  0.00  0.00    +0.046 C 
ATOM     16  C   UNL     1      -0.339   3.452 -24.912  0.00  0.00    +0.200 C 
ATOM     17  O   UNL     1      -0.219   3.947 -26.056  0.00  0.00    -0.288 OA
ATOM     18  C   UNL     1       0.670   3.032 -24.302  0.00  0.00    +0.180 C 
ATOM     19  C   UNL     1       1.076   3.467 -25.403  0.00  0.00    +0.065 C 
ATOM     20  O   UNL     1       2.164   2.823 -24.320  0.00  0.00    -0.473 OA
ATOM     21  C   UNL     1       0.292   1.535 -20.837  0.00  0.00    +0.090 C 
ATOM     22  C   UNL     1       2.695   2.185 -23.069  0.00  0.00    +0.167 A 
ENDROOT
BRANCH   1  24
ATOM     23  C   UNL     1       5.560   2.846 -22.803  0.00  0.00    +0.277 C 
ATOM     24  O   UNL     1       4.848   1.832 -22.979  0.00  0.00    -0.491 OA
ENDBRANCH   1  24
TORSDOF 1
ENDMDL
MODEL 7
REMARK VINA RESULT:    -9.384      2.142      4.305
REMARK INTER + INTRA:         -10.080
REMARK INTER:                 -10.283
REMARK INTRA:                   0.203
REMARK UNBOUND:                -0.148
REMARK  Name = COc1ccc2c3c1O[C@@]1(C)C(=O)C=C[C@H]4[C@@H](C2)N(C)CC[C@@]341         ZINC000253504788
REMARK  4 active torsions:
REMARK  status: ('A' for Active; 'I' for Inactive)
REMARK    1  A    between atoms: C_1  and  O_2
REMARK    2  A    between atoms: O_2  and  C_3
REMARK    3  A    between atoms: C_10  and  C_11
REMARK    4  A    between atoms: N_19  and  C_20
REMARK                            x       y       z     vdW  Elec       q    Type
REMARK                         _______ _______ _______ _____ _____    ______ ____
ROOT
ATOM      1  C   UNL     1      -4.600   2.914 -21.603  0.00  0.00    +0.162 A 
ATOM      2  C   UNL     1      -3.870   2.924 -20.570  0.00  0.00    +0.050 A 
ATOM      3  C   UNL     1      -2.630   3.072 -20.670  0.00  0.00    +0.008 A 
ATOM      4  C   UNL     1      -2.107   3.211 -21.801  0.00  0.00    -0.034 A 
ATOM      5  C   UNL     1      -2.818   3.204 -22.842  0.00  0.00    +0.013 A 
ATOM      6  C   UNL     1      -2.293   3.343 -23.968  0.00  0.00    +0.062 C 
ATOM      7  C   UNL     1      -1.809   3.492 -25.300  0.00  0.00    +0.067 C 
ATOM      8  C   UNL     1      -0.415   3.660 -25.444  0.00  0.00    +0.132 C 
ATOM      9  N   UNL     1       0.366   3.666 -24.270  0.00  0.00    +0.236 N 
ATOM     10  H   UNL     1       1.379   3.784 -24.313  0.00  0.00    +0.203 HD
ATOM     11  C   UNL     1       1.608   3.810 -24.309  0.00  0.00    +0.190 C 
ATOM     12  C   UNL     1      -0.327   3.500 -23.035  0.00  0.00    +0.076 C 
ATOM     13  C   UNL     1      -1.054   3.491 -24.070  0.00  0.00    +0.076 C 
ATOM     14  C   UNL     1      -0.526   3.631 -25.210  0.00  0.00    -0.013 C 
ATOM     15  C   UNL     1      -1.240   3.623 -26.239  0.00  0.00    +0.046 C 
ATOM     16  C   UNL     1      -2.492   3.474 -26.143  0.00  0.00    +0.200 C 
ATOM     17  O   UNL     1      -3.204   3.466 -27.173  0.00  0.00    -0.288 OA
ATOM     18  C   UNL     1      -3.017   3.335 -25.017  0.00  0.00    +0.180 C 
ATOM     19  C   UNL     1      -3.949   3.288 -25.851  0.00  0.00    +0.065 C 
ATOM     20  O   UNL     1      -4.289   3.135 -24.228  0.00  0.00    -0.473 OA
ATOM     21  C   UNL     1      -0.847   3.361 -21.906  0.00  0.00    +0.090 C 
ATOM     22  C   UNL     1      -4.068   3.055 -22.746  0.00  0.00    +0.167 A 
ENDROOT
BRANCH   1  24
ATOM     23  C   UNL     1      -6.603   3.248 -22.364  0.00  0.00    +0.277 C 
ATOM     24  O   UNL     1      -5.838   2.766 -21.499  0.00  0.00    -0.491 OA
ENDBRANCH   1  24
TORSDOF 1
ENDMDL
MODEL 8
REMARK VINA RESULT:    -8.753      2.790      4.658
REMARK INTER + INTRA:          -9.413
REMARK INTER:                  -9.298
REMARK INTRA:                  -0.115
REMARK UNBOUND:                -0.148
REMARK  Name = COc1ccc2c3c1O[C@@]1(C)C(=O)C=C[C@H]4[C@@H](C2)N(C)CC[C@@]341         ZINC000253504788
REMARK  4 active torsions:
REMARK  status: ('A' for Active; 'I' for Inactive)
REMARK    1  A    between atoms: C_1  and  O_2
REMARK    2  A    between atoms: O_2  and  C_3
REMARK    3  A    between atoms: C_10  and  C_11
REMARK    4  A    between atoms: N_19  and  C_20
REMARK                            x       y       z     vdW  Elec       q    Type
REMARK                         _______ _______ _______ _____ _____    ______ ____
ROOT
ATOM      1  C   UNL     1       3.734   1.093 -21.676  0.00  0.00    +0.162 A 
ATOM      2  C   UNL     1       4.509   1.402 -22.626  0.00  0.00    +0.050 A 
ATOM      3  C   UNL     1       4.060   1.935 -23.666  0.00  0.00    +0.008 A 
ATOM      4  C   UNL     1       2.830   2.165 -23.768  0.00  0.00    -0.034 A 
ATOM      5  C   UNL     1       2.042   1.864 -22.832  0.00  0.00    +0.013 A 
ATOM      6  C   UNL     1       0.817   2.094 -22.936  0.00  0.00    +0.062 C 
ATOM      7  C   UNL     1      -0.592   2.307 -22.942  0.00  0.00    +0.067 C 
ATOM      8  C   UNL     1      -1.128   2.906 -24.102  0.00  0.00    +0.132 C 
ATOM      9  N   UNL     1      -0.233   3.237 -25.141  0.00  0.00    +0.236 N 
ATOM     10  H   UNL     1      -0.565   3.672 -26.002  0.00  0.00    +0.203 HD
ATOM     11  C   UNL     1      -0.626   3.770 -26.202  0.00  0.00    +0.190 C 
ATOM     12  C   UNL     1       1.144   2.934 -24.924  0.00  0.00    +0.076 C 
ATOM     13  C   UNL     1       0.365   2.626 -23.975  0.00  0.00    +0.076 C 
ATOM     14  C   UNL     1      -0.873   2.858 -24.079  0.00  0.00    -0.013 C 
ATOM     15  C   UNL     1      -1.649   2.556 -23.144  0.00  0.00    +0.046 C 
ATOM     16  C   UNL     1      -1.200   2.018 -22.092  0.00  0.00    +0.200 C 
ATOM     17  O   UNL     1      -1.978   1.717 -21.158  0.00  0.00    -0.288 OA
ATOM     18  C   UNL     1       0.025   1.788 -21.987  0.00  0.00    +0.180 C 
ATOM     19  C   UNL     1      -0.503   1.391 -20.924  0.00  0.00    +0.065 C 
ATOM     20  O   UNL     1       1.142   1.238 -21.132  0.00  0.00    -0.473 OA
ATOM     21  C   UNL     1       2.369   2.706 -24.824  0.00  0.00    +0.090 C 
ATOM     22  C   UNL     1       2.492   1.327 -21.782  0.00  0.00    +0.167 A 
ENDROOT
BRANCH   1  24
ATOM     23  C   UNL     1       5.297  -0.019 -20.664  0.00  0.00    +0.277 C 
ATOM     24  O   UNL     1       4.189   0.561 -20.638  0.00  0.00    -0.491 OA
ENDBRANCH   1  24
TORSDOF 1
ENDMDL
