MODEL 1
REMARK VINA RESULT:   -10.525      0.000      0.000
REMARK INTER + INTRA:         -10.764
REMARK INTER:                 -11.826
REMARK INTRA:                   1.062
REMARK UNBOUND:                 0.991
REMARK  Name = COC1=C[C@]2(C)Oc3c(OC)ccc4c3[C@@]23CCN(C)[C@H](C4)C3=C1              ZINC000096316410
REMARK  6 active torsions:
REMARK  status: ('A' for Active; 'I' for Inactive)
REMARK    1  A    between atoms: C_1  and  O_2
REMARK    2  A    between atoms: O_2  and  C_3
REMARK    3  A    between atoms: C_5  and  C_6
REMARK    4  A    between atoms: C_9  and  O_10
REMARK    5  A    between atoms: O_10  and  C_11
REMARK    6  A    between atoms: N_19  and  C_20
REMARK                            x       y       z     vdW  Elec       q    Type
REMARK                         _______ _______ _______ _____ _____    ______ ____
ROOT
ATOM      1  C   UNL     1       0.582   2.222 -22.569  0.00  0.00    +0.120 C 
ATOM      2  C   UNL     1      -0.356   2.201 -21.718  0.00  0.00    +0.066 C 
ATOM      3  C   UNL     1      -1.508   2.562 -22.053  0.00  0.00    +0.143 C 
ATOM      4  O   UNL     1      -2.943   2.776 -21.628  0.00  0.00    -0.477 OA
ATOM      5  C   UNL     1      -3.825   3.289 -22.731  0.00  0.00    +0.168 A 
ATOM      6  C   UNL     1      -4.992   3.655 -23.071  0.00  0.00    +0.162 A 
ATOM      7  C   UNL     1      -5.205   4.037 -24.260  0.00  0.00    +0.050 A 
ATOM      8  C   UNL     1      -4.275   4.055 -25.099  0.00  0.00    +0.008 A 
ATOM      9  C   UNL     1      -3.120   3.693 -24.761  0.00  0.00    -0.034 A 
ATOM     10  C   UNL     1      -2.171   3.710 -25.610  0.00  0.00    +0.094 C 
ATOM     11  C   UNL     1      -1.021   3.349 -25.272  0.00  0.00    +0.097 C 
ATOM     12  C   UNL     1      -0.804   2.966 -24.084  0.00  0.00    -0.003 C 
ATOM     13  N   UNL     1       0.323   2.959 -24.991  0.00  0.00    +0.239 N 
ATOM     14  H   UNL     1       1.058   2.986 -25.698  0.00  0.00    +0.204 HD
ATOM     15  C   UNL     1       1.215   2.998 -25.869  0.00  0.00    +0.191 C 
ATOM     16  C   UNL     1       0.599   2.527 -23.675  0.00  0.00    +0.133 C 
ATOM     17  C   UNL     1      -0.470   2.516 -22.751  0.00  0.00    +0.071 C 
ATOM     18  C   UNL     1      -2.888   3.309 -23.581  0.00  0.00    +0.016 A 
ATOM     19  C   UNL     1      -1.574   2.239 -20.843  0.00  0.00    +0.062 C 
ATOM     20  C   UNL     1      -1.736   2.948 -23.246  0.00  0.00    +0.074 C 
ATOM     21  C   UNL     1       0.361   2.601 -23.743  0.00  0.00    +0.051 C 
ENDROOT
BRANCH   1  23
ATOM     22  C   UNL     1       2.686   2.674 -22.289  0.00  0.00    +0.277 C 
ATOM     23  O   UNL     1       1.734   1.861 -22.236  0.00  0.00    -0.495 OA
ENDBRANCH   1  23
BRANCH   6  24
ATOM     24  O   UNL     1      -5.926   3.638 -22.236  0.00  0.00    -0.491 OA
ATOM     25  C   UNL     1      -6.299   2.552 -21.733  0.00  0.00    +0.277 C 
ENDBRANCH   6  24
TORSDOF 2
ENDMDL
MODEL 2
REMARK VINA RESULT:   -10.510      1.765      5.670
REMARK INTER + INTRA:         -10.749
REMARK INTER:                 -11.690
REMARK INTRA:                   0.941
REMARK UNBOUND:                 0.991
REMARK  Name = COC1=C[C@]2(C)Oc3c(OC)ccc4c3[C@@]23CCN(C)[C@H](C4)C3=C1              ZINC000096316410
REMARK  6 active torsions:
REMARK  status: ('A' for Active; 'I' for Inactive)
REMARK    1  A    between atoms: C_1  and  O_2
REMARK    2  A    between atoms: O_2  and  C_3
REMARK    3  A    between atoms: C_5  and  C_6
REMARK    4  A    between atoms: C_9  and  O_10
REMARK    5  A    between atoms: O_10  and  C_11
REMARK    6  A    between atoms: N_19  and  C_20
REMARK                            x       y       z     vdW  Elec       q    Type
REMARK                         _______ _______ _______ _____ _____    ______ ____
ROOT
ATOM      1  C   UNL     1      -3.189   3.816 -24.626  0.00  0.00    +0.120 C 
ATOM      2  C   UNL     1      -2.050   3.793 -25.179  0.00  0.00    +0.066 C 
ATOM      3  C   UNL     1      -1.066   3.328 -24.559  0.00  0.00    +0.143 C 
ATOM      4  O   UNL     1       0.413   3.014 -24.579  0.00  0.00    -0.477 OA
ATOM      5  C   UNL     1       0.911   2.389 -23.306  0.00  0.00    +0.168 A 
ATOM      6  C   UNL     1       1.907   1.918 -22.677  0.00  0.00    +0.162 A 
ATOM      7  C   UNL     1       1.750   1.475 -21.500  0.00  0.00    +0.050 A 
ATOM      8  C   UNL     1       0.621   1.500 -20.957  0.00  0.00    +0.008 A 
ATOM      9  C   UNL     1      -0.364   1.967 -21.581  0.00  0.00    -0.034 A 
ATOM     10  C   UNL     1      -1.513   1.995 -21.032  0.00  0.00    +0.094 C 
ATOM     11  C   UNL     1      -2.494   2.461 -21.655  0.00  0.00    +0.097 C 
ATOM     12  C   UNL     1      -2.340   2.905 -22.832  0.00  0.00    -0.003 C 
ATOM     13  N   UNL     1      -3.674   2.969 -22.276  0.00  0.00    +0.239 N 
ATOM     14  H   UNL     1      -4.579   2.975 -21.804  0.00  0.00    +0.204 HD
ATOM     15  C   UNL     1      -4.778   2.969 -21.684  0.00  0.00    +0.191 C 
ATOM     16  C   UNL     1      -3.538   3.472 -23.588  0.00  0.00    +0.133 C 
ATOM     17  C   UNL     1      -2.253   3.430 -24.176  0.00  0.00    +0.071 C 
ATOM     18  C   UNL     1      -0.227   2.413 -22.754  0.00  0.00    +0.016 A 
ATOM     19  C   UNL     1      -0.640   3.690 -25.681  0.00  0.00    +0.062 C 
ATOM     20  C   UNL     1      -1.211   2.879 -23.374  0.00  0.00    +0.074 C 
ATOM     21  C   UNL     1      -3.334   3.376 -23.461  0.00  0.00    +0.051 C 
ENDROOT
BRANCH   1  23
ATOM     22  C   UNL     1      -4.998   3.508 -25.785  0.00  0.00    +0.277 C 
ATOM     23  O   UNL     1      -4.174   4.281 -25.244  0.00  0.00    -0.495 OA
ENDBRANCH   1  23
BRANCH   6  24
ATOM     24  O   UNL     1       3.038   1.891 -23.217  0.00  0.00    -0.491 OA
ATOM     25  C   UNL     1       3.303   1.017 -24.074  0.00  0.00    +0.277 C 
ENDBRANCH   6  24
TORSDOF 2
ENDMDL
MODEL 3
REMARK VINA RESULT:   -10.407      1.275      4.947
REMARK INTER + INTRA:         -10.633
REMARK INTER:                 -11.603
REMARK INTRA:                   0.970
REMARK UNBOUND:                 0.991
REMARK  Name = COC1=C[C@]2(C)Oc3c(OC)ccc4c3[C@@]23CCN(C)[C@H](C4)C3=C1              ZINC000096316410
REMARK  6 active torsions:
REMARK  status: ('A' for Active; 'I' for Inactive)
REMARK    1  A    between atoms: C_1  and  O_2
REMARK    2  A    between atoms: O_2  and  C_3
REMARK    3  A    between atoms: C_5  and  C_6
REMARK    4  A    between atoms: C_9  and  O_10
REMARK    5  A    between atoms: O_10  and  C_11
REMARK    6  A    between atoms: N_19  and  C_20
REMARK                            x       y       z     vdW  Elec       q    Type
REMARK                         _______ _______ _______ _____ _____    ______ ____
ROOT
ATOM      1  C   UNL     1      -4.456   3.467 -22.434  0.00  0.00    +0.120 C 
ATOM      2  C   UNL     1      -3.563   3.223 -21.568  0.00  0.00    +0.066 C 
ATOM      3  C   UNL     1      -2.370   3.092 -21.925  0.00  0.00    +0.143 C 
ATOM      4  O   UNL     1      -0.942   2.826 -21.504  0.00  0.00    -0.477 OA
ATOM      5  C   UNL     1       0.032   2.830 -22.648  0.00  0.00    +0.168 A 
ATOM      6  C   UNL     1       1.241   2.697 -23.011  0.00  0.00    +0.162 A 
ATOM      7  C   UNL     1       1.542   2.811 -24.236  0.00  0.00    +0.050 A 
ATOM      8  C   UNL     1       0.656   3.053 -25.089  0.00  0.00    +0.008 A 
ATOM      9  C   UNL     1      -0.540   3.184 -24.729  0.00  0.00    -0.034 A 
ATOM     10  C   UNL     1      -1.444   3.429 -25.592  0.00  0.00    +0.094 C 
ATOM     11  C   UNL     1      -2.637   3.559 -25.232  0.00  0.00    +0.097 C 
ATOM     12  C   UNL     1      -2.941   3.446 -24.007  0.00  0.00    -0.003 C 
ATOM     13  N   UNL     1      -4.021   3.725 -24.928  0.00  0.00    +0.239 N 
ATOM     14  H   UNL     1      -4.717   3.922 -25.648  0.00  0.00    +0.204 HD
ATOM     15  C   UNL     1      -4.864   3.966 -25.822  0.00  0.00    +0.191 C 
ATOM     16  C   UNL     1      -4.395   3.605 -23.571  0.00  0.00    +0.133 C 
ATOM     17  C   UNL     1      -3.374   3.333 -22.632  0.00  0.00    +0.071 C 
ATOM     18  C   UNL     1      -0.859   3.074 -23.512  0.00  0.00    +0.016 A 
ATOM     19  C   UNL     1      -2.389   2.934 -20.681  0.00  0.00    +0.062 C 
ATOM     20  C   UNL     1      -2.054   3.205 -23.155  0.00  0.00    +0.074 C 
ATOM     21  C   UNL     1      -4.148   3.578 -23.644  0.00  0.00    +0.051 C 
ENDROOT
BRANCH   1  23
ATOM     22  C   UNL     1      -6.313   2.597 -21.724  0.00  0.00    +0.277 C 
ATOM     23  O   UNL     1      -5.649   3.599 -22.079  0.00  0.00    -0.495 OA
ENDBRANCH   1  23
BRANCH   6  24
ATOM     24  O   UNL     1       2.130   2.456 -22.161  0.00  0.00    -0.491 OA
ATOM     25  C   UNL     1       2.391   1.272 -21.844  0.00  0.00    +0.277 C 
ENDBRANCH   6  24
TORSDOF 2
ENDMDL
MODEL 4
REMARK VINA RESULT:   -10.318      1.791      3.514
REMARK INTER + INTRA:         -10.533
REMARK INTER:                 -11.548
REMARK INTRA:                   1.015
REMARK UNBOUND:                 0.991
REMARK  Name = COC1=C[C@]2(C)Oc3c(OC)ccc4c3[C@@]23CCN(C)[C@H](C4)C3=C1              ZINC000096316410
REMARK  6 active torsions:
REMARK  status: ('A' for Active; 'I' for Inactive)
REMARK    1  A    between atoms: C_1  and  O_2
REMARK    2  A    between atoms: O_2  and  C_3
REMARK    3  A    between atoms: C_5  and  C_6
REMARK    4  A    between atoms: C_9  and  O_10
REMARK    5  A    between atoms: O_10  and  C_11
REMARK    6  A    between atoms: N_19  and  C_20
REMARK                            x       y       z     vdW  Elec       q    Type
REMARK                         _______ _______ _______ _____ _____    ______ ____
ROOT
ATOM      1  C   UNL     1       2.805   2.507 -23.950  0.00  0.00    +0.120 C 
ATOM      2  C   UNL     1       1.974   3.099 -24.701  0.00  0.00    +0.066 C 
ATOM      3  C   UNL     1       0.771   3.172 -24.361  0.00  0.00    +0.143 C 
ATOM      4  O   UNL     1      -0.617   3.663 -24.707  0.00  0.00    -0.477 OA
ATOM      5  C   UNL     1      -1.651   3.319 -23.671  0.00  0.00    +0.168 A 
ATOM      6  C   UNL     1      -2.869   3.393 -23.326  0.00  0.00    +0.162 A 
ATOM      7  C   UNL     1      -3.241   2.874 -22.231  0.00  0.00    +0.050 A 
ATOM      8  C   UNL     1      -2.416   2.290 -21.491  0.00  0.00    +0.008 A 
ATOM      9  C   UNL     1      -1.209   2.217 -21.835  0.00  0.00    -0.034 A 
ATOM     10  C   UNL     1      -0.366   1.624 -21.086  0.00  0.00    +0.094 C 
ATOM     11  C   UNL     1       0.836   1.552 -21.430  0.00  0.00    +0.097 C 
ATOM     12  C   UNL     1       1.211   2.070 -22.523  0.00  0.00    -0.003 C 
ATOM     13  N   UNL     1       2.224   1.414 -21.727  0.00  0.00    +0.239 N 
ATOM     14  H   UNL     1       2.871   0.931 -21.101  0.00  0.00    +0.204 HD
ATOM     15  C   UNL     1       3.006   0.819 -20.949  0.00  0.00    +0.191 C 
ATOM     16  C   UNL     1       2.677   1.980 -22.939  0.00  0.00    +0.133 C 
ATOM     17  C   UNL     1       1.723   2.633 -23.752  0.00  0.00    +0.071 C 
ATOM     18  C   UNL     1      -0.820   2.728 -22.921  0.00  0.00    +0.016 A 
ATOM     19  C   UNL     1       0.865   3.758 -25.466  0.00  0.00    +0.062 C 
ATOM     20  C   UNL     1       0.384   2.654 -23.262  0.00  0.00    +0.074 C 
ATOM     21  C   UNL     1       2.427   1.996 -22.869  0.00  0.00    +0.051 C 
ENDROOT
BRANCH   1  23
ATOM     22  C   UNL     1       4.889   3.010 -23.611  0.00  0.00    +0.277 C 
ATOM     23  O   UNL     1       4.009   2.432 -24.289  0.00  0.00    -0.495 OA
ENDBRANCH   1  23
BRANCH   6  24
ATOM     24  O   UNL     1      -3.698   3.976 -24.062  0.00  0.00    -0.491 OA
ATOM     25  C   UNL     1      -4.927   3.813 -23.877  0.00  0.00    +0.277 C 
ENDBRANCH   6  24
TORSDOF 2
ENDMDL
MODEL 5
REMARK VINA RESULT:   -10.031      1.933      6.072
REMARK INTER + INTRA:         -10.213
REMARK INTER:                 -11.161
REMARK INTRA:                   0.949
REMARK UNBOUND:                 0.991
REMARK  Name = COC1=C[C@]2(C)Oc3c(OC)ccc4c3[C@@]23CCN(C)[C@H](C4)C3=C1              ZINC000096316410
REMARK  6 active torsions:
REMARK  status: ('A' for Active; 'I' for Inactive)
REMARK    1  A    between atoms: C_1  and  O_2
REMARK    2  A    between atoms: O_2  and  C_3
REMARK    3  A    between atoms: C_5  and  C_6
REMARK    4  A    between atoms: C_9  and  O_10
REMARK    5  A    between atoms: O_10  and  C_11
REMARK    6  A    between atoms: N_19  and  C_20
REMARK                            x       y       z     vdW  Elec       q    Type
REMARK                         _______ _______ _______ _____ _____    ______ ____
ROOT
ATOM      1  C   UNL     1      -1.646   3.661 -24.478  0.00  0.00    +0.120 C 
ATOM      2  C   UNL     1      -0.506   3.779 -25.019  0.00  0.00    +0.066 C 
ATOM      3  C   UNL     1       0.508   3.332 -24.437  0.00  0.00    +0.143 C 
ATOM      4  O   UNL     1       2.007   3.136 -24.472  0.00  0.00    -0.477 OA
ATOM      5  C   UNL     1       2.549   2.429 -23.262  0.00  0.00    +0.168 A 
ATOM      6  C   UNL     1       3.576   1.975 -22.672  0.00  0.00    +0.162 A 
ATOM      7  C   UNL     1       3.451   1.407 -21.546  0.00  0.00    +0.050 A 
ATOM      8  C   UNL     1       2.322   1.292 -21.014  0.00  0.00    +0.008 A 
ATOM      9  C   UNL     1       1.305   1.742 -21.600  0.00  0.00    -0.034 A 
ATOM     10  C   UNL     1       0.156   1.627 -21.063  0.00  0.00    +0.094 C 
ATOM     11  C   UNL     1      -0.857   2.075 -21.648  0.00  0.00    +0.097 C 
ATOM     12  C   UNL     1      -0.734   2.644 -22.774  0.00  0.00    -0.003 C 
ATOM     13  N   UNL     1      -2.071   2.551 -22.228  0.00  0.00    +0.239 N 
ATOM     14  H   UNL     1      -2.975   2.440 -21.767  0.00  0.00    +0.204 HD
ATOM     15  C   UNL     1      -3.173   2.408 -21.651  0.00  0.00    +0.191 C 
ATOM     16  C   UNL     1      -1.970   3.189 -23.483  0.00  0.00    +0.133 C 
ATOM     17  C   UNL     1      -0.684   3.305 -24.058  0.00  0.00    +0.071 C 
ATOM     18  C   UNL     1       1.411   2.310 -22.722  0.00  0.00    +0.016 A 
ATOM     19  C   UNL     1       0.908   3.835 -25.514  0.00  0.00    +0.062 C 
ATOM     20  C   UNL     1       0.395   2.758 -23.304  0.00  0.00    +0.074 C 
ATOM     21  C   UNL     1      -1.760   3.097 -23.364  0.00  0.00    +0.051 C 
ENDROOT
BRANCH   1  23
ATOM     22  C   UNL     1      -3.341   3.360 -25.800  0.00  0.00    +0.277 C 
ATOM     23  O   UNL     1      -2.662   4.108 -25.058  0.00  0.00    -0.495 OA
ENDBRANCH   1  23
BRANCH   6  24
ATOM     24  O   UNL     1       4.707   2.088 -23.199  0.00  0.00    -0.491 OA
ATOM     25  C   UNL     1       5.656   2.587 -22.551  0.00  0.00    +0.277 C 
ENDBRANCH   6  24
TORSDOF 2
ENDMDL
MODEL 6
REMARK VINA RESULT:    -9.821      1.447      2.463
REMARK INTER + INTRA:          -9.979
REMARK INTER:                 -11.138
REMARK INTRA:                   1.159
REMARK UNBOUND:                 0.991
REMARK  Name = COC1=C[C@]2(C)Oc3c(OC)ccc4c3[C@@]23CCN(C)[C@H](C4)C3=C1              ZINC000096316410
REMARK  6 active torsions:
REMARK  status: ('A' for Active; 'I' for Inactive)
REMARK    1  A    between atoms: C_1  and  O_2
REMARK    2  A    between atoms: O_2  and  C_3
REMARK    3  A    between atoms: C_5  and  C_6
REMARK    4  A    between atoms: C_9  and  O_10
REMARK    5  A    between atoms: O_10  and  C_11
REMARK    6  A    between atoms: N_19  and  C_20
REMARK                            x       y       z     vdW  Elec       q    Type
REMARK                         _______ _______ _______ _____ _____    ______ ____
ROOT
ATOM      1  C   UNL     1       1.847   1.563 -21.487  0.00  0.00    +0.120 C 
ATOM      2  C   UNL     1       0.614   1.483 -21.204  0.00  0.00    +0.066 C 
ATOM      3  C   UNL     1      -0.240   1.894 -22.022  0.00  0.00    +0.143 C 
ATOM      4  O   UNL     1      -1.707   2.095 -22.331  0.00  0.00    -0.477 OA
ATOM      5  C   UNL     1      -1.957   2.722 -23.673  0.00  0.00    +0.168 A 
ATOM      6  C   UNL     1      -2.822   3.139 -24.503  0.00  0.00    +0.162 A 
ATOM      7  C   UNL     1      -2.442   3.631 -25.607  0.00  0.00    +0.050 A 
ATOM      8  C   UNL     1      -1.223   3.709 -25.883  0.00  0.00    +0.008 A 
ATOM      9  C   UNL     1      -0.368   3.296 -25.061  0.00  0.00    -0.034 A 
ATOM     10  C   UNL     1       0.874   3.373 -25.337  0.00  0.00    +0.094 C 
ATOM     11  C   UNL     1       1.725   2.961 -24.517  0.00  0.00    +0.097 C 
ATOM     12  C   UNL     1       1.349   2.468 -23.412  0.00  0.00    -0.003 C 
ATOM     13  N   UNL     1       2.774   2.522 -23.654  0.00  0.00    +0.239 N 
ATOM     14  H   UNL     1       3.759   2.600 -23.911  0.00  0.00    +0.204 HD
ATOM     15  C   UNL     1       3.979   2.624 -23.982  0.00  0.00    +0.191 C 
ATOM     16  C   UNL     1       2.390   1.967 -22.414  0.00  0.00    +0.133 C 
ATOM     17  C   UNL     1       1.007   1.893 -22.130  0.00  0.00    +0.071 C 
ATOM     18  C   UNL     1      -0.726   2.802 -23.956  0.00  0.00    +0.016 A 
ATOM     19  C   UNL     1      -0.875   1.463 -21.031  0.00  0.00    +0.062 C 
ATOM     20  C   UNL     1       0.129   2.391 -23.137  0.00  0.00    +0.074 C 
ATOM     21  C   UNL     1       2.212   2.052 -22.582  0.00  0.00    +0.051 C 
ENDROOT
BRANCH   1  23
ATOM     22  C   UNL     1       3.625   0.396 -21.054  0.00  0.00    +0.277 C 
ATOM     23  O   UNL     1       2.703   1.153 -20.670  0.00  0.00    -0.495 OA
ENDBRANCH   1  23
BRANCH   6  24
ATOM     24  O   UNL     1      -4.043   3.063 -24.231  0.00  0.00    -0.491 OA
ATOM     25  C   UNL     1      -4.806   4.020 -24.498  0.00  0.00    +0.277 C 
ENDBRANCH   6  24
TORSDOF 2
ENDMDL
MODEL 7
REMARK VINA RESULT:    -9.742      1.245      4.990
REMARK INTER + INTRA:          -9.891
REMARK INTER:                 -11.036
REMARK INTRA:                   1.146
REMARK UNBOUND:                 0.991
REMARK  Name = COC1=C[C@]2(C)Oc3c(OC)ccc4c3[C@@]23CCN(C)[C@H](C4)C3=C1              ZINC000096316410
REMARK  6 active torsions:
REMARK  status: ('A' for Active; 'I' for Inactive)
REMARK    1  A    between atoms: C_1  and  O_2
REMARK    2  A    between atoms: O_2  and  C_3
REMARK    3  A    between atoms: C_5  and  C_6
REMARK    4  A    between atoms: C_9  and  O_10
REMARK    5  A    between atoms: O_10  and  C_11
REMARK    6  A    between atoms: N_19  and  C_20
REMARK                            x       y       z     vdW  Elec       q    Type
REMARK                         _______ _______ _______ _____ _____    ______ ____
ROOT
ATOM      1  C   UNL     1      -3.399   2.953 -23.066  0.00  0.00    +0.120 C 
ATOM      2  C   UNL     1      -2.635   2.690 -22.090  0.00  0.00    +0.066 C 
ATOM      3  C   UNL     1      -1.393   2.727 -22.243  0.00  0.00    +0.143 C 
ATOM      4  O   UNL     1      -0.031   2.553 -21.609  0.00  0.00    -0.477 OA
ATOM      5  C   UNL     1       1.108   2.802 -22.558  0.00  0.00    +0.168 A 
ATOM      6  C   UNL     1       2.367   2.840 -22.714  0.00  0.00    +0.162 A 
ATOM      7  C   UNL     1       2.847   3.140 -23.847  0.00  0.00    +0.050 A 
ATOM      8  C   UNL     1       2.088   3.399 -24.811  0.00  0.00    +0.008 A 
ATOM      9  C   UNL     1       0.843   3.362 -24.654  0.00  0.00    -0.034 A 
ATOM     10  C   UNL     1       0.068   3.625 -25.631  0.00  0.00    +0.094 C 
ATOM     11  C   UNL     1      -1.174   3.587 -25.474  0.00  0.00    +0.097 C 
ATOM     12  C   UNL     1      -1.657   3.287 -24.341  0.00  0.00    -0.003 C 
ATOM     13  N   UNL     1      -2.599   3.572 -25.402  0.00  0.00    +0.239 N 
ATOM     14  H   UNL     1      -3.188   3.789 -26.207  0.00  0.00    +0.204 HD
ATOM     15  C   UNL     1      -3.309   3.840 -26.398  0.00  0.00    +0.191 C 
ATOM     16  C   UNL     1      -3.171   3.242 -24.153  0.00  0.00    +0.133 C 
ATOM     17  C   UNL     1      -2.291   2.954 -23.085  0.00  0.00    +0.071 C 
ATOM     18  C   UNL     1       0.346   3.064 -23.533  0.00  0.00    +0.016 A 
ATOM     19  C   UNL     1      -1.595   2.408 -21.047  0.00  0.00    +0.062 C 
ATOM     20  C   UNL     1      -0.898   3.028 -23.379  0.00  0.00    +0.074 C 
ATOM     21  C   UNL     1      -2.914   3.249 -24.184  0.00  0.00    +0.051 C 
ENDROOT
BRANCH   1  23
ATOM     22  C   UNL     1      -5.352   3.861 -23.330  0.00  0.00    +0.277 C 
ATOM     23  O   UNL     1      -4.641   2.916 -22.915  0.00  0.00    -0.495 OA
ENDBRANCH   1  23
BRANCH   6  24
ATOM     24  O   UNL     1       3.129   2.581 -21.753  0.00  0.00    -0.491 OA
ATOM     25  C   UNL     1       3.328   1.392 -21.412  0.00  0.00    +0.277 C 
ENDBRANCH   6  24
TORSDOF 2
ENDMDL
MODEL 8
REMARK VINA RESULT:    -8.646      2.951      6.825
REMARK INTER + INTRA:          -8.666
REMARK INTER:                  -9.649
REMARK INTRA:                   0.983
REMARK UNBOUND:                 0.991
REMARK  Name = COC1=C[C@]2(C)Oc3c(OC)ccc4c3[C@@]23CCN(C)[C@H](C4)C3=C1              ZINC000096316410
REMARK  6 active torsions:
REMARK  status: ('A' for Active; 'I' for Inactive)
REMARK    1  A    between atoms: C_1  and  O_2
REMARK    2  A    between atoms: O_2  and  C_3
REMARK    3  A    between atoms: C_5  and  C_6
REMARK    4  A    between atoms: C_9  and  O_10
REMARK    5  A    between atoms: O_10  and  C_11
REMARK    6  A    between atoms: N_19  and  C_20
REMARK                            x       y       z     vdW  Elec       q    Type
REMARK                         _______ _______ _______ _____ _____    ______ ____
ROOT
ATOM      1  C   UNL     1       0.403   1.904 -22.750  0.00  0.00    +0.120 C 
ATOM      2  C   UNL     1       1.459   1.211 -22.649  0.00  0.00    +0.066 C 
ATOM      3  C   UNL     1       2.578   1.773 -22.688  0.00  0.00    +0.143 C 
ATOM      4  O   UNL     1       4.081   1.611 -22.637  0.00  0.00    -0.477 OA
ATOM      5  C   UNL     1       4.828   2.908 -22.768  0.00  0.00    +0.168 A 
ATOM      6  C   UNL     1       5.962   3.477 -22.808  0.00  0.00    +0.162 A 
ATOM      7  C   UNL     1       6.024   4.735 -22.949  0.00  0.00    +0.050 A 
ATOM      8  C   UNL     1       4.977   5.417 -23.048  0.00  0.00    +0.008 A 
ATOM      9  C   UNL     1       3.856   4.851 -23.008  0.00  0.00    -0.034 A 
ATOM     10  C   UNL     1       2.789   5.540 -23.109  0.00  0.00    +0.094 C 
ATOM     11  C   UNL     1       1.672   4.976 -23.069  0.00  0.00    +0.097 C 
ATOM     12  C   UNL     1       1.607   3.718 -22.929  0.00  0.00    -0.003 C 
ATOM     13  N   UNL     1       0.353   4.432 -23.036  0.00  0.00    +0.239 N 
ATOM     14  H   UNL     1      -0.479   5.017 -23.120  0.00  0.00    +0.204 HD
ATOM     15  C   UNL     1      -0.659   5.162 -23.140  0.00  0.00    +0.191 C 
ATOM     16  C   UNL     1       0.244   3.033 -22.880  0.00  0.00    +0.133 C 
ATOM     17  C   UNL     1       1.441   2.291 -22.771  0.00  0.00    +0.071 C 
ATOM     18  C   UNL     1       3.774   3.599 -22.869  0.00  0.00    +0.016 A 
ATOM     19  C   UNL     1       2.800   0.547 -22.545  0.00  0.00    +0.062 C 
ATOM     20  C   UNL     1       2.654   3.038 -22.829  0.00  0.00    +0.074 C 
ATOM     21  C   UNL     1       0.475   3.148 -22.889  0.00  0.00    +0.051 C 
ENDROOT
BRANCH   1  23
ATOM     22  C   UNL     1      -1.443   1.465 -21.697  0.00  0.00    +0.277 C 
ATOM     23  O   UNL     1      -0.716   1.345 -22.710  0.00  0.00    -0.495 OA
ENDBRANCH   1  23
BRANCH   6  24
ATOM     24  O   UNL     1       7.011   2.800 -22.709  0.00  0.00    -0.491 OA
ATOM     25  C   UNL     1       8.009   3.081 -23.413  0.00  0.00    +0.277 C 
ENDBRANCH   6  24
TORSDOF 2
ENDMDL
MODEL 9
REMARK VINA RESULT:    -8.252      1.972      6.112
REMARK INTER + INTRA:          -8.226
REMARK INTER:                  -9.217
REMARK INTRA:                   0.991
REMARK UNBOUND:                 0.991
REMARK  Name = COC1=C[C@]2(C)Oc3c(OC)ccc4c3[C@@]23CCN(C)[C@H](C4)C3=C1              ZINC000096316410
REMARK  6 active torsions:
REMARK  status: ('A' for Active; 'I' for Inactive)
REMARK    1  A    between atoms: C_1  and  O_2
REMARK    2  A    between atoms: O_2  and  C_3
REMARK    3  A    between atoms: C_5  and  C_6
REMARK    4  A    between atoms: C_9  and  O_10
REMARK    5  A    between atoms: O_10  and  C_11
REMARK    6  A    between atoms: N_19  and  C_20
REMARK                            x       y       z     vdW  Elec       q    Type
REMARK                         _______ _______ _______ _____ _____    ______ ____
ROOT
ATOM      1  C   UNL     1      -0.759   2.844 -22.846  0.00  0.00    +0.120 C 
ATOM      2  C   UNL     1      -0.413   2.192 -21.816  0.00  0.00    +0.066 C 
ATOM      3  C   UNL     1       0.774   1.816 -21.687  0.00  0.00    +0.143 C 
ATOM      4  O   UNL     1       1.788   1.089 -20.833  0.00  0.00    -0.477 OA
ATOM      5  C   UNL     1       3.167   1.062 -21.430  0.00  0.00    +0.168 A 
ATOM      6  C   UNL     1       4.371   0.682 -21.299  0.00  0.00    +0.162 A 
ATOM      7  C   UNL     1       5.215   0.960 -22.203  0.00  0.00    +0.050 A 
ATOM      8  C   UNL     1       4.870   1.605 -23.220  0.00  0.00    +0.008 A 
ATOM      9  C   UNL     1       3.678   1.980 -23.347  0.00  0.00    -0.034 A 
ATOM     10  C   UNL     1       3.322   2.637 -24.380  0.00  0.00    +0.094 C 
ATOM     11  C   UNL     1       2.133   3.010 -24.506  0.00  0.00    +0.097 C 
ATOM     12  C   UNL     1       1.286   2.734 -23.605  0.00  0.00    -0.003 C 
ATOM     13  N   UNL     1       0.808   3.482 -24.747  0.00  0.00    +0.239 N 
ATOM     14  H   UNL     1       0.560   4.005 -25.588  0.00  0.00    +0.204 HD
ATOM     15  C   UNL     1       0.519   4.123 -25.783  0.00  0.00    +0.191 C 
ATOM     16  C   UNL     1      -0.161   3.192 -23.762  0.00  0.00    +0.133 C 
ATOM     17  C   UNL     1       0.258   2.463 -22.626  0.00  0.00    +0.071 C 
ATOM     18  C   UNL     1       2.822   1.713 -22.458  0.00  0.00    +0.016 A 
ATOM     19  C   UNL     1       0.162   1.416 -20.668  0.00  0.00    +0.062 C 
ATOM     20  C   UNL     1       1.634   2.089 -22.588  0.00  0.00    +0.074 C 
ATOM     21  C   UNL     1       0.084   3.113 -23.734  0.00  0.00    +0.051 C 
ENDROOT
BRANCH   1  23
ATOM     22  C   UNL     1      -2.689   2.670 -23.823  0.00  0.00    +0.277 C 
ATOM     23  O   UNL     1      -1.946   3.220 -22.978  0.00  0.00    -0.495 OA
ENDBRANCH   1  23
BRANCH   6  24
ATOM     24  O   UNL     1       4.721   0.037 -20.284  0.00  0.00    -0.491 OA
ATOM     25  C   UNL     1       5.791  -0.614 -20.292  0.00  0.00    +0.277 C 
ENDBRANCH   6  24
TORSDOF 2
ENDMDL
