MODEL 1
REMARK VINA RESULT:    -8.794      0.000      0.000
REMARK INTER + INTRA:         -11.062
REMARK INTER:                 -10.756
REMARK INTRA:                  -0.306
REMARK UNBOUND:                -0.469
REMARK  Name = ZINC000036020270
REMARK  5 active torsions:
REMARK  status: ('A' for Active; 'I' for Inactive)
REMARK    1  A    between atoms: N_6  and  C1*_7
REMARK    2  A    between atoms: C4*_9  and  C5*_10
REMARK    3  A    between atoms: C5*_10  and  O5*_11
REMARK    4  A    between atoms: C3*_12  and  O3*_13
REMARK    5  A    between atoms: C2*_14  and  O2*_15
REMARK                            x       y       z     vdW  Elec       q    Type
REMARK                         _______ _______ _______ _____ _____    ______ ____
ROOT
ATOM      1  O   UNL     1      -5.531   2.577 -21.284  0.00  0.00    -0.265 OA
ATOM      2  C   UNL     1      -4.362   2.781 -21.814  0.00  0.00    +0.282 A 
ATOM      3  N   UNL     1      -3.290   2.374 -21.202  0.00  0.00    -0.273 N 
ATOM      4  H   UNL     1      -3.364   1.912 -20.336  0.00  0.00    +0.173 HD
ATOM      5  C   UNL     1      -2.121   2.578 -21.733  0.00  0.00    +0.333 A 
ATOM      6  N   UNL     1      -2.024   3.189 -22.876  0.00  0.00    -0.247 N 
ATOM      7  C   UNL     1      -3.096   3.596 -23.489  0.00  0.00    +0.170 A 
ATOM      8  N   UNL     1      -2.999   4.207 -24.632  0.00  0.00    -0.234 NA
ATOM      9  C   UNL     1      -4.070   4.614 -25.245  0.00  0.00    +0.133 A 
ATOM     10  C   UNL     1      -5.239   4.409 -24.714  0.00  0.00    +0.131 A 
ATOM     11  N   UNL     1      -5.337   3.799 -23.571  0.00  0.00    -0.245 NA
ATOM     12  O   UNL     1      -1.048   2.172 -21.121  0.00  0.00    -0.246 OA
ATOM     13  C   UNL     1      -4.265   3.392 -22.958  0.00  0.00    +0.171 A 
ENDROOT
BRANCH   6  14
ATOM     14  C1* UNL     1      -0.855   3.393 -23.407  0.00  0.00    +0.257 C 
ATOM     15  O4* UNL     1      -0.156   2.525 -24.076  0.00  0.00    -0.346 OA
ATOM     16  C4* UNL     1       0.951   3.097 -24.444  0.00  0.00    +0.177 C 
ATOM     17  C3* UNL     1       0.939   4.320 -24.003  0.00  0.00    +0.178 C 
ATOM     18  C2* UNL     1      -0.178   4.502 -23.362  0.00  0.00    +0.195 C 
BRANCH  17  19
ATOM     19  O3* UNL     1       1.876   5.203 -24.173  0.00  0.00    -0.386 OA
ATOM     20  H3* UNL     1       1.760   5.636 -25.033  0.00  0.00    +0.210 HD
ENDBRANCH  17  19
BRANCH  18  21
ATOM     21  O2* UNL     1      -0.551   5.603 -22.778  0.00  0.00    -0.385 OA
ATOM     22  H2* UNL     1      -0.227   6.364 -23.284  0.00  0.00    +0.210 HD
ENDBRANCH  18  21
BRANCH  16  23
ATOM     23  C5* UNL     1       1.904   2.543 -25.133  0.00  0.00    +0.190 C 
BRANCH  23  24
ATOM     24  O5* UNL     1       1.687   2.163 -26.357  0.00  0.00    -0.392 OA
ATOM     25  H5* UNL     1       1.364   1.248 -26.359  0.00  0.00    +0.210 HD
ENDBRANCH  23  24
ENDBRANCH  16  23
ENDBRANCH   6  14
TORSDOF 5
ENDMDL
MODEL 2
REMARK VINA RESULT:    -8.462      2.556      3.972
REMARK INTER + INTRA:         -10.662
REMARK INTER:                 -10.311
REMARK INTRA:                  -0.351
REMARK UNBOUND:                -0.469
REMARK  Name = ZINC000036020270
REMARK  5 active torsions:
REMARK  status: ('A' for Active; 'I' for Inactive)
REMARK    1  A    between atoms: N_6  and  C1*_7
REMARK    2  A    between atoms: C4*_9  and  C5*_10
REMARK    3  A    between atoms: C5*_10  and  O5*_11
REMARK    4  A    between atoms: C3*_12  and  O3*_13
REMARK    5  A    between atoms: C2*_14  and  O2*_15
REMARK                            x       y       z     vdW  Elec       q    Type
REMARK                         _______ _______ _______ _____ _____    ______ ____
ROOT
ATOM      1  O   UNL     1      -2.876   3.753 -25.974  0.00  0.00    -0.265 OA
ATOM      2  C   UNL     1      -1.818   3.431 -25.291  0.00  0.00    +0.282 A 
ATOM      3  N   UNL     1      -0.659   3.378 -25.876  0.00  0.00    -0.273 N 
ATOM      4  H   UNL     1      -0.582   3.582 -26.836  0.00  0.00    +0.173 HD
ATOM      5  C   UNL     1       0.400   3.056 -25.193  0.00  0.00    +0.333 A 
ATOM      6  N   UNL     1       0.298   2.787 -23.925  0.00  0.00    -0.247 N 
ATOM      7  C   UNL     1      -0.862   2.840 -23.340  0.00  0.00    +0.170 A 
ATOM      8  N   UNL     1      -0.963   2.570 -22.072  0.00  0.00    -0.234 NA
ATOM      9  C   UNL     1      -2.123   2.623 -21.488  0.00  0.00    +0.133 A 
ATOM     10  C   UNL     1      -3.181   2.945 -22.171  0.00  0.00    +0.131 A 
ATOM     11  N   UNL     1      -3.080   3.214 -23.438  0.00  0.00    -0.245 NA
ATOM     12  O   UNL     1       1.560   3.003 -25.777  0.00  0.00    -0.246 OA
ATOM     13  C   UNL     1      -1.920   3.162 -24.023  0.00  0.00    +0.171 A 
ENDROOT
BRANCH   6  14
ATOM     14  C1* UNL     1       1.357   2.465 -23.242  0.00  0.00    +0.257 C 
ATOM     15  O4* UNL     1       1.660   1.274 -22.819  0.00  0.00    -0.346 OA
ATOM     16  C4* UNL     1       2.788   1.351 -22.178  0.00  0.00    +0.177 C 
ATOM     17  C3* UNL     1       3.183   2.589 -22.204  0.00  0.00    +0.178 C 
ATOM     18  C2* UNL     1       2.297   3.278 -22.862  0.00  0.00    +0.195 C 
BRANCH  17  19
ATOM     19  O3* UNL     1       4.270   3.056 -21.667  0.00  0.00    -0.386 OA
ATOM     20  H3* UNL     1       4.053   3.497 -20.831  0.00  0.00    +0.210 HD
ENDBRANCH  17  19
BRANCH  18  21
ATOM     21  O2* UNL     1       2.346   4.555 -23.098  0.00  0.00    -0.385 OA
ATOM     22  H2* UNL     1       2.192   4.717 -24.042  0.00  0.00    +0.210 HD
ENDBRANCH  18  21
BRANCH  16  23
ATOM     23  C5* UNL     1       3.413   0.362 -21.610  0.00  0.00    +0.190 C 
BRANCH  23  24
ATOM     24  O5* UNL     1       3.564   0.343 -20.318  0.00  0.00    -0.392 OA
ATOM     25  H5* UNL     1       3.683  -0.572 -20.021  0.00  0.00    +0.210 HD
ENDBRANCH  23  24
ENDBRANCH  16  23
ENDBRANCH   6  14
TORSDOF 5
ENDMDL
MODEL 3
REMARK VINA RESULT:    -8.438      3.401      4.568
REMARK INTER + INTRA:         -10.633
REMARK INTER:                 -10.271
REMARK INTRA:                  -0.362
REMARK UNBOUND:                -0.469
REMARK  Name = ZINC000036020270
REMARK  5 active torsions:
REMARK  status: ('A' for Active; 'I' for Inactive)
REMARK    1  A    between atoms: N_6  and  C1*_7
REMARK    2  A    between atoms: C4*_9  and  C5*_10
REMARK    3  A    between atoms: C5*_10  and  O5*_11
REMARK    4  A    between atoms: C3*_12  and  O3*_13
REMARK    5  A    between atoms: C2*_14  and  O2*_15
REMARK                            x       y       z     vdW  Elec       q    Type
REMARK                         _______ _______ _______ _____ _____    ______ ____
ROOT
ATOM      1  O   UNL     1      -2.710   2.489 -22.638  0.00  0.00    -0.265 OA
ATOM      2  C   UNL     1      -1.422   2.359 -22.523  0.00  0.00    +0.282 A 
ATOM      3  N   UNL     1      -0.915   1.843 -21.443  0.00  0.00    -0.273 N 
ATOM      4  H   UNL     1      -1.506   1.552 -20.712  0.00  0.00    +0.173 HD
ATOM      5  C   UNL     1       0.374   1.713 -21.328  0.00  0.00    +0.333 A 
ATOM      6  N   UNL     1       1.155   2.098 -22.293  0.00  0.00    -0.247 N 
ATOM      7  C   UNL     1       0.647   2.614 -23.374  0.00  0.00    +0.170 A 
ATOM      8  N   UNL     1       1.428   2.999 -24.339  0.00  0.00    -0.234 NA
ATOM      9  C   UNL     1       0.921   3.515 -25.419  0.00  0.00    +0.133 A 
ATOM     10  C   UNL     1      -0.367   3.645 -25.533  0.00  0.00    +0.131 A 
ATOM     11  N   UNL     1      -1.148   3.260 -24.569  0.00  0.00    -0.245 NA
ATOM     12  O   UNL     1       0.882   1.198 -20.248  0.00  0.00    -0.246 OA
ATOM     13  C   UNL     1      -0.641   2.744 -23.489  0.00  0.00    +0.171 A 
ENDROOT
BRANCH   6  14
ATOM     14  C1* UNL     1       2.443   1.968 -22.178  0.00  0.00    +0.257 C 
ATOM     15  O4* UNL     1       3.265   2.868 -21.726  0.00  0.00    -0.346 OA
ATOM     16  C4* UNL     1       4.465   2.371 -21.764  0.00  0.00    +0.177 C 
ATOM     17  C3* UNL     1       4.387   1.164 -22.239  0.00  0.00    +0.178 C 
ATOM     18  C2* UNL     1       3.136   0.915 -22.495  0.00  0.00    +0.195 C 
BRANCH  17  19
ATOM     19  O3* UNL     1       5.382   0.349 -22.426  0.00  0.00    -0.386 OA
ATOM     20  H3* UNL     1       5.557   0.266 -23.376  0.00  0.00    +0.210 HD
ENDBRANCH  17  19
BRANCH  18  21
ATOM     21  O2* UNL     1       2.663  -0.193 -22.983  0.00  0.00    -0.385 OA
ATOM     22  H2* UNL     1       1.694  -0.156 -22.993  0.00  0.00    +0.210 HD
ENDBRANCH  18  21
BRANCH  16  23
ATOM     23  C5* UNL     1       5.554   2.975 -21.392  0.00  0.00    +0.190 C 
BRANCH  23  24
ATOM     24  O5* UNL     1       6.070   2.728 -20.223  0.00  0.00    -0.392 OA
ATOM     25  H5* UNL     1       7.033   2.835 -20.267  0.00  0.00    +0.210 HD
ENDBRANCH  23  24
ENDBRANCH  16  23
ENDBRANCH   6  14
TORSDOF 5
ENDMDL
MODEL 4
REMARK VINA RESULT:    -8.383      4.711      7.226
REMARK INTER + INTRA:         -10.567
REMARK INTER:                 -10.187
REMARK INTRA:                  -0.380
REMARK UNBOUND:                -0.469
REMARK  Name = ZINC000036020270
REMARK  5 active torsions:
REMARK  status: ('A' for Active; 'I' for Inactive)
REMARK    1  A    between atoms: N_6  and  C1*_7
REMARK    2  A    between atoms: C4*_9  and  C5*_10
REMARK    3  A    between atoms: C5*_10  and  O5*_11
REMARK    4  A    between atoms: C3*_12  and  O3*_13
REMARK    5  A    between atoms: C2*_14  and  O2*_15
REMARK                            x       y       z     vdW  Elec       q    Type
REMARK                         _______ _______ _______ _____ _____    ______ ____
ROOT
ATOM      1  O   UNL     1       5.706   0.819 -19.524  0.00  0.00    -0.265 OA
ATOM      2  C   UNL     1       4.972   1.128 -20.552  0.00  0.00    +0.282 A 
ATOM      3  N   UNL     1       4.005   0.341 -20.920  0.00  0.00    -0.273 N 
ATOM      4  H   UNL     1       3.829  -0.489 -20.420  0.00  0.00    +0.173 HD
ATOM      5  C   UNL     1       3.271   0.650 -21.947  0.00  0.00    +0.333 A 
ATOM      6  N   UNL     1       3.504   1.746 -22.606  0.00  0.00    -0.247 N 
ATOM      7  C   UNL     1       4.471   2.534 -22.238  0.00  0.00    +0.170 A 
ATOM      8  N   UNL     1       4.703   3.630 -22.897  0.00  0.00    -0.234 NA
ATOM      9  C   UNL     1       5.670   4.416 -22.529  0.00  0.00    +0.133 A 
ATOM     10  C   UNL     1       6.404   4.107 -21.502  0.00  0.00    +0.131 A 
ATOM     11  N   UNL     1       6.172   3.012 -20.843  0.00  0.00    -0.245 NA
ATOM     12  O   UNL     1       2.304  -0.136 -22.316  0.00  0.00    -0.246 OA
ATOM     13  C   UNL     1       5.205   2.225 -21.211  0.00  0.00    +0.171 A 
ENDROOT
BRANCH   6  14
ATOM     14  C1* UNL     1       2.769   2.055 -23.633  0.00  0.00    +0.257 C 
ATOM     15  O4* UNL     1       1.842   2.966 -23.664  0.00  0.00    -0.346 OA
ATOM     16  C4* UNL     1       1.333   2.981 -24.860  0.00  0.00    +0.177 C 
ATOM     17  C3* UNL     1       1.945   2.081 -25.570  0.00  0.00    +0.178 C 
ATOM     18  C2* UNL     1       2.833   1.508 -24.811  0.00  0.00    +0.195 C 
BRANCH  17  19
ATOM     19  O3* UNL     1       1.712   1.801 -26.817  0.00  0.00    -0.386 OA
ATOM     20  H3* UNL     1       2.553   1.714 -27.291  0.00  0.00    +0.210 HD
ENDBRANCH  17  19
BRANCH  18  21
ATOM     21  O2* UNL     1       3.643   0.556 -25.169  0.00  0.00    -0.385 OA
ATOM     22  H2* UNL     1       4.254   0.359 -24.441  0.00  0.00    +0.210 HD
ENDBRANCH  18  21
BRANCH  16  23
ATOM     23  C5* UNL     1       0.379   3.761 -25.274  0.00  0.00    +0.190 C 
BRANCH  23  24
ATOM     24  O5* UNL     1      -0.602   3.273 -25.976  0.00  0.00    -0.392 OA
ATOM     25  H5* UNL     1      -0.460   3.479 -26.913  0.00  0.00    +0.210 HD
ENDBRANCH  23  24
ENDBRANCH  16  23
ENDBRANCH   6  14
TORSDOF 5
ENDMDL
MODEL 5
REMARK VINA RESULT:    -8.289      2.575      4.968
REMARK INTER + INTRA:         -10.453
REMARK INTER:                  -9.981
REMARK INTRA:                  -0.472
REMARK UNBOUND:                -0.469
REMARK  Name = ZINC000036020270
REMARK  5 active torsions:
REMARK  status: ('A' for Active; 'I' for Inactive)
REMARK    1  A    between atoms: N_6  and  C1*_7
REMARK    2  A    between atoms: C4*_9  and  C5*_10
REMARK    3  A    between atoms: C5*_10  and  O5*_11
REMARK    4  A    between atoms: C3*_12  and  O3*_13
REMARK    5  A    between atoms: C2*_14  and  O2*_15
REMARK                            x       y       z     vdW  Elec       q    Type
REMARK                         _______ _______ _______ _____ _____    ______ ____
ROOT
ATOM      1  O   UNL     1       2.086   1.065 -20.749  0.00  0.00    -0.265 OA
ATOM      2  C   UNL     1       1.151   1.527 -21.526  0.00  0.00    +0.282 A 
ATOM      3  N   UNL     1      -0.076   1.586 -21.101  0.00  0.00    -0.273 N 
ATOM      4  H   UNL     1      -0.297   1.281 -20.192  0.00  0.00    +0.173 HD
ATOM      5  C   UNL     1      -1.011   2.047 -21.878  0.00  0.00    +0.333 A 
ATOM      6  N   UNL     1      -0.719   2.450 -23.078  0.00  0.00    -0.247 N 
ATOM      7  C   UNL     1       0.508   2.391 -23.504  0.00  0.00    +0.170 A 
ATOM      8  N   UNL     1       0.801   2.794 -24.704  0.00  0.00    -0.234 NA
ATOM      9  C   UNL     1       2.028   2.735 -25.129  0.00  0.00    +0.133 A 
ATOM     10  C   UNL     1       2.962   2.273 -24.352  0.00  0.00    +0.131 A 
ATOM     11  N   UNL     1       2.670   1.870 -23.152  0.00  0.00    -0.245 NA
ATOM     12  O   UNL     1      -2.239   2.107 -21.454  0.00  0.00    -0.246 OA
ATOM     13  C   UNL     1       1.443   1.929 -22.727  0.00  0.00    +0.171 A 
ENDROOT
BRANCH   6  14
ATOM     14  C1* UNL     1      -1.654   2.912 -23.855  0.00  0.00    +0.257 C 
ATOM     15  O4* UNL     1      -2.343   2.223 -24.715  0.00  0.00    -0.346 OA
ATOM     16  C4* UNL     1      -3.179   3.029 -25.299  0.00  0.00    +0.177 C 
ATOM     17  C3* UNL     1      -3.007   4.217 -24.800  0.00  0.00    +0.178 C 
ATOM     18  C2* UNL     1      -2.064   4.144 -23.907  0.00  0.00    +0.195 C 
BRANCH  17  19
ATOM     19  O3* UNL     1      -3.662   5.288 -25.135  0.00  0.00    -0.386 OA
ATOM     20  H3* UNL     1      -4.592   5.062 -25.293  0.00  0.00    +0.210 HD
ENDBRANCH  17  19
BRANCH  18  21
ATOM     21  O2* UNL     1      -1.612   5.132 -23.193  0.00  0.00    -0.385 OA
ATOM     22  H2* UNL     1      -1.388   5.876 -23.773  0.00  0.00    +0.210 HD
ENDBRANCH  18  21
BRANCH  16  23
ATOM     23  C5* UNL     1      -4.036   2.704 -26.220  0.00  0.00    +0.190 C 
BRANCH  23  24
ATOM     24  O5* UNL     1      -5.231   3.218 -26.209  0.00  0.00    -0.392 OA
ATOM     25  H5* UNL     1      -5.657   3.063 -27.066  0.00  0.00    +0.210 HD
ENDBRANCH  23  24
ENDBRANCH  16  23
ENDBRANCH   6  14
TORSDOF 5
ENDMDL
MODEL 6
REMARK VINA RESULT:    -8.085      1.470      2.595
REMARK INTER + INTRA:         -10.208
REMARK INTER:                  -9.934
REMARK INTRA:                  -0.274
REMARK UNBOUND:                -0.469
REMARK  Name = ZINC000036020270
REMARK  5 active torsions:
REMARK  status: ('A' for Active; 'I' for Inactive)
REMARK    1  A    between atoms: N_6  and  C1*_7
REMARK    2  A    between atoms: C4*_9  and  C5*_10
REMARK    3  A    between atoms: C5*_10  and  O5*_11
REMARK    4  A    between atoms: C3*_12  and  O3*_13
REMARK    5  A    between atoms: C2*_14  and  O2*_15
REMARK                            x       y       z     vdW  Elec       q    Type
REMARK                         _______ _______ _______ _____ _____    ______ ____
ROOT
ATOM      1  O   UNL     1      -5.812   3.746 -23.868  0.00  0.00    -0.265 OA
ATOM      2  C   UNL     1      -4.515   3.666 -23.903  0.00  0.00    +0.282 A 
ATOM      3  N   UNL     1      -3.894   3.682 -25.045  0.00  0.00    -0.273 N 
ATOM      4  H   UNL     1      -4.405   3.754 -25.882  0.00  0.00    +0.173 HD
ATOM      5  C   UNL     1      -2.596   3.602 -25.080  0.00  0.00    +0.333 A 
ATOM      6  N   UNL     1      -1.921   3.506 -23.973  0.00  0.00    -0.247 N 
ATOM      7  C   UNL     1      -2.542   3.490 -22.831  0.00  0.00    +0.170 A 
ATOM      8  N   UNL     1      -1.867   3.394 -21.725  0.00  0.00    -0.234 NA
ATOM      9  C   UNL     1      -2.488   3.378 -20.583  0.00  0.00    +0.133 A 
ATOM     10  C   UNL     1      -3.785   3.458 -20.548  0.00  0.00    +0.131 A 
ATOM     11  N   UNL     1      -4.461   3.554 -21.655  0.00  0.00    -0.245 NA
ATOM     12  O   UNL     1      -1.974   3.617 -26.221  0.00  0.00    -0.246 OA
ATOM     13  C   UNL     1      -3.839   3.570 -22.796  0.00  0.00    +0.171 A 
ENDROOT
BRANCH   6  14
ATOM     14  C1* UNL     1      -0.624   3.426 -24.008  0.00  0.00    +0.257 C 
ATOM     15  O4* UNL     1       0.070   2.362 -24.286  0.00  0.00    -0.346 OA
ATOM     16  C4* UNL     1       1.329   2.675 -24.221  0.00  0.00    +0.177 C 
ATOM     17  C3* UNL     1       1.416   3.932 -23.903  0.00  0.00    +0.178 C 
ATOM     18  C2* UNL     1       0.208   4.396 -23.771  0.00  0.00    +0.195 C 
BRANCH  17  19
ATOM     19  O3* UNL     1       2.516   4.607 -23.744  0.00  0.00    -0.386 OA
ATOM     20  H3* UNL     1       2.336   5.552 -23.870  0.00  0.00    +0.210 HD
ENDBRANCH  17  19
BRANCH  18  21
ATOM     21  O2* UNL     1      -0.110   5.617 -23.458  0.00  0.00    -0.385 OA
ATOM     22  H2* UNL     1      -0.077   6.175 -24.251  0.00  0.00    +0.210 HD
ENDBRANCH  18  21
BRANCH  16  23
ATOM     23  C5* UNL     1       2.328   1.871 -24.436  0.00  0.00    +0.190 C 
BRANCH  23  24
ATOM     24  O5* UNL     1       2.354   1.138 -25.510  0.00  0.00    -0.392 OA
ATOM     25  H5* UNL     1       1.446   0.968 -25.806  0.00  0.00    +0.210 HD
ENDBRANCH  23  24
ENDBRANCH  16  23
ENDBRANCH   6  14
TORSDOF 5
ENDMDL
MODEL 7
REMARK VINA RESULT:    -8.075      1.373      2.083
REMARK INTER + INTRA:         -10.196
REMARK INTER:                 -10.011
REMARK INTRA:                  -0.185
REMARK UNBOUND:                -0.469
REMARK  Name = ZINC000036020270
REMARK  5 active torsions:
REMARK  status: ('A' for Active; 'I' for Inactive)
REMARK    1  A    between atoms: N_6  and  C1*_7
REMARK    2  A    between atoms: C4*_9  and  C5*_10
REMARK    3  A    between atoms: C5*_10  and  O5*_11
REMARK    4  A    between atoms: C3*_12  and  O3*_13
REMARK    5  A    between atoms: C2*_14  and  O2*_15
REMARK                            x       y       z     vdW  Elec       q    Type
REMARK                         _______ _______ _______ _____ _____    ______ ____
ROOT
ATOM      1  O   UNL     1      -6.101   3.403 -22.126  0.00  0.00    -0.265 OA
ATOM      2  C   UNL     1      -4.815   3.399 -22.315  0.00  0.00    +0.282 A 
ATOM      3  N   UNL     1      -4.009   3.275 -21.303  0.00  0.00    -0.273 N 
ATOM      4  H   UNL     1      -4.373   3.184 -20.393  0.00  0.00    +0.173 HD
ATOM      5  C   UNL     1      -2.723   3.270 -21.492  0.00  0.00    +0.333 A 
ATOM      6  N   UNL     1      -2.243   3.391 -22.694  0.00  0.00    -0.247 N 
ATOM      7  C   UNL     1      -3.048   3.515 -23.707  0.00  0.00    +0.170 A 
ATOM      8  N   UNL     1      -2.568   3.636 -24.909  0.00  0.00    -0.234 NA
ATOM      9  C   UNL     1      -3.373   3.760 -25.921  0.00  0.00    +0.133 A 
ATOM     10  C   UNL     1      -4.659   3.764 -25.732  0.00  0.00    +0.131 A 
ATOM     11  N   UNL     1      -5.140   3.644 -24.530  0.00  0.00    -0.245 NA
ATOM     12  O   UNL     1      -1.917   3.146 -20.480  0.00  0.00    -0.246 OA
ATOM     13  C   UNL     1      -4.334   3.520 -23.518  0.00  0.00    +0.171 A 
ENDROOT
BRANCH   6  14
ATOM     14  C1* UNL     1      -0.956   3.386 -22.883  0.00  0.00    +0.257 C 
ATOM     15  O4* UNL     1      -0.219   4.424 -23.146  0.00  0.00    -0.346 OA
ATOM     16  C4* UNL     1       1.011   4.023 -23.268  0.00  0.00    +0.177 C 
ATOM     17  C3* UNL     1       1.035   2.736 -23.081  0.00  0.00    +0.178 C 
ATOM     18  C2* UNL     1      -0.182   2.343 -22.843  0.00  0.00    +0.195 C 
BRANCH  17  19
ATOM     19  O3* UNL     1       2.089   1.977 -23.125  0.00  0.00    -0.386 OA
ATOM     20  H3* UNL     1       2.780   2.414 -23.648  0.00  0.00    +0.210 HD
ENDBRANCH  17  19
BRANCH  18  21
ATOM     21  O2* UNL     1      -0.556   1.121 -22.607  0.00  0.00    -0.385 OA
ATOM     22  H2* UNL     1      -1.329   0.907 -23.154  0.00  0.00    +0.210 HD
ENDBRANCH  18  21
BRANCH  16  23
ATOM     23  C5* UNL     1       2.038   4.775 -23.531  0.00  0.00    +0.190 C 
BRANCH  23  24
ATOM     24  O5* UNL     1       1.956   6.064 -23.379  0.00  0.00    -0.392 OA
ATOM     25  H5* UNL     1       2.004   6.495 -24.247  0.00  0.00    +0.210 HD
ENDBRANCH  23  24
ENDBRANCH  16  23
ENDBRANCH   6  14
TORSDOF 5
ENDMDL
MODEL 8
REMARK VINA RESULT:    -8.003      3.015      6.348
REMARK INTER + INTRA:         -10.109
REMARK INTER:                  -9.631
REMARK INTRA:                  -0.478
REMARK UNBOUND:                -0.469
REMARK  Name = ZINC000036020270
REMARK  5 active torsions:
REMARK  status: ('A' for Active; 'I' for Inactive)
REMARK    1  A    between atoms: N_6  and  C1*_7
REMARK    2  A    between atoms: C4*_9  and  C5*_10
REMARK    3  A    between atoms: C5*_10  and  O5*_11
REMARK    4  A    between atoms: C3*_12  and  O3*_13
REMARK    5  A    between atoms: C2*_14  and  O2*_15
REMARK                            x       y       z     vdW  Elec       q    Type
REMARK                         _______ _______ _______ _____ _____    ______ ____
ROOT
ATOM      1  O   UNL     1       5.112   4.435 -22.724  0.00  0.00    -0.265 OA
ATOM      2  C   UNL     1       3.857   4.137 -22.884  0.00  0.00    +0.282 A 
ATOM      3  N   UNL     1       3.003   5.066 -23.198  0.00  0.00    -0.273 N 
ATOM      4  H   UNL     1       3.308   5.995 -23.315  0.00  0.00    +0.173 HD
ATOM      5  C   UNL     1       1.748   4.768 -23.358  0.00  0.00    +0.333 A 
ATOM      6  N   UNL     1       1.346   3.542 -23.205  0.00  0.00    -0.247 N 
ATOM      7  C   UNL     1       2.200   2.612 -22.891  0.00  0.00    +0.170 A 
ATOM      8  N   UNL     1       1.798   1.385 -22.737  0.00  0.00    -0.234 NA
ATOM      9  C   UNL     1       2.651   0.457 -22.423  0.00  0.00    +0.133 A 
ATOM     10  C   UNL     1       3.907   0.755 -22.263  0.00  0.00    +0.131 A 
ATOM     11  N   UNL     1       4.308   1.981 -22.417  0.00  0.00    -0.245 NA
ATOM     12  O   UNL     1       0.894   5.697 -23.672  0.00  0.00    -0.246 OA
ATOM     13  C   UNL     1       3.455   2.910 -22.731  0.00  0.00    +0.171 A 
ENDROOT
BRANCH   6  14
ATOM     14  C1* UNL     1       0.091   3.244 -23.365  0.00  0.00    +0.257 C 
ATOM     15  O4* UNL     1      -0.807   3.186 -22.426  0.00  0.00    -0.346 OA
ATOM     16  C4* UNL     1      -1.939   2.858 -22.973  0.00  0.00    +0.177 C 
ATOM     17  C3* UNL     1      -1.743   2.712 -24.250  0.00  0.00    +0.178 C 
ATOM     18  C2* UNL     1      -0.487   2.951 -24.491  0.00  0.00    +0.195 C 
BRANCH  17  19
ATOM     19  O3* UNL     1      -2.642   2.386 -25.129  0.00  0.00    -0.386 OA
ATOM     20  H3* UNL     1      -3.525   2.477 -24.737  0.00  0.00    +0.210 HD
ENDBRANCH  17  19
BRANCH  18  21
ATOM     21  O2* UNL     1       0.088   2.904 -25.656  0.00  0.00    -0.385 OA
ATOM     22  H2* UNL     1      -0.111   2.055 -26.082  0.00  0.00    +0.210 HD
ENDBRANCH  18  21
BRANCH  16  23
ATOM     23  C5* UNL     1      -3.071   2.703 -22.352  0.00  0.00    +0.190 C 
BRANCH  23  24
ATOM     24  O5* UNL     1      -4.134   3.324 -22.771  0.00  0.00    -0.392 OA
ATOM     25  H5* UNL     1      -3.996   4.282 -22.703  0.00  0.00    +0.210 HD
ENDBRANCH  23  24
ENDBRANCH  16  23
ENDBRANCH   6  14
TORSDOF 5
ENDMDL
MODEL 9
REMARK VINA RESULT:    -7.498      3.594      6.639
REMARK INTER + INTRA:          -9.500
REMARK INTER:                  -9.032
REMARK INTRA:                  -0.469
REMARK UNBOUND:                -0.469
REMARK  Name = ZINC000036020270
REMARK  5 active torsions:
REMARK  status: ('A' for Active; 'I' for Inactive)
REMARK    1  A    between atoms: N_6  and  C1*_7
REMARK    2  A    between atoms: C4*_9  and  C5*_10
REMARK    3  A    between atoms: C5*_10  and  O5*_11
REMARK    4  A    between atoms: C3*_12  and  O3*_13
REMARK    5  A    between atoms: C2*_14  and  O2*_15
REMARK                            x       y       z     vdW  Elec       q    Type
REMARK                         _______ _______ _______ _____ _____    ______ ____
ROOT
ATOM      1  O   UNL     1       6.341   2.241 -22.759  0.00  0.00    -0.265 OA
ATOM      2  C   UNL     1       5.041   2.247 -22.783  0.00  0.00    +0.282 A 
ATOM      3  N   UNL     1       4.386   1.125 -22.794  0.00  0.00    -0.273 N 
ATOM      4  H   UNL     1       4.874   0.270 -22.784  0.00  0.00    +0.173 HD
ATOM      5  C   UNL     1       3.086   1.131 -22.819  0.00  0.00    +0.333 A 
ATOM      6  N   UNL     1       2.441   2.259 -22.833  0.00  0.00    -0.247 N 
ATOM      7  C   UNL     1       3.096   3.383 -22.821  0.00  0.00    +0.170 A 
ATOM      8  N   UNL     1       2.452   4.511 -22.835  0.00  0.00    -0.234 NA
ATOM      9  C   UNL     1       3.107   5.634 -22.824  0.00  0.00    +0.133 A 
ATOM     10  C   UNL     1       4.407   5.628 -22.799  0.00  0.00    +0.131 A 
ATOM     11  N   UNL     1       5.051   4.499 -22.785  0.00  0.00    -0.245 NA
ATOM     12  O   UNL     1       2.430   0.008 -22.830  0.00  0.00    -0.246 OA
ATOM     13  C   UNL     1       4.396   3.377 -22.797  0.00  0.00    +0.171 A 
ENDROOT
BRANCH   6  14
ATOM     14  C1* UNL     1       1.142   2.265 -22.857  0.00  0.00    +0.257 C 
ATOM     15  O4* UNL     1       0.357   2.255 -21.821  0.00  0.00    -0.346 OA
ATOM     16  C4* UNL     1      -0.871   2.266 -22.246  0.00  0.00    +0.177 C 
ATOM     17  C3* UNL     1      -0.847   2.283 -23.546  0.00  0.00    +0.178 C 
ATOM     18  C2* UNL     1       0.398   2.283 -23.923  0.00  0.00    +0.195 C 
BRANCH  17  19
ATOM     19  O3* UNL     1      -1.884   2.299 -24.329  0.00  0.00    -0.386 OA
ATOM     20  H3* UNL     1      -2.692   2.230 -23.797  0.00  0.00    +0.210 HD
ENDBRANCH  17  19
BRANCH  18  21
ATOM     21  O2* UNL     1       0.822   2.298 -25.152  0.00  0.00    -0.385 OA
ATOM     22  H2* UNL     1       0.689   1.424 -25.552  0.00  0.00    +0.210 HD
ENDBRANCH  18  21
BRANCH  16  23
ATOM     23  C5* UNL     1      -1.937   2.261 -21.502  0.00  0.00    +0.190 C 
BRANCH  23  24
ATOM     24  O5* UNL     1      -2.730   3.292 -21.493  0.00  0.00    -0.392 OA
ATOM     25  H5* UNL     1      -3.131   3.397 -22.370  0.00  0.00    +0.210 HD
ENDBRANCH  23  24
ENDBRANCH  16  23
ENDBRANCH   6  14
TORSDOF 5
ENDMDL
