MODEL 1
REMARK VINA RESULT:    -9.366      0.000      0.000
REMARK INTER + INTRA:         -11.400
REMARK INTER:                 -11.172
REMARK INTRA:                  -0.228
REMARK UNBOUND:                -0.118
REMARK  Name = ZINC000000119978
REMARK  6 active torsions:
REMARK  status: ('A' for Active; 'I' for Inactive)
REMARK    1  A    between atoms: O_1  and  C_2
REMARK    2  A    between atoms: C_4  and  O_5
REMARK    3  A    between atoms: C_10  and  C_11
REMARK    4  A    between atoms: C_14  and  O_15
REMARK    5  A    between atoms: C_16  and  O_17
REMARK    6  A    between atoms: C_19  and  O_20
REMARK                            x       y       z     vdW  Elec       q    Type
REMARK                         _______ _______ _______ _____ _____    ______ ____
ROOT
ATOM      1  C   UNL     1      -3.937   4.244 -24.651  0.00  0.00    +0.124 A 
ATOM      2  C   UNL     1      -4.461   3.716 -23.585  0.00  0.00    +0.091 A 
ATOM      3  C   UNL     1      -3.702   3.110 -22.720  0.00  0.00    +0.127 A 
ATOM      4  C   UNL     1      -2.420   3.033 -22.921  0.00  0.00    +0.038 A 
ATOM      5  C   UNL     1      -1.897   3.562 -23.987  0.00  0.00    +0.132 A 
ATOM      6  O   UNL     1      -0.615   3.485 -24.189  0.00  0.00    -0.481 OA
ATOM      7  C   UNL     1       0.144   2.879 -23.323  0.00  0.00    +0.232 C 
ATOM      8  C   UNL     1      -0.380   2.350 -22.257  0.00  0.00    +0.164 C 
ATOM      9  C   UNL     1      -1.662   2.428 -22.056  0.00  0.00    +0.078 C 
ATOM     10  C   UNL     1      -2.655   4.167 -24.852  0.00  0.00    +0.091 A 
ENDROOT
BRANCH   7  11
ATOM     11  C   UNL     1       1.426   2.802 -23.525  0.00  0.00    -0.001 A 
ATOM     12  C   UNL     1       2.201   3.782 -23.164  0.00  0.00    +0.011 A 
ATOM     13  C   UNL     1       3.482   3.705 -23.365  0.00  0.00    +0.049 A 
ATOM     14  C   UNL     1       3.990   2.648 -23.927  0.00  0.00    +0.158 A 
ATOM     15  C   UNL     1       3.216   1.668 -24.287  0.00  0.00    +0.159 A 
ATOM     16  C   UNL     1       1.933   1.746 -24.086  0.00  0.00    +0.056 A 
BRANCH  15  17
ATOM     17  O   UNL     1       3.723   0.611 -24.849  0.00  0.00    -0.503 OA
ATOM     18  H   UNL     1       3.870   0.597 -25.774  0.00  0.00    +0.292 HD
ENDBRANCH  15  17
BRANCH  14  19
ATOM     19  O   UNL     1       5.272   2.571 -24.128  0.00  0.00    -0.503 OA
ATOM     20  H   UNL     1       5.724   1.766 -23.970  0.00  0.00    +0.292 HD
ENDBRANCH  14  19
ENDBRANCH   7  11
BRANCH   8  21
ATOM     21  O   UNL     1       0.379   1.745 -21.392  0.00  0.00    -0.387 OA
ATOM     22  H   UNL     1       0.996   2.382 -21.001  0.00  0.00    +0.210 HD
ENDBRANCH   8  21
BRANCH   1  23
ATOM     23  O   UNL     1      -4.695   4.850 -25.516  0.00  0.00    -0.507 OA
ATOM     24  H   UNL     1      -4.321   5.457 -26.123  0.00  0.00    +0.292 HD
ENDBRANCH   1  23
BRANCH   3  25
ATOM     25  O   UNL     1      -4.226   2.581 -21.653  0.00  0.00    -0.506 OA
ATOM     26  H   UNL     1      -5.124   2.746 -21.442  0.00  0.00    +0.292 HD
ENDBRANCH   3  25
TORSDOF 6
ENDMDL
MODEL 2
REMARK VINA RESULT:    -9.295      1.253      6.585
REMARK INTER + INTRA:         -11.314
REMARK INTER:                 -11.077
REMARK INTRA:                  -0.237
REMARK UNBOUND:                -0.118
REMARK  Name = ZINC000000119978
REMARK  6 active torsions:
REMARK  status: ('A' for Active; 'I' for Inactive)
REMARK    1  A    between atoms: O_1  and  C_2
REMARK    2  A    between atoms: C_4  and  O_5
REMARK    3  A    between atoms: C_10  and  C_11
REMARK    4  A    between atoms: C_14  and  O_15
REMARK    5  A    between atoms: C_16  and  O_17
REMARK    6  A    between atoms: C_19  and  O_20
REMARK                            x       y       z     vdW  Elec       q    Type
REMARK                         _______ _______ _______ _____ _____    ______ ____
ROOT
ATOM      1  C   UNL     1       3.175   1.689 -24.377  0.00  0.00    +0.124 A 
ATOM      2  C   UNL     1       3.827   2.751 -24.008  0.00  0.00    +0.091 A 
ATOM      3  C   UNL     1       3.179   3.813 -23.627  0.00  0.00    +0.127 A 
ATOM      4  C   UNL     1       1.880   3.812 -23.616  0.00  0.00    +0.038 A 
ATOM      5  C   UNL     1       1.227   2.750 -23.986  0.00  0.00    +0.132 A 
ATOM      6  O   UNL     1      -0.073   2.748 -23.975  0.00  0.00    -0.481 OA
ATOM      7  C   UNL     1      -0.721   3.809 -23.594  0.00  0.00    +0.232 C 
ATOM      8  C   UNL     1      -0.068   4.872 -23.224  0.00  0.00    +0.164 C 
ATOM      9  C   UNL     1       1.233   4.873 -23.236  0.00  0.00    +0.078 C 
ATOM     10  C   UNL     1       1.875   1.689 -24.366  0.00  0.00    +0.091 A 
ENDROOT
BRANCH   7  11
ATOM     11  C   UNL     1      -2.020   3.808 -23.583  0.00  0.00    -0.001 A 
ATOM     12  C   UNL     1      -2.661   3.436 -22.515  0.00  0.00    +0.011 A 
ATOM     13  C   UNL     1      -3.961   3.435 -22.504  0.00  0.00    +0.049 A 
ATOM     14  C   UNL     1      -4.620   3.807 -23.561  0.00  0.00    +0.158 A 
ATOM     15  C   UNL     1      -3.980   4.179 -24.630  0.00  0.00    +0.159 A 
ATOM     16  C   UNL     1      -2.679   4.180 -24.640  0.00  0.00    +0.056 A 
BRANCH  15  17
ATOM     17  O   UNL     1      -4.639   4.550 -25.687  0.00  0.00    -0.503 OA
ATOM     18  H   UNL     1      -4.180   4.897 -26.427  0.00  0.00    +0.292 HD
ENDBRANCH  15  17
BRANCH  14  19
ATOM     19  O   UNL     1      -5.920   3.806 -23.550  0.00  0.00    -0.503 OA
ATOM     20  H   UNL     1      -6.395   3.488 -24.293  0.00  0.00    +0.292 HD
ENDBRANCH  14  19
ENDBRANCH   7  11
BRANCH   8  21
ATOM     21  O   UNL     1      -0.716   5.933 -22.844  0.00  0.00    -0.387 OA
ATOM     22  H   UNL     1      -0.991   5.830 -21.920  0.00  0.00    +0.210 HD
ENDBRANCH   8  21
BRANCH   1  23
ATOM     23  O   UNL     1       3.822   0.628 -24.758  0.00  0.00    -0.507 OA
ATOM     24  H   UNL     1       3.418   0.017 -25.342  0.00  0.00    +0.292 HD
ENDBRANCH   1  23
BRANCH   3  25
ATOM     25  O   UNL     1       3.832   4.875 -23.258  0.00  0.00    -0.506 OA
ATOM     26  H   UNL     1       3.423   5.717 -23.308  0.00  0.00    +0.292 HD
ENDBRANCH   3  25
TORSDOF 6
ENDMDL
MODEL 3
REMARK VINA RESULT:    -9.227      1.386      2.475
REMARK INTER + INTRA:         -11.233
REMARK INTER:                 -11.050
REMARK INTRA:                  -0.184
REMARK UNBOUND:                -0.118
REMARK  Name = ZINC000000119978
REMARK  6 active torsions:
REMARK  status: ('A' for Active; 'I' for Inactive)
REMARK    1  A    between atoms: O_1  and  C_2
REMARK    2  A    between atoms: C_4  and  O_5
REMARK    3  A    between atoms: C_10  and  C_11
REMARK    4  A    between atoms: C_14  and  O_15
REMARK    5  A    between atoms: C_16  and  O_17
REMARK    6  A    between atoms: C_19  and  O_20
REMARK                            x       y       z     vdW  Elec       q    Type
REMARK                         _______ _______ _______ _____ _____    ______ ____
ROOT
ATOM      1  C   UNL     1      -4.889   3.432 -22.645  0.00  0.00    +0.124 A 
ATOM      2  C   UNL     1      -5.168   3.814 -23.856  0.00  0.00    +0.091 A 
ATOM      3  C   UNL     1      -4.221   3.904 -24.743  0.00  0.00    +0.127 A 
ATOM      4  C   UNL     1      -2.997   3.612 -24.420  0.00  0.00    +0.038 A 
ATOM      5  C   UNL     1      -2.719   3.229 -23.209  0.00  0.00    +0.132 A 
ATOM      6  O   UNL     1      -1.494   2.936 -22.885  0.00  0.00    -0.481 OA
ATOM      7  C   UNL     1      -0.548   3.026 -23.772  0.00  0.00    +0.232 C 
ATOM      8  C   UNL     1      -0.826   3.409 -24.984  0.00  0.00    +0.164 C 
ATOM      9  C   UNL     1      -2.052   3.702 -25.307  0.00  0.00    +0.078 C 
ATOM     10  C   UNL     1      -3.664   3.139 -22.322  0.00  0.00    +0.091 A 
ENDROOT
BRANCH   7  11
ATOM     11  C   UNL     1       0.677   2.733 -23.449  0.00  0.00    -0.001 A 
ATOM     12  C   UNL     1       1.537   3.683 -23.232  0.00  0.00    +0.011 A 
ATOM     13  C   UNL     1       2.761   3.391 -22.909  0.00  0.00    +0.049 A 
ATOM     14  C   UNL     1       3.126   2.147 -22.802  0.00  0.00    +0.158 A 
ATOM     15  C   UNL     1       2.266   1.196 -23.018  0.00  0.00    +0.159 A 
ATOM     16  C   UNL     1       1.041   1.490 -23.342  0.00  0.00    +0.056 A 
BRANCH  15  17
ATOM     17  O   UNL     1       2.630  -0.047 -22.912  0.00  0.00    -0.503 OA
ATOM     18  H   UNL     1       3.459  -0.322 -23.250  0.00  0.00    +0.292 HD
ENDBRANCH  15  17
BRANCH  14  19
ATOM     19  O   UNL     1       4.350   1.854 -22.478  0.00  0.00    -0.503 OA
ATOM     20  H   UNL     1       4.535   1.066 -22.006  0.00  0.00    +0.292 HD
ENDBRANCH  14  19
ENDBRANCH   7  11
BRANCH   8  21
ATOM     21  O   UNL     1       0.119   3.499 -25.870  0.00  0.00    -0.387 OA
ATOM     22  H   UNL     1       0.880   2.967 -25.588  0.00  0.00    +0.210 HD
ENDBRANCH   8  21
BRANCH   1  23
ATOM     23  O   UNL     1      -5.835   3.341 -21.758  0.00  0.00    -0.507 OA
ATOM     24  H   UNL     1      -6.610   3.861 -21.845  0.00  0.00    +0.292 HD
ENDBRANCH   1  23
BRANCH   3  25
ATOM     25  O   UNL     1      -4.500   4.287 -25.954  0.00  0.00    -0.506 OA
ATOM     26  H   UNL     1      -5.372   4.551 -26.173  0.00  0.00    +0.292 HD
ENDBRANCH   3  25
TORSDOF 6
ENDMDL
MODEL 4
REMARK VINA RESULT:    -8.764      1.730      6.533
REMARK INTER + INTRA:         -10.675
REMARK INTER:                 -10.928
REMARK INTRA:                   0.253
REMARK UNBOUND:                -0.118
REMARK  Name = ZINC000000119978
REMARK  6 active torsions:
REMARK  status: ('A' for Active; 'I' for Inactive)
REMARK    1  A    between atoms: O_1  and  C_2
REMARK    2  A    between atoms: C_4  and  O_5
REMARK    3  A    between atoms: C_10  and  C_11
REMARK    4  A    between atoms: C_14  and  O_15
REMARK    5  A    between atoms: C_16  and  O_17
REMARK    6  A    between atoms: C_19  and  O_20
REMARK                            x       y       z     vdW  Elec       q    Type
REMARK                         _______ _______ _______ _____ _____    ______ ____
ROOT
ATOM      1  C   UNL     1       2.856   1.156 -21.500  0.00  0.00    +0.124 A 
ATOM      2  C   UNL     1       3.847   1.422 -22.298  0.00  0.00    +0.091 A 
ATOM      3  C   UNL     1       3.633   2.067 -23.407  0.00  0.00    +0.127 A 
ATOM      4  C   UNL     1       2.429   2.445 -23.718  0.00  0.00    +0.038 A 
ATOM      5  C   UNL     1       1.438   2.178 -22.920  0.00  0.00    +0.132 A 
ATOM      6  O   UNL     1       0.233   2.556 -23.230  0.00  0.00    -0.481 OA
ATOM      7  C   UNL     1       0.019   3.200 -24.339  0.00  0.00    +0.232 C 
ATOM      8  C   UNL     1       1.011   3.467 -25.138  0.00  0.00    +0.164 C 
ATOM      9  C   UNL     1       2.216   3.089 -24.827  0.00  0.00    +0.078 C 
ATOM     10  C   UNL     1       1.651   1.534 -21.811  0.00  0.00    +0.091 A 
ENDROOT
BRANCH   7  11
ATOM     11  C   UNL     1      -1.185   3.578 -24.649  0.00  0.00    -0.001 A 
ATOM     12  C   UNL     1      -1.906   4.229 -23.785  0.00  0.00    +0.011 A 
ATOM     13  C   UNL     1      -3.110   4.607 -24.095  0.00  0.00    +0.049 A 
ATOM     14  C   UNL     1      -3.594   4.334 -25.271  0.00  0.00    +0.158 A 
ATOM     15  C   UNL     1      -2.874   3.683 -26.136  0.00  0.00    +0.159 A 
ATOM     16  C   UNL     1      -1.669   3.305 -25.825  0.00  0.00    +0.056 A 
BRANCH  15  17
ATOM     17  O   UNL     1      -3.357   3.410 -27.311  0.00  0.00    -0.503 OA
ATOM     18  H   UNL     1      -2.949   3.760 -28.079  0.00  0.00    +0.292 HD
ENDBRANCH  15  17
BRANCH  14  19
ATOM     19  O   UNL     1      -4.798   4.712 -25.582  0.00  0.00    -0.503 OA
ATOM     20  H   UNL     1      -5.425   4.082 -25.879  0.00  0.00    +0.292 HD
ENDBRANCH  14  19
ENDBRANCH   7  11
BRANCH   8  21
ATOM     21  O   UNL     1       0.797   4.111 -26.246  0.00  0.00    -0.387 OA
ATOM     22  H   UNL     1      -0.015   4.635 -26.165  0.00  0.00    +0.210 HD
ENDBRANCH   8  21
BRANCH   1  23
ATOM     23  O   UNL     1       3.069   0.512 -20.391  0.00  0.00    -0.507 OA
ATOM     24  H   UNL     1       2.593   0.741 -19.617  0.00  0.00    +0.292 HD
ENDBRANCH   1  23
BRANCH   3  25
ATOM     25  O   UNL     1       4.624   2.333 -24.205  0.00  0.00    -0.506 OA
ATOM     26  H   UNL     1       5.411   1.826 -24.161  0.00  0.00    +0.292 HD
ENDBRANCH   3  25
TORSDOF 6
ENDMDL
MODEL 5
REMARK VINA RESULT:    -8.741      1.148      2.780
REMARK INTER + INTRA:         -10.647
REMARK INTER:                 -10.420
REMARK INTRA:                  -0.227
REMARK UNBOUND:                -0.118
REMARK  Name = ZINC000000119978
REMARK  6 active torsions:
REMARK  status: ('A' for Active; 'I' for Inactive)
REMARK    1  A    between atoms: O_1  and  C_2
REMARK    2  A    between atoms: C_4  and  O_5
REMARK    3  A    between atoms: C_10  and  C_11
REMARK    4  A    between atoms: C_14  and  O_15
REMARK    5  A    between atoms: C_16  and  O_17
REMARK    6  A    between atoms: C_19  and  O_20
REMARK                            x       y       z     vdW  Elec       q    Type
REMARK                         _______ _______ _______ _____ _____    ______ ____
ROOT
ATOM      1  C   UNL     1      -3.557   2.867 -21.845  0.00  0.00    +0.124 A 
ATOM      2  C   UNL     1      -4.141   3.298 -22.923  0.00  0.00    +0.091 A 
ATOM      3  C   UNL     1      -3.431   3.611 -23.967  0.00  0.00    +0.127 A 
ATOM      4  C   UNL     1      -2.137   3.494 -23.932  0.00  0.00    +0.038 A 
ATOM      5  C   UNL     1      -1.553   3.062 -22.854  0.00  0.00    +0.132 A 
ATOM      6  O   UNL     1      -0.258   2.944 -22.818  0.00  0.00    -0.481 OA
ATOM      7  C   UNL     1       0.452   3.258 -23.862  0.00  0.00    +0.232 C 
ATOM      8  C   UNL     1      -0.134   3.689 -24.941  0.00  0.00    +0.164 C 
ATOM      9  C   UNL     1      -1.428   3.807 -24.975  0.00  0.00    +0.078 C 
ATOM     10  C   UNL     1      -2.262   2.749 -21.811  0.00  0.00    +0.091 A 
ENDROOT
BRANCH   7  11
ATOM     11  C   UNL     1       1.745   3.140 -23.827  0.00  0.00    -0.001 A 
ATOM     12  C   UNL     1       2.313   2.067 -24.292  0.00  0.00    +0.011 A 
ATOM     13  C   UNL     1       3.607   1.949 -24.257  0.00  0.00    +0.049 A 
ATOM     14  C   UNL     1       4.334   2.904 -23.758  0.00  0.00    +0.158 A 
ATOM     15  C   UNL     1       3.766   3.978 -23.293  0.00  0.00    +0.159 A 
ATOM     16  C   UNL     1       2.471   4.095 -23.328  0.00  0.00    +0.056 A 
BRANCH  15  17
ATOM     17  O   UNL     1       4.492   4.933 -22.793  0.00  0.00    -0.503 OA
ATOM     18  H   UNL     1       4.492   5.780 -23.194  0.00  0.00    +0.292 HD
ENDBRANCH  15  17
BRANCH  14  19
ATOM     19  O   UNL     1       5.628   2.787 -23.723  0.00  0.00    -0.503 OA
ATOM     20  H   UNL     1       6.170   3.548 -23.789  0.00  0.00    +0.292 HD
ENDBRANCH  14  19
ENDBRANCH   7  11
BRANCH   8  21
ATOM     21  O   UNL     1       0.576   4.003 -25.983  0.00  0.00    -0.387 OA
ATOM     22  H   UNL     1       1.479   3.666 -25.874  0.00  0.00    +0.210 HD
ENDBRANCH   8  21
BRANCH   1  23
ATOM     23  O   UNL     1      -4.266   2.553 -20.802  0.00  0.00    -0.507 OA
ATOM     24  H   UNL     1      -3.952   1.909 -20.198  0.00  0.00    +0.292 HD
ENDBRANCH   1  23
BRANCH   3  25
ATOM     25  O   UNL     1      -4.016   4.043 -25.045  0.00  0.00    -0.506 OA
ATOM     26  H   UNL     1      -3.842   3.632 -25.869  0.00  0.00    +0.292 HD
ENDBRANCH   3  25
TORSDOF 6
ENDMDL
MODEL 6
REMARK VINA RESULT:    -8.372      1.800      6.875
REMARK INTER + INTRA:         -10.202
REMARK INTER:                 -10.776
REMARK INTRA:                   0.574
REMARK UNBOUND:                -0.118
REMARK  Name = ZINC000000119978
REMARK  6 active torsions:
REMARK  status: ('A' for Active; 'I' for Inactive)
REMARK    1  A    between atoms: O_1  and  C_2
REMARK    2  A    between atoms: C_4  and  O_5
REMARK    3  A    between atoms: C_10  and  C_11
REMARK    4  A    between atoms: C_14  and  O_15
REMARK    5  A    between atoms: C_16  and  O_17
REMARK    6  A    between atoms: C_19  and  O_20
REMARK                            x       y       z     vdW  Elec       q    Type
REMARK                         _______ _______ _______ _____ _____    ______ ____
ROOT
ATOM      1  C   UNL     1       3.784   0.849 -21.288  0.00  0.00    +0.124 A 
ATOM      2  C   UNL     1       4.285   0.975 -22.481  0.00  0.00    +0.091 A 
ATOM      3  C   UNL     1       3.551   1.439 -23.448  0.00  0.00    +0.127 A 
ATOM      4  C   UNL     1       2.316   1.778 -23.223  0.00  0.00    +0.038 A 
ATOM      5  C   UNL     1       1.815   1.652 -22.030  0.00  0.00    +0.132 A 
ATOM      6  O   UNL     1       0.581   1.990 -21.803  0.00  0.00    -0.481 OA
ATOM      7  C   UNL     1      -0.154   2.455 -22.771  0.00  0.00    +0.232 C 
ATOM      8  C   UNL     1       0.348   2.581 -23.965  0.00  0.00    +0.164 C 
ATOM      9  C   UNL     1       1.583   2.242 -24.190  0.00  0.00    +0.078 C 
ATOM     10  C   UNL     1       2.549   1.187 -21.062  0.00  0.00    +0.091 A 
ENDROOT
BRANCH   7  11
ATOM     11  C   UNL     1      -1.388   2.793 -22.545  0.00  0.00    -0.001 A 
ATOM     12  C   UNL     1      -2.290   2.613 -23.464  0.00  0.00    +0.011 A 
ATOM     13  C   UNL     1      -3.524   2.951 -23.238  0.00  0.00    +0.049 A 
ATOM     14  C   UNL     1      -3.857   3.470 -22.093  0.00  0.00    +0.158 A 
ATOM     15  C   UNL     1      -2.956   3.650 -21.174  0.00  0.00    +0.159 A 
ATOM     16  C   UNL     1      -1.721   3.312 -21.400  0.00  0.00    +0.056 A 
BRANCH  15  17
ATOM     17  O   UNL     1      -3.288   4.169 -20.030  0.00  0.00    -0.503 OA
ATOM     18  H   UNL     1      -3.609   5.049 -19.989  0.00  0.00    +0.292 HD
ENDBRANCH  15  17
BRANCH  14  19
ATOM     19  O   UNL     1      -5.092   3.809 -21.867  0.00  0.00    -0.503 OA
ATOM     20  H   UNL     1      -5.372   4.690 -22.021  0.00  0.00    +0.292 HD
ENDBRANCH  14  19
ENDBRANCH   7  11
BRANCH   8  21
ATOM     21  O   UNL     1      -0.386   3.045 -24.931  0.00  0.00    -0.387 OA
ATOM     22  H   UNL     1      -1.323   2.916 -24.717  0.00  0.00    +0.210 HD
ENDBRANCH   8  21
BRANCH   1  23
ATOM     23  O   UNL     1       4.518   0.384 -20.320  0.00  0.00    -0.507 OA
ATOM     24  H   UNL     1       4.317  -0.447 -19.937  0.00  0.00    +0.292 HD
ENDBRANCH   1  23
BRANCH   3  25
ATOM     25  O   UNL     1       4.052   1.565 -24.641  0.00  0.00    -0.506 OA
ATOM     26  H   UNL     1       4.735   2.187 -24.799  0.00  0.00    +0.292 HD
ENDBRANCH   3  25
TORSDOF 6
ENDMDL
MODEL 7
REMARK VINA RESULT:    -8.302      1.559      6.497
REMARK INTER + INTRA:         -10.118
REMARK INTER:                  -9.930
REMARK INTRA:                  -0.188
REMARK UNBOUND:                -0.118
REMARK  Name = ZINC000000119978
REMARK  6 active torsions:
REMARK  status: ('A' for Active; 'I' for Inactive)
REMARK    1  A    between atoms: O_1  and  C_2
REMARK    2  A    between atoms: C_4  and  O_5
REMARK    3  A    between atoms: C_10  and  C_11
REMARK    4  A    between atoms: C_14  and  O_15
REMARK    5  A    between atoms: C_16  and  O_17
REMARK    6  A    between atoms: C_19  and  O_20
REMARK                            x       y       z     vdW  Elec       q    Type
REMARK                         _______ _______ _______ _____ _____    ______ ____
ROOT
ATOM      1  C   UNL     1       4.380   4.320 -23.020  0.00  0.00    +0.124 A 
ATOM      2  C   UNL     1       4.795   3.157 -22.615  0.00  0.00    +0.091 A 
ATOM      3  C   UNL     1       3.938   2.213 -22.360  0.00  0.00    +0.127 A 
ATOM      4  C   UNL     1       2.666   2.432 -22.510  0.00  0.00    +0.038 A 
ATOM      5  C   UNL     1       2.250   3.595 -22.916  0.00  0.00    +0.132 A 
ATOM      6  O   UNL     1       0.978   3.816 -23.066  0.00  0.00    -0.481 OA
ATOM      7  C   UNL     1       0.120   2.872 -22.811  0.00  0.00    +0.232 C 
ATOM      8  C   UNL     1       0.536   1.708 -22.406  0.00  0.00    +0.164 C 
ATOM      9  C   UNL     1       1.809   1.488 -22.255  0.00  0.00    +0.078 C 
ATOM     10  C   UNL     1       3.107   4.539 -23.171  0.00  0.00    +0.091 A 
ENDROOT
BRANCH   7  11
ATOM     11  C   UNL     1      -1.152   3.091 -22.962  0.00  0.00    -0.001 A 
ATOM     12  C   UNL     1      -1.677   3.083 -24.151  0.00  0.00    +0.011 A 
ATOM     13  C   UNL     1      -2.949   3.303 -24.301  0.00  0.00    +0.049 A 
ATOM     14  C   UNL     1      -3.697   3.531 -23.262  0.00  0.00    +0.158 A 
ATOM     15  C   UNL     1      -3.172   3.539 -22.073  0.00  0.00    +0.159 A 
ATOM     16  C   UNL     1      -1.899   3.319 -21.923  0.00  0.00    +0.056 A 
BRANCH  15  17
ATOM     17  O   UNL     1      -3.919   3.767 -21.034  0.00  0.00    -0.503 OA
ATOM     18  H   UNL     1      -3.525   3.911 -20.196  0.00  0.00    +0.292 HD
ENDBRANCH  15  17
BRANCH  14  19
ATOM     19  O   UNL     1      -4.969   3.750 -23.412  0.00  0.00    -0.503 OA
ATOM     20  H   UNL     1      -5.523   3.079 -23.761  0.00  0.00    +0.292 HD
ENDBRANCH  14  19
ENDBRANCH   7  11
BRANCH   8  21
ATOM     21  O   UNL     1      -0.321   0.765 -22.151  0.00  0.00    -0.387 OA
ATOM     22  H   UNL     1      -0.542   0.774 -21.207  0.00  0.00    +0.210 HD
ENDBRANCH   8  21
BRANCH   1  23
ATOM     23  O   UNL     1       5.237   5.263 -23.275  0.00  0.00    -0.507 OA
ATOM     24  H   UNL     1       6.094   5.047 -23.584  0.00  0.00    +0.292 HD
ENDBRANCH   1  23
BRANCH   3  25
ATOM     25  O   UNL     1       4.353   1.049 -21.954  0.00  0.00    -0.506 OA
ATOM     26  H   UNL     1       4.413   0.336 -22.560  0.00  0.00    +0.292 HD
ENDBRANCH   3  25
TORSDOF 6
ENDMDL
MODEL 8
REMARK VINA RESULT:    -8.255      1.480      6.308
REMARK INTER + INTRA:         -10.062
REMARK INTER:                 -10.920
REMARK INTRA:                   0.859
REMARK UNBOUND:                -0.118
REMARK  Name = ZINC000000119978
REMARK  6 active torsions:
REMARK  status: ('A' for Active; 'I' for Inactive)
REMARK    1  A    between atoms: O_1  and  C_2
REMARK    2  A    between atoms: C_4  and  O_5
REMARK    3  A    between atoms: C_10  and  C_11
REMARK    4  A    between atoms: C_14  and  O_15
REMARK    5  A    between atoms: C_16  and  O_17
REMARK    6  A    between atoms: C_19  and  O_20
REMARK                            x       y       z     vdW  Elec       q    Type
REMARK                         _______ _______ _______ _____ _____    ______ ____
ROOT
ATOM      1  C   UNL     1       3.459   1.879 -23.049  0.00  0.00    +0.124 A 
ATOM      2  C   UNL     1       3.337   1.490 -21.815  0.00  0.00    +0.091 A 
ATOM      3  C   UNL     1       2.165   1.476 -21.251  0.00  0.00    +0.127 A 
ATOM      4  C   UNL     1       1.116   1.852 -21.921  0.00  0.00    +0.038 A 
ATOM      5  C   UNL     1       1.239   2.241 -23.155  0.00  0.00    +0.132 A 
ATOM      6  O   UNL     1       0.190   2.616 -23.826  0.00  0.00    -0.481 OA
ATOM      7  C   UNL     1      -0.982   2.603 -23.262  0.00  0.00    +0.232 C 
ATOM      8  C   UNL     1      -1.104   2.213 -22.027  0.00  0.00    +0.164 C 
ATOM      9  C   UNL     1      -0.055   1.838 -21.356  0.00  0.00    +0.078 C 
ATOM     10  C   UNL     1       2.409   2.254 -23.719  0.00  0.00    +0.091 A 
ENDROOT
BRANCH   7  11
ATOM     11  C   UNL     1      -2.030   2.978 -23.932  0.00  0.00    -0.001 A 
ATOM     12  C   UNL     1      -1.993   3.014 -25.231  0.00  0.00    +0.011 A 
ATOM     13  C   UNL     1      -3.041   3.389 -25.901  0.00  0.00    +0.049 A 
ATOM     14  C   UNL     1      -4.128   3.728 -25.272  0.00  0.00    +0.158 A 
ATOM     15  C   UNL     1      -4.165   3.692 -23.973  0.00  0.00    +0.159 A 
ATOM     16  C   UNL     1      -3.116   3.317 -23.303  0.00  0.00    +0.056 A 
BRANCH  15  17
ATOM     17  O   UNL     1      -5.251   4.032 -23.344  0.00  0.00    -0.503 OA
ATOM     18  H   UNL     1      -5.359   4.910 -23.037  0.00  0.00    +0.292 HD
ENDBRANCH  15  17
BRANCH  14  19
ATOM     19  O   UNL     1      -5.176   4.104 -25.942  0.00  0.00    -0.503 OA
ATOM     20  H   UNL     1      -5.733   3.463 -26.339  0.00  0.00    +0.292 HD
ENDBRANCH  14  19
ENDBRANCH   7  11
BRANCH   8  21
ATOM     21  O   UNL     1      -2.275   2.200 -21.463  0.00  0.00    -0.387 OA
ATOM     22  H   UNL     1      -2.180   2.376 -20.514  0.00  0.00    +0.210 HD
ENDBRANCH   8  21
BRANCH   1  23
ATOM     23  O   UNL     1       4.630   1.893 -23.614  0.00  0.00    -0.507 OA
ATOM     24  H   UNL     1       5.346   1.438 -23.217  0.00  0.00    +0.292 HD
ENDBRANCH   1  23
BRANCH   3  25
ATOM     25  O   UNL     1       2.042   1.088 -20.016  0.00  0.00    -0.506 OA
ATOM     26  H   UNL     1       2.279   0.214 -19.775  0.00  0.00    +0.292 HD
ENDBRANCH   3  25
TORSDOF 6
ENDMDL
MODEL 9
REMARK VINA RESULT:    -8.234      1.877      6.250
REMARK INTER + INTRA:         -10.037
REMARK INTER:                  -9.919
REMARK INTRA:                  -0.118
REMARK UNBOUND:                -0.118
REMARK  Name = ZINC000000119978
REMARK  6 active torsions:
REMARK  status: ('A' for Active; 'I' for Inactive)
REMARK    1  A    between atoms: O_1  and  C_2
REMARK    2  A    between atoms: C_4  and  O_5
REMARK    3  A    between atoms: C_10  and  C_11
REMARK    4  A    between atoms: C_14  and  O_15
REMARK    5  A    between atoms: C_16  and  O_17
REMARK    6  A    between atoms: C_19  and  O_20
REMARK                            x       y       z     vdW  Elec       q    Type
REMARK                         _______ _______ _______ _____ _____    ______ ____
ROOT
ATOM      1  C   UNL     1       4.898   2.803 -22.279  0.00  0.00    +0.124 A 
ATOM      2  C   UNL     1       4.759   1.855 -21.402  0.00  0.00    +0.091 A 
ATOM      3  C   UNL     1       3.575   1.390 -21.130  0.00  0.00    +0.127 A 
ATOM      4  C   UNL     1       2.531   1.874 -21.735  0.00  0.00    +0.038 A 
ATOM      5  C   UNL     1       2.671   2.822 -22.613  0.00  0.00    +0.132 A 
ATOM      6  O   UNL     1       1.628   3.307 -23.219  0.00  0.00    -0.481 OA
ATOM      7  C   UNL     1       0.444   2.842 -22.947  0.00  0.00    +0.232 C 
ATOM      8  C   UNL     1       0.304   1.893 -22.068  0.00  0.00    +0.164 C 
ATOM      9  C   UNL     1       1.349   1.409 -21.463  0.00  0.00    +0.078 C 
ATOM     10  C   UNL     1       3.854   3.287 -22.885  0.00  0.00    +0.091 A 
ENDROOT
BRANCH   7  11
ATOM     11  C   UNL     1      -0.599   3.326 -23.552  0.00  0.00    -0.001 A 
ATOM     12  C   UNL     1      -1.444   4.068 -22.900  0.00  0.00    +0.011 A 
ATOM     13  C   UNL     1      -2.487   4.552 -23.505  0.00  0.00    +0.049 A 
ATOM     14  C   UNL     1      -2.686   4.294 -24.764  0.00  0.00    +0.158 A 
ATOM     15  C   UNL     1      -1.841   3.552 -25.417  0.00  0.00    +0.159 A 
ATOM     16  C   UNL     1      -0.798   3.068 -24.811  0.00  0.00    +0.056 A 
BRANCH  15  17
ATOM     17  O   UNL     1      -2.040   3.294 -26.675  0.00  0.00    -0.503 OA
ATOM     18  H   UNL     1      -2.738   3.717 -27.136  0.00  0.00    +0.292 HD
ENDBRANCH  15  17
BRANCH  14  19
ATOM     19  O   UNL     1      -3.729   4.778 -25.370  0.00  0.00    -0.503 OA
ATOM     20  H   UNL     1      -3.632   5.478 -25.985  0.00  0.00    +0.292 HD
ENDBRANCH  14  19
ENDBRANCH   7  11
BRANCH   8  21
ATOM     21  O   UNL     1      -0.878   1.429 -21.797  0.00  0.00    -0.387 OA
ATOM     22  H   UNL     1      -1.041   0.629 -22.321  0.00  0.00    +0.210 HD
ENDBRANCH   8  21
BRANCH   1  23
ATOM     23  O   UNL     1       6.081   3.268 -22.552  0.00  0.00    -0.507 OA
ATOM     24  H   UNL     1       6.663   2.777 -23.098  0.00  0.00    +0.292 HD
ENDBRANCH   1  23
BRANCH   3  25
ATOM     25  O   UNL     1       3.435   0.441 -20.252  0.00  0.00    -0.506 OA
ATOM     26  H   UNL     1       3.901  -0.365 -20.355  0.00  0.00    +0.292 HD
ENDBRANCH   3  25
TORSDOF 6
ENDMDL
