MODEL 1
REMARK VINA RESULT:   -10.793      0.000      0.000
REMARK INTER + INTRA:         -10.904
REMARK INTER:                 -11.748
REMARK INTRA:                   0.844
REMARK UNBOUND:                 0.836
REMARK  Name = ZINC000001280591
REMARK  6 active torsions:
REMARK  status: ('A' for Active; 'I' for Inactive)
REMARK    1  A    between atoms: C_1  and  O_2
REMARK    2  A    between atoms: O_2  and  C_3
REMARK    3  A    between atoms: C_11  and  O_12
REMARK    4  A    between atoms: O_12  and  C_13
REMARK    5  A    between atoms: C_14  and  O_15
REMARK    6  A    between atoms: N_20  and  C_21
REMARK                            x       y       z     vdW  Elec       q    Type
REMARK                         _______ _______ _______ _____ _____    ______ ____
ROOT
ATOM      1  C   UNL     1      -2.360   3.478 -25.053  0.00  0.00    +0.159 C 
ATOM      2  C   UNL     1      -3.066   3.408 -24.402  0.00  0.00    +0.032 C 
ATOM      3  C   UNL     1      -2.887   3.087 -22.936  0.00  0.00    +0.075 C 
ATOM      4  C   UNL     1      -3.778   3.188 -23.022  0.00  0.00    +0.076 C 
ATOM      5  C   UNL     1      -3.664   3.373 -23.962  0.00  0.00    +0.090 C 
ATOM      6  C   UNL     1      -2.031   3.252 -24.114  0.00  0.00    -0.035 A 
ATOM      7  C   UNL     1      -0.863   3.380 -25.252  0.00  0.00    +0.008 A 
ATOM      8  C   UNL     1       0.306   3.207 -24.941  0.00  0.00    +0.049 A 
ATOM      9  C   UNL     1       0.596   2.931 -23.745  0.00  0.00    +0.162 A 
ATOM     10  C   UNL     1      -0.332   2.828 -22.833  0.00  0.00    +0.163 A 
ATOM     11  C   UNL     1      -1.602   3.005 -23.117  0.00  0.00    +0.009 A 
ATOM     12  N   UNL     1      -4.393   3.018 -21.930  0.00  0.00    +0.236 N 
ATOM     13  H   UNL     1      -5.408   3.106 -21.897  0.00  0.00    +0.203 HD
ATOM     14  C   UNL     1      -5.648   3.116 -21.837  0.00  0.00    +0.190 C 
ATOM     15  C   UNL     1      -3.629   2.731 -20.890  0.00  0.00    +0.132 C 
ATOM     16  C   UNL     1      -2.343   2.662 -21.133  0.00  0.00    +0.064 C 
ATOM     17  C   UNL     1      -2.031   2.879 -22.314  0.00  0.00    +0.023 C 
ATOM     18  C   UNL     1      -0.935   2.995 -23.367  0.00  0.00    +0.095 C 
ATOM     19  C   UNL     1      -1.368   3.329 -24.778  0.00  0.00    +0.198 C 
ATOM     20  O   UNL     1      -2.424   3.760 -26.383  0.00  0.00    -0.289 OA
ENDROOT
BRANCH   1  22
ATOM     21  C   UNL     1      -3.302   3.463 -27.517  0.00  0.00    +0.277 C 
ATOM     22  O   UNL     1      -3.524   3.807 -26.118  0.00  0.00    -0.492 OA
ENDBRANCH   1  22
BRANCH  10  23
ATOM     23  O   UNL     1       0.586   2.588 -22.084  0.00  0.00    -0.503 OA
ATOM     24  H   UNL     1       1.442   2.426 -22.430  0.00  0.00    +0.292 HD
ENDBRANCH  10  23
BRANCH   9  25
ATOM     25  O   UNL     1       1.804   2.727 -23.301  0.00  0.00    -0.491 OA
ATOM     26  C   UNL     1       2.837   2.813 -23.977  0.00  0.00    +0.277 C 
ENDBRANCH   9  25
TORSDOF 3
ENDMDL
MODEL 2
REMARK VINA RESULT:   -10.550      1.694      3.356
REMARK INTER + INTRA:         -10.639
REMARK INTER:                 -11.543
REMARK INTRA:                   0.903
REMARK UNBOUND:                 0.836
REMARK  Name = ZINC000001280591
REMARK  6 active torsions:
REMARK  status: ('A' for Active; 'I' for Inactive)
REMARK    1  A    between atoms: C_1  and  O_2
REMARK    2  A    between atoms: O_2  and  C_3
REMARK    3  A    between atoms: C_11  and  O_12
REMARK    4  A    between atoms: O_12  and  C_13
REMARK    5  A    between atoms: C_14  and  O_15
REMARK    6  A    between atoms: N_20  and  C_21
REMARK                            x       y       z     vdW  Elec       q    Type
REMARK                         _______ _______ _______ _____ _____    ______ ____
ROOT
ATOM      1  C   UNL     1      -2.460   2.887 -21.908  0.00  0.00    +0.159 C 
ATOM      2  C   UNL     1      -3.113   3.164 -22.559  0.00  0.00    +0.032 C 
ATOM      3  C   UNL     1      -2.882   3.273 -24.049  0.00  0.00    +0.075 C 
ATOM      4  C   UNL     1      -3.742   3.523 -23.950  0.00  0.00    +0.076 C 
ATOM      5  C   UNL     1      -3.670   3.387 -22.998  0.00  0.00    +0.090 C 
ATOM      6  C   UNL     1      -2.106   2.895 -22.865  0.00  0.00    -0.035 A 
ATOM      7  C   UNL     1      -1.029   2.430 -21.724  0.00  0.00    +0.008 A 
ATOM      8  C   UNL     1       0.107   2.124 -22.056  0.00  0.00    +0.049 A 
ATOM      9  C   UNL     1       0.433   2.171 -23.273  0.00  0.00    +0.162 A 
ATOM     10  C   UNL     1      -0.422   2.541 -24.186  0.00  0.00    +0.163 A 
ATOM     11  C   UNL     1      -1.654   2.880 -23.882  0.00  0.00    +0.009 A 
ATOM     12  N   UNL     1      -4.290   3.822 -25.050  0.00  0.00    +0.236 N 
ATOM     13  H   UNL     1      -5.264   4.121 -25.071  0.00  0.00    +0.203 HD
ATOM     14  C   UNL     1      -5.492   4.198 -25.129  0.00  0.00    +0.190 C 
ATOM     15  C   UNL     1      -3.513   3.714 -26.116  0.00  0.00    +0.132 C 
ATOM     16  C   UNL     1      -2.287   3.313 -25.886  0.00  0.00    +0.064 C 
ATOM     17  C   UNL     1      -2.035   3.093 -24.691  0.00  0.00    +0.023 C 
ATOM     18  C   UNL     1      -1.023   2.658 -23.637  0.00  0.00    +0.095 C 
ATOM     19  C   UNL     1      -1.496   2.629 -22.199  0.00  0.00    +0.198 C 
ATOM     20  O   UNL     1      -2.575   2.760 -20.557  0.00  0.00    -0.289 OA
ENDROOT
BRANCH   1  22
ATOM     21  C   UNL     1      -3.284   3.800 -19.573  0.00  0.00    +0.277 C 
ATOM     22  O   UNL     1      -3.621   3.109 -20.812  0.00  0.00    -0.492 OA
ENDBRANCH   1  22
BRANCH  10  23
ATOM     23  O   UNL     1       0.490   2.356 -24.957  0.00  0.00    -0.503 OA
ATOM     24  H   UNL     1       1.116   3.036 -25.113  0.00  0.00    +0.292 HD
ENDBRANCH  10  23
BRANCH   9  25
ATOM     25  O   UNL     1       1.612   1.868 -23.739  0.00  0.00    -0.491 OA
ATOM     26  C   UNL     1       2.579   1.506 -23.054  0.00  0.00    +0.277 C 
ENDBRANCH   9  25
TORSDOF 3
ENDMDL
MODEL 3
REMARK VINA RESULT:   -10.197      1.982      4.103
REMARK INTER + INTRA:         -10.256
REMARK INTER:                 -11.349
REMARK INTRA:                   1.093
REMARK UNBOUND:                 0.836
REMARK  Name = ZINC000001280591
REMARK  6 active torsions:
REMARK  status: ('A' for Active; 'I' for Inactive)
REMARK    1  A    between atoms: C_1  and  O_2
REMARK    2  A    between atoms: O_2  and  C_3
REMARK    3  A    between atoms: C_11  and  O_12
REMARK    4  A    between atoms: O_12  and  C_13
REMARK    5  A    between atoms: C_14  and  O_15
REMARK    6  A    between atoms: N_20  and  C_21
REMARK                            x       y       z     vdW  Elec       q    Type
REMARK                         _______ _______ _______ _____ _____    ______ ____
ROOT
ATOM      1  C   UNL     1      -2.951   3.585 -25.338  0.00  0.00    +0.159 C 
ATOM      2  C   UNL     1      -2.026   3.395 -25.146  0.00  0.00    +0.032 C 
ATOM      3  C   UNL     1      -1.459   3.053 -23.787  0.00  0.00    +0.075 C 
ATOM      4  C   UNL     1      -0.739   3.029 -24.328  0.00  0.00    +0.076 C 
ATOM      5  C   UNL     1      -1.299   3.260 -25.080  0.00  0.00    +0.090 C 
ATOM      6  C   UNL     1      -2.771   3.376 -24.355  0.00  0.00    -0.035 A 
ATOM      7  C   UNL     1      -4.330   3.706 -24.726  0.00  0.00    +0.008 A 
ATOM      8  C   UNL     1      -5.176   3.689 -23.845  0.00  0.00    +0.049 A 
ATOM      9  C   UNL     1      -4.837   3.417 -22.661  0.00  0.00    +0.162 A 
ATOM     10  C   UNL     1      -3.595   3.153 -22.361  0.00  0.00    +0.163 A 
ATOM     11  C   UNL     1      -2.647   3.159 -23.271  0.00  0.00    +0.009 A 
ATOM     12  N   UNL     1       0.324   2.738 -23.709  0.00  0.00    +0.236 N 
ATOM     13  H   UNL     1       1.209   2.680 -24.212  0.00  0.00    +0.203 HD
ATOM     14  C   UNL     1       1.444   2.654 -24.285  0.00  0.00    +0.190 C 
ATOM     15  C   UNL     1       0.182   2.526 -22.411  0.00  0.00    +0.132 C 
ATOM     16  C   UNL     1      -1.038   2.647 -21.947  0.00  0.00    +0.064 C 
ATOM     17  C   UNL     1      -1.885   2.946 -22.803  0.00  0.00    +0.023 C 
ATOM     18  C   UNL     1      -3.341   3.251 -23.137  0.00  0.00    +0.095 C 
ATOM     19  C   UNL     1      -3.664   3.568 -24.581  0.00  0.00    +0.198 C 
ATOM     20  O   UNL     1      -3.550   3.900 -26.519  0.00  0.00    -0.289 OA
ENDROOT
BRANCH   1  22
ATOM     21  C   UNL     1      -3.430   3.488 -27.930  0.00  0.00    +0.277 C 
ATOM     22  O   UNL     1      -2.479   3.783 -26.866  0.00  0.00    -0.492 OA
ENDBRANCH   1  22
BRANCH  10  23
ATOM     23  O   UNL     1      -4.012   3.019 -21.234  0.00  0.00    -0.503 OA
ATOM     24  H   UNL     1      -4.566   3.675 -20.859  0.00  0.00    +0.292 HD
ENDBRANCH  10  23
BRANCH   9  25
ATOM     25  O   UNL     1      -5.652   3.370 -21.645  0.00  0.00    -0.491 OA
ATOM     26  C   UNL     1      -6.730   2.761 -21.623  0.00  0.00    +0.277 C 
ENDBRANCH   9  25
TORSDOF 3
ENDMDL
MODEL 4
REMARK VINA RESULT:   -10.183      1.975      4.307
REMARK INTER + INTRA:         -10.240
REMARK INTER:                 -11.137
REMARK INTRA:                   0.897
REMARK UNBOUND:                 0.836
REMARK  Name = ZINC000001280591
REMARK  6 active torsions:
REMARK  status: ('A' for Active; 'I' for Inactive)
REMARK    1  A    between atoms: C_1  and  O_2
REMARK    2  A    between atoms: O_2  and  C_3
REMARK    3  A    between atoms: C_11  and  O_12
REMARK    4  A    between atoms: O_12  and  C_13
REMARK    5  A    between atoms: C_14  and  O_15
REMARK    6  A    between atoms: N_20  and  C_21
REMARK                            x       y       z     vdW  Elec       q    Type
REMARK                         _______ _______ _______ _____ _____    ______ ____
ROOT
ATOM      1  C   UNL     1      -2.712   2.661 -22.198  0.00  0.00    +0.159 C 
ATOM      2  C   UNL     1      -1.870   2.413 -21.800  0.00  0.00    +0.032 C 
ATOM      3  C   UNL     1      -0.541   2.346 -22.517  0.00  0.00    +0.075 C 
ATOM      4  C   UNL     1      -0.337   2.106 -21.672  0.00  0.00    +0.076 C 
ATOM      5  C   UNL     1      -1.263   2.212 -21.422  0.00  0.00    +0.090 C 
ATOM      6  C   UNL     1      -1.928   2.677 -22.853  0.00  0.00    -0.035 A 
ATOM      7  C   UNL     1      -3.379   3.091 -23.487  0.00  0.00    +0.008 A 
ATOM      8  C   UNL     1      -3.457   3.390 -24.669  0.00  0.00    +0.049 A 
ATOM      9  C   UNL     1      -2.419   3.375 -25.384  0.00  0.00    +0.162 A 
ATOM     10  C   UNL     1      -1.260   3.045 -24.883  0.00  0.00    +0.163 A 
ATOM     11  C   UNL     1      -1.123   2.716 -23.619  0.00  0.00    +0.009 A 
ATOM     12  N   UNL     1       0.892   1.848 -21.524  0.00  0.00    +0.236 N 
ATOM     13  H   UNL     1       1.248   1.565 -20.612  0.00  0.00    +0.203 HD
ATOM     14  C   UNL     1       1.381   1.493 -20.417  0.00  0.00    +0.190 C 
ATOM     15  C   UNL     1       1.631   1.977 -22.613  0.00  0.00    +0.132 C 
ATOM     16  C   UNL     1       0.991   2.352 -23.693  0.00  0.00    +0.064 C 
ATOM     17  C   UNL     1      -0.226   2.533 -23.531  0.00  0.00    +0.023 C 
ATOM     18  C   UNL     1      -1.572   2.921 -24.132  0.00  0.00    +0.095 C 
ATOM     19  C   UNL     1      -2.769   2.913 -23.205  0.00  0.00    +0.198 C 
ATOM     20  O   UNL     1      -3.949   2.749 -21.638  0.00  0.00    -0.289 OA
ENDROOT
BRANCH   1  22
ATOM     21  C   UNL     1      -4.792   2.272 -20.623  0.00  0.00    +0.277 C 
ATOM     22  O   UNL     1      -3.347   2.423 -20.736  0.00  0.00    -0.492 OA
ENDBRANCH   1  22
BRANCH  10  23
ATOM     23  O   UNL     1      -0.846   3.239 -26.002  0.00  0.00    -0.503 OA
ATOM     24  H   UNL     1      -0.498   2.527 -26.502  0.00  0.00    +0.292 HD
ENDBRANCH  10  23
BRANCH   9  25
ATOM     25  O   UNL     1      -2.385   3.674 -26.653  0.00  0.00    -0.491 OA
ATOM     26  C   UNL     1      -3.332   3.548 -27.441  0.00  0.00    +0.277 C 
ENDBRANCH   9  25
TORSDOF 3
ENDMDL
MODEL 5
REMARK VINA RESULT:   -10.033      1.282      3.732
REMARK INTER + INTRA:         -10.077
REMARK INTER:                 -10.945
REMARK INTRA:                   0.869
REMARK UNBOUND:                 0.836
REMARK  Name = ZINC000001280591
REMARK  6 active torsions:
REMARK  status: ('A' for Active; 'I' for Inactive)
REMARK    1  A    between atoms: C_1  and  O_2
REMARK    2  A    between atoms: O_2  and  C_3
REMARK    3  A    between atoms: C_11  and  O_12
REMARK    4  A    between atoms: O_12  and  C_13
REMARK    5  A    between atoms: C_14  and  O_15
REMARK    6  A    between atoms: N_20  and  C_21
REMARK                            x       y       z     vdW  Elec       q    Type
REMARK                         _______ _______ _______ _____ _____    ______ ____
ROOT
ATOM      1  C   UNL     1      -1.088   3.771 -23.702  0.00  0.00    +0.159 C 
ATOM      2  C   UNL     1      -1.526   3.758 -22.845  0.00  0.00    +0.032 C 
ATOM      3  C   UNL     1      -3.011   3.592 -22.615  0.00  0.00    +0.075 C 
ATOM      4  C   UNL     1      -2.676   3.670 -21.782  0.00  0.00    +0.076 C 
ATOM      5  C   UNL     1      -1.788   3.759 -22.150  0.00  0.00    +0.090 C 
ATOM      6  C   UNL     1      -2.100   3.648 -23.761  0.00  0.00    -0.035 A 
ATOM      7  C   UNL     1      -1.314   3.675 -25.196  0.00  0.00    +0.008 A 
ATOM      8  C   UNL     1      -1.948   3.552 -26.233  0.00  0.00    +0.049 A 
ATOM      9  C   UNL     1      -3.199   3.405 -26.184  0.00  0.00    +0.162 A 
ATOM     10  C   UNL     1      -3.830   3.382 -25.042  0.00  0.00    +0.163 A 
ATOM     11  C   UNL     1      -3.195   3.511 -23.899  0.00  0.00    +0.009 A 
ATOM     12  N   UNL     1      -3.571   3.605 -20.891  0.00  0.00    +0.236 N 
ATOM     13  H   UNL     1      -3.318   3.680 -19.906  0.00  0.00    +0.203 HD
ATOM     14  C   UNL     1      -3.309   3.693 -19.660  0.00  0.00    +0.190 C 
ATOM     15  C   UNL     1      -4.804   3.437 -21.340  0.00  0.00    +0.132 C 
ATOM     16  C   UNL     1      -4.928   3.362 -22.642  0.00  0.00    +0.064 C 
ATOM     17  C   UNL     1      -3.860   3.461 -23.266  0.00  0.00    +0.023 C 
ATOM     18  C   UNL     1      -3.138   3.485 -24.609  0.00  0.00    +0.095 C 
ATOM     19  C   UNL     1      -1.636   3.665 -24.580  0.00  0.00    +0.198 C 
ATOM     20  O   UNL     1       0.231   3.914 -24.006  0.00  0.00    -0.289 OA
ENDROOT
BRANCH   1  22
ATOM     21  C   UNL     1       1.313   4.832 -23.443  0.00  0.00    +0.277 C 
ATOM     22  O   UNL     1       0.281   3.972 -22.876  0.00  0.00    -0.492 OA
ENDBRANCH   1  22
BRANCH  10  23
ATOM     23  O   UNL     1      -4.821   3.233 -25.718  0.00  0.00    -0.503 OA
ATOM     24  H   UNL     1      -4.867   2.524 -26.329  0.00  0.00    +0.292 HD
ENDBRANCH  10  23
BRANCH   9  25
ATOM     25  O   UNL     1      -3.974   3.264 -27.223  0.00  0.00    -0.491 OA
ATOM     26  C   UNL     1      -3.622   3.416 -28.400  0.00  0.00    +0.277 C 
ENDBRANCH   9  25
TORSDOF 3
ENDMDL
MODEL 6
REMARK VINA RESULT:    -9.875      2.810      5.801
REMARK INTER + INTRA:          -9.906
REMARK INTER:                 -10.759
REMARK INTRA:                   0.853
REMARK UNBOUND:                 0.836
REMARK  Name = ZINC000001280591
REMARK  6 active torsions:
REMARK  status: ('A' for Active; 'I' for Inactive)
REMARK    1  A    between atoms: C_1  and  O_2
REMARK    2  A    between atoms: O_2  and  C_3
REMARK    3  A    between atoms: C_11  and  O_12
REMARK    4  A    between atoms: O_12  and  C_13
REMARK    5  A    between atoms: C_14  and  O_15
REMARK    6  A    between atoms: N_20  and  C_21
REMARK                            x       y       z     vdW  Elec       q    Type
REMARK                         _______ _______ _______ _____ _____    ______ ____
ROOT
ATOM      1  C   UNL     1       2.549   4.631 -23.117  0.00  0.00    +0.159 C 
ATOM      2  C   UNL     1       3.120   3.891 -22.886  0.00  0.00    +0.032 C 
ATOM      3  C   UNL     1       2.706   2.438 -22.840  0.00  0.00    +0.075 C 
ATOM      4  C   UNL     1       3.576   2.416 -22.607  0.00  0.00    +0.076 C 
ATOM      5  C   UNL     1       3.622   3.376 -22.698  0.00  0.00    +0.090 C 
ATOM      6  C   UNL     1       2.078   3.726 -23.144  0.00  0.00    -0.035 A 
ATOM      7  C   UNL     1       1.144   5.013 -23.530  0.00  0.00    +0.008 A 
ATOM      8  C   UNL     1      -0.030   4.841 -23.822  0.00  0.00    +0.049 A 
ATOM      9  C   UNL     1      -0.506   3.673 -23.822  0.00  0.00    +0.162 A 
ATOM     10  C   UNL     1       0.235   2.644 -23.516  0.00  0.00    +0.163 A 
ATOM     11  C   UNL     1       1.502   2.775 -23.195  0.00  0.00    +0.009 A 
ATOM     12  N   UNL     1       3.987   1.244 -22.372  0.00  0.00    +0.236 N 
ATOM     13  H   UNL     1       4.957   1.088 -22.099  0.00  0.00    +0.203 HD
ATOM     14  C   UNL     1       5.177   0.998 -22.031  0.00  0.00    +0.190 C 
ATOM     15  C   UNL     1       3.081   0.290 -22.509  0.00  0.00    +0.132 C 
ATOM     16  C   UNL     1       1.886   0.690 -22.869  0.00  0.00    +0.064 C 
ATOM     17  C   UNL     1       1.781   1.916 -23.028  0.00  0.00    +0.023 C 
ATOM     18  C   UNL     1       0.902   3.108 -23.389  0.00  0.00    +0.095 C 
ATOM     19  C   UNL     1       1.551   4.475 -23.364  0.00  0.00    +0.198 C 
ATOM     20  O   UNL     1       2.830   5.962 -23.185  0.00  0.00    -0.289 OA
ENDROOT
BRANCH   1  22
ATOM     21  C   UNL     1       3.640   6.913 -22.367  0.00  0.00    +0.277 C 
ATOM     22  O   UNL     1       3.842   5.561 -22.875  0.00  0.00    -0.492 OA
ENDBRANCH   1  22
BRANCH  10  23
ATOM     23  O   UNL     1      -0.770   2.002 -23.713  0.00  0.00    -0.503 OA
ATOM     24  H   UNL     1      -1.515   2.116 -23.156  0.00  0.00    +0.292 HD
ENDBRANCH  10  23
BRANCH   9  25
ATOM     25  O   UNL     1      -1.740   3.373 -24.117  0.00  0.00    -0.491 OA
ATOM     26  C   UNL     1      -2.633   4.192 -24.366  0.00  0.00    +0.277 C 
ENDBRANCH   9  25
TORSDOF 3
ENDMDL
MODEL 7
REMARK VINA RESULT:    -9.831      1.705      2.612
REMARK INTER + INTRA:          -9.857
REMARK INTER:                 -10.711
REMARK INTRA:                   0.854
REMARK UNBOUND:                 0.836
REMARK  Name = ZINC000001280591
REMARK  6 active torsions:
REMARK  status: ('A' for Active; 'I' for Inactive)
REMARK    1  A    between atoms: C_1  and  O_2
REMARK    2  A    between atoms: O_2  and  C_3
REMARK    3  A    between atoms: C_11  and  O_12
REMARK    4  A    between atoms: O_12  and  C_13
REMARK    5  A    between atoms: C_14  and  O_15
REMARK    6  A    between atoms: N_20  and  C_21
REMARK                            x       y       z     vdW  Elec       q    Type
REMARK                         _______ _______ _______ _____ _____    ______ ____
ROOT
ATOM      1  C   UNL     1       0.206   2.900 -24.115  0.00  0.00    +0.159 C 
ATOM      2  C   UNL     1      -0.735   3.034 -23.962  0.00  0.00    +0.032 C 
ATOM      3  C   UNL     1      -1.485   2.664 -22.702  0.00  0.00    +0.075 C 
ATOM      4  C   UNL     1      -2.123   3.020 -23.231  0.00  0.00    +0.076 C 
ATOM      5  C   UNL     1      -1.464   3.170 -23.920  0.00  0.00    +0.090 C 
ATOM      6  C   UNL     1      -0.109   2.582 -23.197  0.00  0.00    -0.035 A 
ATOM      7  C   UNL     1       1.486   2.373 -23.500  0.00  0.00    +0.008 A 
ATOM      8  C   UNL     1       2.201   1.866 -22.649  0.00  0.00    +0.049 A 
ATOM      9  C   UNL     1       1.700   1.511 -21.548  0.00  0.00    +0.162 A 
ATOM     10  C   UNL     1       0.429   1.675 -21.301  0.00  0.00    +0.163 A 
ATOM     11  C   UNL     1      -0.382   2.215 -22.183  0.00  0.00    +0.009 A 
ATOM     12  N   UNL     1      -3.261   3.029 -22.680  0.00  0.00    +0.236 N 
ATOM     13  H   UNL     1      -4.066   3.407 -23.177  0.00  0.00    +0.203 HD
ATOM     14  C   UNL     1      -4.288   3.485 -23.253  0.00  0.00    +0.190 C 
ATOM     15  C   UNL     1      -3.301   2.526 -21.457  0.00  0.00    +0.132 C 
ATOM     16  C   UNL     1      -2.159   2.088 -20.987  0.00  0.00    +0.064 C 
ATOM     17  C   UNL     1      -1.201   2.213 -21.765  0.00  0.00    +0.023 C 
ATOM     18  C   UNL     1       0.286   2.013 -22.037  0.00  0.00    +0.095 C 
ATOM     19  C   UNL     1       0.807   2.467 -23.384  0.00  0.00    +0.198 C 
ATOM     20  O   UNL     1       0.964   3.197 -25.206  0.00  0.00    -0.289 OA
ENDROOT
BRANCH   1  22
ATOM     21  C   UNL     1       1.042   4.295 -26.192  0.00  0.00    +0.277 C 
ATOM     22  O   UNL     1      -0.048   3.559 -25.563  0.00  0.00    -0.492 OA
ENDBRANCH   1  22
BRANCH  10  23
ATOM     23  O   UNL     1       0.685   1.174 -20.232  0.00  0.00    -0.503 OA
ATOM     24  H   UNL     1       1.289   1.593 -19.651  0.00  0.00    +0.292 HD
ENDBRANCH  10  23
BRANCH   9  25
ATOM     25  O   UNL     1       2.365   0.962 -20.570  0.00  0.00    -0.491 OA
ATOM     26  C   UNL     1       3.530   0.549 -20.644  0.00  0.00    +0.277 C 
ENDBRANCH   9  25
TORSDOF 3
ENDMDL
MODEL 8
REMARK VINA RESULT:    -9.811      2.019      4.111
REMARK INTER + INTRA:          -9.836
REMARK INTER:                 -10.672
REMARK INTRA:                   0.836
REMARK UNBOUND:                 0.836
REMARK  Name = ZINC000001280591
REMARK  6 active torsions:
REMARK  status: ('A' for Active; 'I' for Inactive)
REMARK    1  A    between atoms: C_1  and  O_2
REMARK    2  A    between atoms: O_2  and  C_3
REMARK    3  A    between atoms: C_11  and  O_12
REMARK    4  A    between atoms: O_12  and  C_13
REMARK    5  A    between atoms: C_14  and  O_15
REMARK    6  A    between atoms: N_20  and  C_21
REMARK                            x       y       z     vdW  Elec       q    Type
REMARK                         _______ _______ _______ _____ _____    ______ ____
ROOT
ATOM      1  C   UNL     1      -0.958   3.703 -24.331  0.00  0.00    +0.159 C 
ATOM      2  C   UNL     1      -1.458   3.635 -25.151  0.00  0.00    +0.032 C 
ATOM      3  C   UNL     1      -2.963   3.543 -25.263  0.00  0.00    +0.075 C 
ATOM      4  C   UNL     1      -2.685   3.518 -26.121  0.00  0.00    +0.076 C 
ATOM      5  C   UNL     1      -1.770   3.585 -25.824  0.00  0.00    +0.090 C 
ATOM      6  C   UNL     1      -1.968   3.651 -24.192  0.00  0.00    -0.035 A 
ATOM      7  C   UNL     1      -1.080   3.768 -22.823  0.00  0.00    +0.008 A 
ATOM      8  C   UNL     1      -1.642   3.788 -21.739  0.00  0.00    +0.049 A 
ATOM      9  C   UNL     1      -2.900   3.718 -21.689  0.00  0.00    +0.162 A 
ATOM     10  C   UNL     1      -3.613   3.625 -22.778  0.00  0.00    +0.163 A 
ATOM     11  C   UNL     1      -3.057   3.600 -23.968  0.00  0.00    +0.009 A 
ATOM     12  N   UNL     1      -3.645   3.424 -26.938  0.00  0.00    +0.236 N 
ATOM     13  H   UNL     1      -3.461   3.386 -27.940  0.00  0.00    +0.203 HD
ATOM     14  C   UNL     1      -3.470   3.374 -28.187  0.00  0.00    +0.190 C 
ATOM     15  C   UNL     1      -4.850   3.381 -26.393  0.00  0.00    +0.132 C 
ATOM     16  C   UNL     1      -4.882   3.441 -25.085  0.00  0.00    +0.064 C 
ATOM     17  C   UNL     1      -3.768   3.531 -24.547  0.00  0.00    +0.023 C 
ATOM     18  C   UNL     1      -2.950   3.639 -23.265  0.00  0.00    +0.095 C 
ATOM     19  C   UNL     1      -1.446   3.719 -23.412  0.00  0.00    +0.198 C 
ATOM     20  O   UNL     1       0.386   3.790 -24.132  0.00  0.00    -0.289 OA
ENDROOT
BRANCH   1  22
ATOM     21  C   UNL     1       1.586   4.289 -24.710  0.00  0.00    +0.277 C 
ATOM     22  O   UNL     1       0.356   3.734 -25.263  0.00  0.00    -0.492 OA
ENDBRANCH   1  22
BRANCH  10  23
ATOM     23  O   UNL     1      -4.558   3.606 -22.025  0.00  0.00    -0.503 OA
ATOM     24  H   UNL     1      -5.347   4.058 -22.254  0.00  0.00    +0.292 HD
ENDBRANCH  10  23
BRANCH   9  25
ATOM     25  O   UNL     1      -3.603   3.730 -20.592  0.00  0.00    -0.491 OA
ATOM     26  C   UNL     1      -3.140   3.645 -19.447  0.00  0.00    +0.277 C 
ENDBRANCH   9  25
TORSDOF 3
ENDMDL
MODEL 9
REMARK VINA RESULT:    -9.621      1.988      5.256
REMARK INTER + INTRA:          -9.629
REMARK INTER:                 -10.716
REMARK INTRA:                   1.087
REMARK UNBOUND:                 0.836
REMARK  Name = ZINC000001280591
REMARK  6 active torsions:
REMARK  status: ('A' for Active; 'I' for Inactive)
REMARK    1  A    between atoms: C_1  and  O_2
REMARK    2  A    between atoms: O_2  and  C_3
REMARK    3  A    between atoms: C_11  and  O_12
REMARK    4  A    between atoms: O_12  and  C_13
REMARK    5  A    between atoms: C_14  and  O_15
REMARK    6  A    between atoms: N_20  and  C_21
REMARK                            x       y       z     vdW  Elec       q    Type
REMARK                         _______ _______ _______ _____ _____    ______ ____
ROOT
ATOM      1  C   UNL     1      -0.430   1.829 -21.875  0.00  0.00    +0.159 C 
ATOM      2  C   UNL     1       0.130   2.027 -22.634  0.00  0.00    +0.032 C 
ATOM      3  C   UNL     1      -0.299   2.779 -23.874  0.00  0.00    +0.075 C 
ATOM      4  C   UNL     1       0.566   2.583 -24.034  0.00  0.00    +0.076 C 
ATOM      5  C   UNL     1       0.622   2.141 -23.178  0.00  0.00    +0.090 C 
ATOM      6  C   UNL     1      -0.908   2.347 -22.613  0.00  0.00    -0.035 A 
ATOM      7  C   UNL     1      -1.822   1.987 -21.304  0.00  0.00    +0.008 A 
ATOM      8  C   UNL     1      -2.991   2.341 -21.269  0.00  0.00    +0.049 A 
ATOM      9  C   UNL     1      -3.478   2.978 -22.242  0.00  0.00    +0.162 A 
ATOM     10  C   UNL     1      -2.753   3.267 -23.288  0.00  0.00    +0.163 A 
ATOM     11  C   UNL     1      -1.492   2.910 -23.375  0.00  0.00    +0.009 A 
ATOM     12  N   UNL     1       0.961   3.015 -25.155  0.00  0.00    +0.236 N 
ATOM     13  H   UNL     1       1.923   2.857 -25.453  0.00  0.00    +0.203 HD
ATOM     14  C   UNL     1       2.141   2.845 -25.569  0.00  0.00    +0.190 C 
ATOM     15  C   UNL     1       0.050   3.657 -25.866  0.00  0.00    +0.132 C 
ATOM     16  C   UNL     1      -1.134   3.758 -25.313  0.00  0.00    +0.064 C 
ATOM     17  C   UNL     1      -1.224   3.231 -24.193  0.00  0.00    +0.023 C 
ATOM     18  C   UNL     1      -2.084   2.902 -22.979  0.00  0.00    +0.095 C 
ATOM     19  C   UNL     1      -1.424   2.134 -21.854  0.00  0.00    +0.198 C 
ATOM     20  O   UNL     1      -0.135   1.164 -20.724  0.00  0.00    -0.289 OA
ENDROOT
BRANCH   1  22
ATOM     21  C   UNL     1       1.386   1.593 -19.976  0.00  0.00    +0.277 C 
ATOM     22  O   UNL     1       0.867   1.106 -21.248  0.00  0.00    -0.492 OA
ENDBRANCH   1  22
BRANCH  10  23
ATOM     23  O   UNL     1      -3.760   3.793 -23.702  0.00  0.00    -0.503 OA
ATOM     24  H   UNL     1      -3.705   4.599 -24.176  0.00  0.00    +0.292 HD
ENDBRANCH  10  23
BRANCH   9  25
ATOM     25  O   UNL     1      -4.708   3.404 -22.312  0.00  0.00    -0.491 OA
ATOM     26  C   UNL     1      -5.664   2.928 -21.687  0.00  0.00    +0.277 C 
ENDBRANCH   9  25
TORSDOF 3
ENDMDL
