MODEL 1
REMARK VINA RESULT:    -8.829      0.000      0.000
REMARK INTER + INTRA:         -13.833
REMARK INTER:                 -12.872
REMARK INTRA:                  -0.961
REMARK UNBOUND:                -0.101
REMARK  Name = ZINC000005796482
REMARK  11 active torsions:
REMARK  status: ('A' for Active; 'I' for Inactive)
REMARK    1  A    between atoms: C_1  and  C_2
REMARK    2  A    between atoms: C_2  and  O_3
REMARK    3  A    between atoms: O_3  and  C_4
REMARK    4  A    between atoms: C_4  and  C_6
REMARK    5  A    between atoms: C_6  and  C_7
REMARK    6  A    between atoms: C_6  and  N_15
REMARK    7  A    between atoms: C_7  and  C_8
REMARK    8  A    between atoms: C_11  and  O_12
REMARK    9  A    between atoms: C_16  and  O_18
REMARK   10  A    between atoms: O_18  and  C_19
REMARK   11  A    between atoms: C_19  and  C_20
REMARK                            x       y       z     vdW  Elec       q    Type
REMARK                         _______ _______ _______ _____ _____    ______ ____
ROOT
ATOM      1  C   UNL     1       1.796   1.853 -22.495  0.00  0.00    +0.189 C 
ENDROOT
BRANCH   1   2
ATOM      2  N   UNL     1       0.794   2.309 -21.802  0.00  0.00    -0.268 N 
ATOM      3  H   UNL     1       0.958   2.797 -20.962  0.00  0.00    +0.153 HD
ATOM      4  C   UNL     1      -0.423   2.121 -22.217  0.00  0.00    +0.401 C 
ATOM      5  O   UNL     1      -0.639   1.477 -23.326  0.00  0.00    -0.226 OA
BRANCH   4   6
ATOM      6  O   UNL     1      -1.424   2.577 -21.524  0.00  0.00    -0.446 OA
BRANCH   6   7
ATOM      7  C   UNL     1      -2.003   3.688 -21.873  0.00  0.00    +0.269 C 
BRANCH   7   8
ATOM      8  C   UNL     1      -3.211   3.667 -22.354  0.00  0.00    -0.010 A 
ATOM      9  C   UNL     1      -3.414   3.924 -23.612  0.00  0.00    +0.007 A 
ATOM     10  C   UNL     1      -4.621   3.903 -24.093  0.00  0.00    +0.000 A 
ATOM     11  C   UNL     1      -5.626   3.626 -23.316  0.00  0.00    +0.000 A 
ATOM     12  C   UNL     1      -5.423   3.369 -22.058  0.00  0.00    +0.000 A 
ATOM     13  C   UNL     1      -4.216   3.390 -21.577  0.00  0.00    +0.007 A 
ENDBRANCH   7   8
ENDBRANCH   6   7
ENDBRANCH   4   6
ENDBRANCH   1   2
BRANCH   1  14
ATOM     14  C   UNL     1       2.363   0.733 -22.158  0.00  0.00    +0.328 C 
ATOM     15  O   UNL     1       2.397  -0.257 -23.000  0.00  0.00    -0.249 OA
BRANCH  14  16
ATOM     16  O   UNL     1       2.897   0.604 -20.980  0.00  0.00    -0.464 OA
BRANCH  16  18
ATOM     17  C   UNL     1       5.038   1.192 -20.605  0.00  0.00    +0.048 C 
ATOM     18  C   UNL     1       4.151   0.279 -20.867  0.00  0.00    +0.229 C 
ENDBRANCH  16  18
ENDBRANCH  14  16
ENDBRANCH   1  14
BRANCH   1  19
ATOM     19  C   UNL     1       2.229   2.518 -23.525  0.00  0.00    +0.069 C 
BRANCH  19  20
ATOM     20  C   UNL     1       3.280   3.274 -23.415  0.00  0.00    -0.045 A 
ATOM     21  C   UNL     1       4.456   2.799 -23.701  0.00  0.00    +0.007 A 
ATOM     22  C   UNL     1       5.507   3.556 -23.591  0.00  0.00    +0.045 A 
ATOM     23  C   UNL     1       5.382   4.789 -23.195  0.00  0.00    +0.117 A 
ATOM     24  C   UNL     1       4.206   5.264 -22.909  0.00  0.00    +0.045 A 
ATOM     25  C   UNL     1       3.155   4.507 -23.020  0.00  0.00    +0.007 A 
BRANCH  23  26
ATOM     26  O   UNL     1       6.434   5.545 -23.085  0.00  0.00    -0.507 OA
ATOM     27  H   UNL     1       6.813   5.700 -22.242  0.00  0.00    +0.292 HD
ENDBRANCH  23  26
ENDBRANCH  19  20
ENDBRANCH   1  19
TORSDOF 10
ENDMDL
MODEL 2
REMARK VINA RESULT:    -8.301      1.680      3.103
REMARK INTER + INTRA:         -13.012
REMARK INTER:                 -12.848
REMARK INTRA:                  -0.164
REMARK UNBOUND:                -0.101
REMARK  Name = ZINC000005796482
REMARK  11 active torsions:
REMARK  status: ('A' for Active; 'I' for Inactive)
REMARK    1  A    between atoms: C_1  and  C_2
REMARK    2  A    between atoms: C_2  and  O_3
REMARK    3  A    between atoms: O_3  and  C_4
REMARK    4  A    between atoms: C_4  and  C_6
REMARK    5  A    between atoms: C_6  and  C_7
REMARK    6  A    between atoms: C_6  and  N_15
REMARK    7  A    between atoms: C_7  and  C_8
REMARK    8  A    between atoms: C_11  and  O_12
REMARK    9  A    between atoms: C_16  and  O_18
REMARK   10  A    between atoms: O_18  and  C_19
REMARK   11  A    between atoms: C_19  and  C_20
REMARK                            x       y       z     vdW  Elec       q    Type
REMARK                         _______ _______ _______ _____ _____    ______ ____
ROOT
ATOM      1  C   UNL     1       1.438   2.879 -23.618  0.00  0.00    +0.189 C 
ENDROOT
BRANCH   1   2
ATOM      2  N   UNL     1       0.603   2.951 -22.624  0.00  0.00    -0.268 N 
ATOM      3  H   UNL     1       0.824   3.494 -21.833  0.00  0.00    +0.153 HD
ATOM      4  C   UNL     1      -0.525   2.307 -22.675  0.00  0.00    +0.401 C 
ATOM      5  O   UNL     1      -0.818   1.590 -23.720  0.00  0.00    -0.226 OA
BRANCH   4   6
ATOM      6  O   UNL     1      -1.361   2.379 -21.682  0.00  0.00    -0.446 OA
BRANCH   6   7
ATOM      7  C   UNL     1      -2.116   3.428 -21.543  0.00  0.00    +0.269 C 
BRANCH   7   8
ATOM      8  C   UNL     1      -3.312   3.440 -22.054  0.00  0.00    -0.010 A 
ATOM      9  C   UNL     1      -3.492   3.842 -23.277  0.00  0.00    +0.007 A 
ATOM     10  C   UNL     1      -4.687   3.854 -23.788  0.00  0.00    +0.000 A 
ATOM     11  C   UNL     1      -5.702   3.463 -23.076  0.00  0.00    +0.000 A 
ATOM     12  C   UNL     1      -5.522   3.061 -21.853  0.00  0.00    +0.000 A 
ATOM     13  C   UNL     1      -4.327   3.050 -21.342  0.00  0.00    +0.007 A 
ENDBRANCH   7   8
ENDBRANCH   6   7
ENDBRANCH   4   6
ENDBRANCH   1   2
BRANCH   1  14
ATOM     14  C   UNL     1       1.444   3.803 -24.531  0.00  0.00    +0.328 C 
ATOM     15  O   UNL     1       1.266   3.485 -25.779  0.00  0.00    -0.249 OA
BRANCH  14  16
ATOM     16  O   UNL     1       1.627   5.046 -24.197  0.00  0.00    -0.464 OA
BRANCH  16  18
ATOM     17  C   UNL     1       3.206   5.985 -22.895  0.00  0.00    +0.048 C 
ATOM     18  C   UNL     1       2.084   5.340 -23.016  0.00  0.00    +0.229 C 
ENDBRANCH  16  18
ENDBRANCH  14  16
ENDBRANCH   1  14
BRANCH   1  19
ATOM     19  C   UNL     1       2.268   1.881 -23.697  0.00  0.00    +0.069 C 
BRANCH  19  20
ATOM     20  C   UNL     1       3.129   1.675 -22.745  0.00  0.00    -0.045 A 
ATOM     21  C   UNL     1       2.925   0.728 -21.878  0.00  0.00    +0.007 A 
ATOM     22  C   UNL     1       3.786   0.522 -20.926  0.00  0.00    +0.045 A 
ATOM     23  C   UNL     1       4.851   1.264 -20.840  0.00  0.00    +0.117 A 
ATOM     24  C   UNL     1       5.054   2.211 -21.707  0.00  0.00    +0.045 A 
ATOM     25  C   UNL     1       4.194   2.417 -22.659  0.00  0.00    +0.007 A 
BRANCH  23  26
ATOM     26  O   UNL     1       5.712   1.058 -19.888  0.00  0.00    -0.507 OA
ATOM     27  H   UNL     1       5.449   1.142 -18.993  0.00  0.00    +0.292 HD
ENDBRANCH  23  26
ENDBRANCH  19  20
ENDBRANCH   1  19
TORSDOF 10
ENDMDL
MODEL 3
REMARK VINA RESULT:    -8.235      2.201      7.364
REMARK INTER + INTRA:         -12.910
REMARK INTER:                 -12.476
REMARK INTRA:                  -0.434
REMARK UNBOUND:                -0.101
REMARK  Name = ZINC000005796482
REMARK  11 active torsions:
REMARK  status: ('A' for Active; 'I' for Inactive)
REMARK    1  A    between atoms: C_1  and  C_2
REMARK    2  A    between atoms: C_2  and  O_3
REMARK    3  A    between atoms: O_3  and  C_4
REMARK    4  A    between atoms: C_4  and  C_6
REMARK    5  A    between atoms: C_6  and  C_7
REMARK    6  A    between atoms: C_6  and  N_15
REMARK    7  A    between atoms: C_7  and  C_8
REMARK    8  A    between atoms: C_11  and  O_12
REMARK    9  A    between atoms: C_16  and  O_18
REMARK   10  A    between atoms: O_18  and  C_19
REMARK   11  A    between atoms: C_19  and  C_20
REMARK                            x       y       z     vdW  Elec       q    Type
REMARK                         _______ _______ _______ _____ _____    ______ ____
ROOT
ATOM      1  C   UNL     1      -0.146   3.671 -24.133  0.00  0.00    +0.189 C 
ENDROOT
BRANCH   1   2
ATOM      2  N   UNL     1       0.552   2.593 -23.922  0.00  0.00    -0.268 N 
ATOM      3  H   UNL     1       0.410   2.068 -23.101  0.00  0.00    +0.153 HD
ATOM      4  C   UNL     1       1.436   2.210 -24.794  0.00  0.00    +0.401 C 
ATOM      5  O   UNL     1       1.623   2.904 -25.878  0.00  0.00    -0.226 OA
BRANCH   4   6
ATOM      6  O   UNL     1       2.133   1.133 -24.583  0.00  0.00    -0.446 OA
BRANCH   6   7
ATOM      7  C   UNL     1       3.409   1.221 -24.349  0.00  0.00    +0.269 C 
BRANCH   7   8
ATOM      8  C   UNL     1       3.851   1.164 -23.128  0.00  0.00    -0.010 A 
ATOM      9  C   UNL     1       4.928   1.813 -22.796  0.00  0.00    +0.007 A 
ATOM     10  C   UNL     1       5.370   1.756 -21.575  0.00  0.00    +0.000 A 
ATOM     11  C   UNL     1       4.736   1.051 -20.686  0.00  0.00    +0.000 A 
ATOM     12  C   UNL     1       3.660   0.402 -21.018  0.00  0.00    +0.000 A 
ATOM     13  C   UNL     1       3.217   0.458 -22.239  0.00  0.00    +0.007 A 
ENDBRANCH   7   8
ENDBRANCH   6   7
ENDBRANCH   4   6
ENDBRANCH   1   2
BRANCH   1  14
ATOM     14  C   UNL     1       0.196   4.788 -23.565  0.00  0.00    +0.328 C 
ATOM     15  O   UNL     1      -0.512   5.260 -22.582  0.00  0.00    -0.249 OA
BRANCH  14  16
ATOM     16  O   UNL     1       1.245   5.434 -23.979  0.00  0.00    -0.464 OA
BRANCH  16  18
ATOM     17  C   UNL     1       3.282   4.905 -23.178  0.00  0.00    +0.048 C 
ATOM     18  C   UNL     1       2.229   5.667 -23.161  0.00  0.00    +0.229 C 
ENDBRANCH  16  18
ENDBRANCH  14  16
ENDBRANCH   1  14
BRANCH   1  19
ATOM     19  C   UNL     1      -1.185   3.629 -24.914  0.00  0.00    +0.069 C 
BRANCH  19  20
ATOM     20  C   UNL     1      -2.381   3.644 -24.405  0.00  0.00    -0.045 A 
ATOM     21  C   UNL     1      -2.646   2.936 -23.347  0.00  0.00    +0.007 A 
ATOM     22  C   UNL     1      -3.842   2.951 -22.838  0.00  0.00    +0.045 A 
ATOM     23  C   UNL     1      -4.773   3.674 -23.386  0.00  0.00    +0.117 A 
ATOM     24  C   UNL     1      -4.508   4.382 -24.444  0.00  0.00    +0.045 A 
ATOM     25  C   UNL     1      -3.312   4.367 -24.953  0.00  0.00    +0.007 A 
BRANCH  23  26
ATOM     26  O   UNL     1      -5.969   3.689 -22.877  0.00  0.00    -0.507 OA
ATOM     27  H   UNL     1      -6.437   2.886 -22.756  0.00  0.00    +0.292 HD
ENDBRANCH  23  26
ENDBRANCH  19  20
ENDBRANCH   1  19
TORSDOF 10
ENDMDL
MODEL 4
REMARK VINA RESULT:    -8.082      1.923      7.599
REMARK INTER + INTRA:         -12.672
REMARK INTER:                 -11.876
REMARK INTRA:                  -0.796
REMARK UNBOUND:                -0.101
REMARK  Name = ZINC000005796482
REMARK  11 active torsions:
REMARK  status: ('A' for Active; 'I' for Inactive)
REMARK    1  A    between atoms: C_1  and  C_2
REMARK    2  A    between atoms: C_2  and  O_3
REMARK    3  A    between atoms: O_3  and  C_4
REMARK    4  A    between atoms: C_4  and  C_6
REMARK    5  A    between atoms: C_6  and  C_7
REMARK    6  A    between atoms: C_6  and  N_15
REMARK    7  A    between atoms: C_7  and  C_8
REMARK    8  A    between atoms: C_11  and  O_12
REMARK    9  A    between atoms: C_16  and  O_18
REMARK   10  A    between atoms: O_18  and  C_19
REMARK   11  A    between atoms: C_19  and  C_20
REMARK                            x       y       z     vdW  Elec       q    Type
REMARK                         _______ _______ _______ _____ _____    ______ ____
ROOT
ATOM      1  C   UNL     1      -0.483   3.367 -23.233  0.00  0.00    +0.189 C 
ENDROOT
BRANCH   1   2
ATOM      2  N   UNL     1       0.198   2.513 -22.527  0.00  0.00    -0.268 N 
ATOM      3  H   UNL     1       0.033   2.430 -21.560  0.00  0.00    +0.153 HD
ATOM      4  C   UNL     1       1.098   1.768 -23.097  0.00  0.00    +0.401 C 
ATOM      5  O   UNL     1       1.317   1.877 -24.375  0.00  0.00    -0.226 OA
BRANCH   4   6
ATOM      6  O   UNL     1       1.779   0.915 -22.392  0.00  0.00    -0.446 OA
BRANCH   6   7
ATOM      7  C   UNL     1       2.990   0.600 -22.745  0.00  0.00    +0.269 C 
BRANCH   7   8
ATOM      8  C   UNL     1       3.990   1.341 -22.366  0.00  0.00    -0.010 A 
ATOM      9  C   UNL     1       4.263   1.465 -21.101  0.00  0.00    +0.007 A 
ATOM     10  C   UNL     1       5.262   2.205 -20.722  0.00  0.00    +0.000 A 
ATOM     11  C   UNL     1       5.988   2.821 -21.608  0.00  0.00    +0.000 A 
ATOM     12  C   UNL     1       5.714   2.696 -22.872  0.00  0.00    +0.000 A 
ATOM     13  C   UNL     1       4.715   1.956 -23.251  0.00  0.00    +0.007 A 
ENDBRANCH   7   8
ENDBRANCH   6   7
ENDBRANCH   4   6
ENDBRANCH   1   2
BRANCH   1  14
ATOM     14  C   UNL     1      -0.151   4.623 -23.230  0.00  0.00    +0.328 C 
ATOM     15  O   UNL     1      -0.760   5.454 -22.438  0.00  0.00    -0.249 OA
BRANCH  14  16
ATOM     16  O   UNL     1       0.789   5.049 -24.021  0.00  0.00    -0.464 OA
BRANCH  16  18
ATOM     17  C   UNL     1       2.862   4.941 -23.148  0.00  0.00    +0.048 C 
ATOM     18  C   UNL     1       1.835   5.643 -23.525  0.00  0.00    +0.229 C 
ENDBRANCH  16  18
ENDBRANCH  14  16
ENDBRANCH   1  14
BRANCH   1  19
ATOM     19  C   UNL     1      -1.495   2.962 -23.941  0.00  0.00    +0.069 C 
BRANCH  19  20
ATOM     20  C   UNL     1      -2.705   3.109 -23.488  0.00  0.00    -0.045 A 
ATOM     21  C   UNL     1      -3.615   3.663 -24.233  0.00  0.00    +0.007 A 
ATOM     22  C   UNL     1      -4.825   3.809 -23.780  0.00  0.00    +0.045 A 
ATOM     23  C   UNL     1      -5.124   3.402 -22.582  0.00  0.00    +0.117 A 
ATOM     24  C   UNL     1      -4.214   2.848 -21.837  0.00  0.00    +0.045 A 
ATOM     25  C   UNL     1      -3.004   2.701 -22.290  0.00  0.00    +0.007 A 
BRANCH  23  26
ATOM     26  O   UNL     1      -6.334   3.548 -22.128  0.00  0.00    -0.507 OA
ATOM     27  H   UNL     1      -7.024   3.001 -22.449  0.00  0.00    +0.292 HD
ENDBRANCH  23  26
ENDBRANCH  19  20
ENDBRANCH   1  19
TORSDOF 10
ENDMDL
MODEL 5
REMARK VINA RESULT:    -8.013      1.719      3.076
REMARK INTER + INTRA:         -12.564
REMARK INTER:                 -12.196
REMARK INTRA:                  -0.368
REMARK UNBOUND:                -0.101
REMARK  Name = ZINC000005796482
REMARK  11 active torsions:
REMARK  status: ('A' for Active; 'I' for Inactive)
REMARK    1  A    between atoms: C_1  and  C_2
REMARK    2  A    between atoms: C_2  and  O_3
REMARK    3  A    between atoms: O_3  and  C_4
REMARK    4  A    between atoms: C_4  and  C_6
REMARK    5  A    between atoms: C_6  and  C_7
REMARK    6  A    between atoms: C_6  and  N_15
REMARK    7  A    between atoms: C_7  and  C_8
REMARK    8  A    between atoms: C_11  and  O_12
REMARK    9  A    between atoms: C_16  and  O_18
REMARK   10  A    between atoms: O_18  and  C_19
REMARK   11  A    between atoms: C_19  and  C_20
REMARK                            x       y       z     vdW  Elec       q    Type
REMARK                         _______ _______ _______ _____ _____    ______ ____
ROOT
ATOM      1  C   UNL     1       1.799   2.283 -23.209  0.00  0.00    +0.189 C 
ENDROOT
BRANCH   1   2
ATOM      2  N   UNL     1       0.866   2.834 -22.489  0.00  0.00    -0.268 N 
ATOM      3  H   UNL     1       0.974   3.757 -22.165  0.00  0.00    +0.153 HD
ATOM      4  C   UNL     1      -0.210   2.165 -22.197  0.00  0.00    +0.401 C 
ATOM      5  O   UNL     1      -0.353   0.945 -22.625  0.00  0.00    -0.226 OA
BRANCH   4   6
ATOM      6  O   UNL     1      -1.142   2.715 -21.478  0.00  0.00    -0.446 OA
BRANCH   6   7
ATOM      7  C   UNL     1      -2.299   2.134 -21.359  0.00  0.00    +0.269 C 
BRANCH   7   8
ATOM      8  C   UNL     1      -3.345   2.642 -21.942  0.00  0.00    -0.010 A 
ATOM      9  C   UNL     1      -4.496   2.628 -21.338  0.00  0.00    +0.007 A 
ATOM     10  C   UNL     1      -5.541   3.136 -21.921  0.00  0.00    +0.000 A 
ATOM     11  C   UNL     1      -5.435   3.656 -23.108  0.00  0.00    +0.000 A 
ATOM     12  C   UNL     1      -4.283   3.669 -23.712  0.00  0.00    +0.000 A 
ATOM     13  C   UNL     1      -3.238   3.162 -23.129  0.00  0.00    +0.007 A 
ENDBRANCH   7   8
ENDBRANCH   6   7
ENDBRANCH   4   6
ENDBRANCH   1   2
BRANCH   1  14
ATOM     14  C   UNL     1       1.850   2.505 -24.488  0.00  0.00    +0.328 C 
ATOM     15  O   UNL     1       2.181   1.547 -25.302  0.00  0.00    -0.249 OA
BRANCH  14  16
ATOM     16  O   UNL     1       1.570   3.686 -24.954  0.00  0.00    -0.464 OA
BRANCH  16  18
ATOM     17  C   UNL     1      -0.602   3.741 -25.548  0.00  0.00    +0.048 C 
ATOM     18  C   UNL     1       0.656   3.823 -25.869  0.00  0.00    +0.229 C 
ENDBRANCH  16  18
ENDBRANCH  14  16
ENDBRANCH   1  14
BRANCH   1  19
ATOM     19  C   UNL     1       2.680   1.509 -22.647  0.00  0.00    +0.069 C 
BRANCH  19  20
ATOM     20  C   UNL     1       3.802   2.007 -22.217  0.00  0.00    -0.045 A 
ATOM     21  C   UNL     1       4.241   1.695 -21.035  0.00  0.00    +0.007 A 
ATOM     22  C   UNL     1       5.362   2.193 -20.605  0.00  0.00    +0.045 A 
ATOM     23  C   UNL     1       6.045   3.004 -21.358  0.00  0.00    +0.117 A 
ATOM     24  C   UNL     1       5.605   3.317 -22.541  0.00  0.00    +0.045 A 
ATOM     25  C   UNL     1       4.484   2.819 -22.970  0.00  0.00    +0.007 A 
BRANCH  23  26
ATOM     26  O   UNL     1       7.166   3.502 -20.928  0.00  0.00    -0.507 OA
ATOM     27  H   UNL     1       7.830   2.935 -20.589  0.00  0.00    +0.292 HD
ENDBRANCH  23  26
ENDBRANCH  19  20
ENDBRANCH   1  19
TORSDOF 10
ENDMDL
MODEL 6
REMARK VINA RESULT:    -7.985      1.878      2.701
REMARK INTER + INTRA:         -12.521
REMARK INTER:                 -12.083
REMARK INTRA:                  -0.438
REMARK UNBOUND:                -0.101
REMARK  Name = ZINC000005796482
REMARK  11 active torsions:
REMARK  status: ('A' for Active; 'I' for Inactive)
REMARK    1  A    between atoms: C_1  and  C_2
REMARK    2  A    between atoms: C_2  and  O_3
REMARK    3  A    between atoms: O_3  and  C_4
REMARK    4  A    between atoms: C_4  and  C_6
REMARK    5  A    between atoms: C_6  and  C_7
REMARK    6  A    between atoms: C_6  and  N_15
REMARK    7  A    between atoms: C_7  and  C_8
REMARK    8  A    between atoms: C_11  and  O_12
REMARK    9  A    between atoms: C_16  and  O_18
REMARK   10  A    between atoms: O_18  and  C_19
REMARK   11  A    between atoms: C_19  and  C_20
REMARK                            x       y       z     vdW  Elec       q    Type
REMARK                         _______ _______ _______ _____ _____    ______ ____
ROOT
ATOM      1  C   UNL     1       2.695   2.771 -23.677  0.00  0.00    +0.189 C 
ENDROOT
BRANCH   1   2
ATOM      2  N   UNL     1       1.905   3.754 -23.356  0.00  0.00    -0.268 N 
ATOM      3  H   UNL     1       1.898   4.100 -22.435  0.00  0.00    +0.153 HD
ATOM      4  C   UNL     1       1.124   4.279 -24.253  0.00  0.00    +0.401 C 
ATOM      5  O   UNL     1       1.133   3.822 -25.470  0.00  0.00    -0.226 OA
BRANCH   4   6
ATOM      6  O   UNL     1       0.335   5.261 -23.933  0.00  0.00    -0.446 OA
BRANCH   6   7
ATOM      7  C   UNL     1      -0.445   5.157 -22.898  0.00  0.00    +0.269 C 
BRANCH   7   8
ATOM      8  C   UNL     1      -1.595   4.559 -23.010  0.00  0.00    -0.010 A 
ATOM      9  C   UNL     1      -2.128   3.980 -21.975  0.00  0.00    +0.007 A 
ATOM     10  C   UNL     1      -3.278   3.383 -22.086  0.00  0.00    +0.000 A 
ATOM     11  C   UNL     1      -3.894   3.365 -23.231  0.00  0.00    +0.000 A 
ATOM     12  C   UNL     1      -3.360   3.945 -24.265  0.00  0.00    +0.000 A 
ATOM     13  C   UNL     1      -2.211   4.542 -24.154  0.00  0.00    +0.007 A 
ENDBRANCH   7   8
ENDBRANCH   6   7
ENDBRANCH   4   6
ENDBRANCH   1   2
BRANCH   1  14
ATOM     14  C   UNL     1       2.246   1.552 -23.683  0.00  0.00    +0.328 C 
ATOM     15  O   UNL     1       2.832   0.647 -24.409  0.00  0.00    -0.249 OA
BRANCH  14  16
ATOM     16  O   UNL     1       1.210   1.237 -22.964  0.00  0.00    -0.464 OA
BRANCH  16  18
ATOM     17  C   UNL     1       0.176   1.489 -20.979  0.00  0.00    +0.048 C 
ATOM     18  C   UNL     1       1.267   1.328 -21.668  0.00  0.00    +0.229 C 
ENDBRANCH  16  18
ENDBRANCH  14  16
ENDBRANCH   1  14
BRANCH   1  19
ATOM     19  C   UNL     1       3.934   3.010 -23.991  0.00  0.00    +0.069 C 
BRANCH  19  20
ATOM     20  C   UNL     1       4.790   3.323 -23.064  0.00  0.00    -0.045 A 
ATOM     21  C   UNL     1       5.046   2.483 -22.105  0.00  0.00    +0.007 A 
ATOM     22  C   UNL     1       5.902   2.796 -21.178  0.00  0.00    +0.045 A 
ATOM     23  C   UNL     1       6.503   3.949 -21.210  0.00  0.00    +0.117 A 
ATOM     24  C   UNL     1       6.247   4.788 -22.169  0.00  0.00    +0.045 A 
ATOM     25  C   UNL     1       5.391   4.476 -23.096  0.00  0.00    +0.007 A 
BRANCH  23  26
ATOM     26  O   UNL     1       7.359   4.262 -20.283  0.00  0.00    -0.507 OA
ATOM     27  H   UNL     1       7.534   5.162 -20.092  0.00  0.00    +0.292 HD
ENDBRANCH  23  26
ENDBRANCH  19  20
ENDBRANCH   1  19
TORSDOF 10
ENDMDL
MODEL 7
REMARK VINA RESULT:    -7.908      1.782      7.594
REMARK INTER + INTRA:         -12.401
REMARK INTER:                 -11.720
REMARK INTRA:                  -0.681
REMARK UNBOUND:                -0.101
REMARK  Name = ZINC000005796482
REMARK  11 active torsions:
REMARK  status: ('A' for Active; 'I' for Inactive)
REMARK    1  A    between atoms: C_1  and  C_2
REMARK    2  A    between atoms: C_2  and  O_3
REMARK    3  A    between atoms: O_3  and  C_4
REMARK    4  A    between atoms: C_4  and  C_6
REMARK    5  A    between atoms: C_6  and  C_7
REMARK    6  A    between atoms: C_6  and  N_15
REMARK    7  A    between atoms: C_7  and  C_8
REMARK    8  A    between atoms: C_11  and  O_12
REMARK    9  A    between atoms: C_16  and  O_18
REMARK   10  A    between atoms: O_18  and  C_19
REMARK   11  A    between atoms: C_19  and  C_20
REMARK                            x       y       z     vdW  Elec       q    Type
REMARK                         _______ _______ _______ _____ _____    ______ ____
ROOT
ATOM      1  C   UNL     1      -0.305   2.940 -22.767  0.00  0.00    +0.189 C 
ENDROOT
BRANCH   1   2
ATOM      2  N   UNL     1       0.501   2.346 -21.936  0.00  0.00    -0.268 N 
ATOM      3  H   UNL     1       0.427   2.520 -20.969  0.00  0.00    +0.153 HD
ATOM      4  C   UNL     1       1.403   1.523 -22.380  0.00  0.00    +0.401 C 
ATOM      5  O   UNL     1       1.500   1.293 -23.657  0.00  0.00    -0.226 OA
BRANCH   4   6
ATOM      6  O   UNL     1       2.208   0.930 -21.550  0.00  0.00    -0.446 OA
BRANCH   6   7
ATOM      7  C   UNL     1       3.409   0.607 -21.929  0.00  0.00    +0.269 C 
BRANCH   7   8
ATOM      8  C   UNL     1       4.353   1.502 -21.928  0.00  0.00    -0.010 A 
ATOM      9  C   UNL     1       4.879   1.890 -20.805  0.00  0.00    +0.007 A 
ATOM     10  C   UNL     1       5.822   2.784 -20.804  0.00  0.00    +0.000 A 
ATOM     11  C   UNL     1       6.240   3.290 -21.927  0.00  0.00    +0.000 A 
ATOM     12  C   UNL     1       5.713   2.901 -23.050  0.00  0.00    +0.000 A 
ATOM     13  C   UNL     1       4.770   2.007 -23.051  0.00  0.00    +0.007 A 
ENDBRANCH   7   8
ENDBRANCH   6   7
ENDBRANCH   4   6
ENDBRANCH   1   2
BRANCH   1  14
ATOM     14  C   UNL     1      -0.103   4.182 -23.092  0.00  0.00    +0.328 C 
ATOM     15  O   UNL     1      -0.695   5.131 -22.431  0.00  0.00    -0.249 OA
BRANCH  14  16
ATOM     16  O   UNL     1       0.690   4.474 -24.080  0.00  0.00    -0.464 OA
BRANCH  16  18
ATOM     17  C   UNL     1       2.676   4.973 -23.144  0.00  0.00    +0.048 C 
ATOM     18  C   UNL     1       1.672   5.307 -23.899  0.00  0.00    +0.229 C 
ENDBRANCH  16  18
ENDBRANCH  14  16
ENDBRANCH   1  14
BRANCH   1  19
ATOM     19  C   UNL     1      -1.311   2.290 -23.272  0.00  0.00    +0.069 C 
BRANCH  19  20
ATOM     20  C   UNL     1      -2.527   2.639 -22.971  0.00  0.00    -0.045 A 
ATOM     21  C   UNL     1      -2.987   2.426 -21.773  0.00  0.00    +0.007 A 
ATOM     22  C   UNL     1      -4.202   2.775 -21.472  0.00  0.00    +0.045 A 
ATOM     23  C   UNL     1      -4.958   3.337 -22.369  0.00  0.00    +0.117 A 
ATOM     24  C   UNL     1      -4.498   3.550 -23.566  0.00  0.00    +0.045 A 
ATOM     25  C   UNL     1      -3.283   3.201 -23.867  0.00  0.00    +0.007 A 
BRANCH  23  26
ATOM     26  O   UNL     1      -6.174   3.686 -22.068  0.00  0.00    -0.507 OA
ATOM     27  H   UNL     1      -6.370   4.582 -21.875  0.00  0.00    +0.292 HD
ENDBRANCH  23  26
ENDBRANCH  19  20
ENDBRANCH   1  19
TORSDOF 10
ENDMDL
MODEL 8
REMARK VINA RESULT:    -7.309      1.871      2.550
REMARK INTER + INTRA:         -11.469
REMARK INTER:                 -10.718
REMARK INTRA:                  -0.751
REMARK UNBOUND:                -0.101
REMARK  Name = ZINC000005796482
REMARK  11 active torsions:
REMARK  status: ('A' for Active; 'I' for Inactive)
REMARK    1  A    between atoms: C_1  and  C_2
REMARK    2  A    between atoms: C_2  and  O_3
REMARK    3  A    between atoms: O_3  and  C_4
REMARK    4  A    between atoms: C_4  and  C_6
REMARK    5  A    between atoms: C_6  and  C_7
REMARK    6  A    between atoms: C_6  and  N_15
REMARK    7  A    between atoms: C_7  and  C_8
REMARK    8  A    between atoms: C_11  and  O_12
REMARK    9  A    between atoms: C_16  and  O_18
REMARK   10  A    between atoms: O_18  and  C_19
REMARK   11  A    between atoms: C_19  and  C_20
REMARK                            x       y       z     vdW  Elec       q    Type
REMARK                         _______ _______ _______ _____ _____    ______ ____
ROOT
ATOM      1  C   UNL     1       3.604   2.887 -22.895  0.00  0.00    +0.189 C 
ENDROOT
BRANCH   1   2
ATOM      2  N   UNL     1       2.652   3.719 -22.590  0.00  0.00    -0.268 N 
ATOM      3  H   UNL     1       2.623   4.129 -21.695  0.00  0.00    +0.153 HD
ATOM      4  C   UNL     1       1.737   4.010 -23.467  0.00  0.00    +0.401 C 
ATOM      5  O   UNL     1       1.774   3.468 -24.649  0.00  0.00    -0.226 OA
BRANCH   4   6
ATOM      6  O   UNL     1       0.785   4.841 -23.162  0.00  0.00    -0.446 OA
BRANCH   6   7
ATOM      7  C   UNL     1      -0.324   4.835 -23.841  0.00  0.00    +0.269 C 
BRANCH   7   8
ATOM      8  C   UNL     1      -1.395   4.304 -23.329  0.00  0.00    -0.010 A 
ATOM      9  C   UNL     1      -2.355   3.900 -24.108  0.00  0.00    +0.007 A 
ATOM     10  C   UNL     1      -3.425   3.369 -23.598  0.00  0.00    +0.000 A 
ATOM     11  C   UNL     1      -3.537   3.241 -22.308  0.00  0.00    +0.000 A 
ATOM     12  C   UNL     1      -2.577   3.645 -21.530  0.00  0.00    +0.000 A 
ATOM     13  C   UNL     1      -1.506   4.176 -22.041  0.00  0.00    +0.007 A 
ENDBRANCH   7   8
ENDBRANCH   6   7
ENDBRANCH   4   6
ENDBRANCH   1   2
BRANCH   1  14
ATOM     14  C   UNL     1       3.438   1.612 -22.704  0.00  0.00    +0.328 C 
ATOM     15  O   UNL     1       3.665   0.776 -23.673  0.00  0.00    -0.249 OA
BRANCH  14  16
ATOM     16  O   UNL     1       3.046   1.173 -21.545  0.00  0.00    -0.464 OA
BRANCH  16  18
ATOM     17  C   UNL     1       4.986   0.447 -20.663  0.00  0.00    +0.048 C 
ATOM     18  C   UNL     1       3.730   0.251 -20.934  0.00  0.00    +0.229 C 
ENDBRANCH  16  18
ENDBRANCH  14  16
ENDBRANCH   1  14
BRANCH   1  19
ATOM     19  C   UNL     1       4.720   3.331 -23.390  0.00  0.00    +0.069 C 
BRANCH  19  20
ATOM     20  C   UNL     1       5.503   4.072 -22.664  0.00  0.00    -0.045 A 
ATOM     21  C   UNL     1       5.435   5.368 -22.748  0.00  0.00    +0.007 A 
ATOM     22  C   UNL     1       6.218   6.109 -22.022  0.00  0.00    +0.045 A 
ATOM     23  C   UNL     1       7.070   5.555 -21.211  0.00  0.00    +0.117 A 
ATOM     24  C   UNL     1       7.139   4.259 -21.127  0.00  0.00    +0.045 A 
ATOM     25  C   UNL     1       6.355   3.518 -21.853  0.00  0.00    +0.007 A 
BRANCH  23  26
ATOM     26  O   UNL     1       7.853   6.296 -20.485  0.00  0.00    -0.507 OA
ATOM     27  H   UNL     1       8.568   6.752 -20.883  0.00  0.00    +0.292 HD
ENDBRANCH  23  26
ENDBRANCH  19  20
ENDBRANCH   1  19
TORSDOF 10
ENDMDL
MODEL 9
REMARK VINA RESULT:    -7.270      2.572      7.561
REMARK INTER + INTRA:         -11.409
REMARK INTER:                 -11.308
REMARK INTRA:                  -0.101
REMARK UNBOUND:                -0.101
REMARK  Name = ZINC000005796482
REMARK  11 active torsions:
REMARK  status: ('A' for Active; 'I' for Inactive)
REMARK    1  A    between atoms: C_1  and  C_2
REMARK    2  A    between atoms: C_2  and  O_3
REMARK    3  A    between atoms: O_3  and  C_4
REMARK    4  A    between atoms: C_4  and  C_6
REMARK    5  A    between atoms: C_6  and  C_7
REMARK    6  A    between atoms: C_6  and  N_15
REMARK    7  A    between atoms: C_7  and  C_8
REMARK    8  A    between atoms: C_11  and  O_12
REMARK    9  A    between atoms: C_16  and  O_18
REMARK   10  A    between atoms: O_18  and  C_19
REMARK   11  A    between atoms: C_19  and  C_20
REMARK                            x       y       z     vdW  Elec       q    Type
REMARK                         _______ _______ _______ _____ _____    ______ ____
ROOT
ATOM      1  C   UNL     1      -1.791   3.032 -24.910  0.00  0.00    +0.189 C 
ENDROOT
BRANCH   1   2
ATOM      2  N   UNL     1      -0.577   2.972 -25.374  0.00  0.00    -0.268 N 
ATOM      3  H   UNL     1      -0.345   2.309 -26.064  0.00  0.00    +0.153 HD
ATOM      4  C   UNL     1       0.331   3.787 -24.926  0.00  0.00    +0.401 C 
ATOM      5  O   UNL     1       0.025   4.663 -24.015  0.00  0.00    -0.226 OA
BRANCH   4   6
ATOM      6  O   UNL     1       1.544   3.728 -25.389  0.00  0.00    -0.446 OA
BRANCH   6   7
ATOM      7  C   UNL     1       2.252   2.651 -25.217  0.00  0.00    +0.269 C 
BRANCH   7   8
ATOM      8  C   UNL     1       2.835   2.433 -24.075  0.00  0.00    -0.010 A 
ATOM      9  C   UNL     1       3.694   3.291 -23.610  0.00  0.00    +0.007 A 
ATOM     10  C   UNL     1       4.276   3.073 -22.468  0.00  0.00    +0.000 A 
ATOM     11  C   UNL     1       4.000   1.997 -21.792  0.00  0.00    +0.000 A 
ATOM     12  C   UNL     1       3.141   1.139 -22.258  0.00  0.00    +0.000 A 
ATOM     13  C   UNL     1       2.559   1.357 -23.400  0.00  0.00    +0.007 A 
ENDBRANCH   7   8
ENDBRANCH   6   7
ENDBRANCH   4   6
ENDBRANCH   1   2
BRANCH   1  14
ATOM     14  C   UNL     1      -2.612   3.935 -25.355  0.00  0.00    +0.328 C 
ATOM     15  O   UNL     1      -2.783   5.041 -24.693  0.00  0.00    -0.249 OA
BRANCH  14  16
ATOM     16  O   UNL     1      -3.264   3.733 -26.462  0.00  0.00    -0.464 OA
BRANCH  16  18
ATOM     17  C   UNL     1      -5.349   3.342 -25.707  0.00  0.00    +0.048 C 
ATOM     18  C   UNL     1      -4.342   3.006 -26.458  0.00  0.00    +0.229 C 
ENDBRANCH  16  18
ENDBRANCH  14  16
ENDBRANCH   1  14
BRANCH   1  19
ATOM     19  C   UNL     1      -2.182   2.188 -24.002  0.00  0.00    +0.069 C 
BRANCH  19  20
ATOM     20  C   UNL     1      -2.472   2.608 -22.807  0.00  0.00    -0.045 A 
ATOM     21  C   UNL     1      -3.704   2.882 -22.495  0.00  0.00    +0.007 A 
ATOM     22  C   UNL     1      -3.994   3.303 -21.299  0.00  0.00    +0.045 A 
ATOM     23  C   UNL     1      -3.051   3.449 -20.415  0.00  0.00    +0.117 A 
ATOM     24  C   UNL     1      -1.820   3.175 -20.727  0.00  0.00    +0.045 A 
ATOM     25  C   UNL     1      -1.530   2.755 -21.922  0.00  0.00    +0.007 A 
BRANCH  23  26
ATOM     26  O   UNL     1      -3.342   3.869 -19.220  0.00  0.00    -0.507 OA
ATOM     27  H   UNL     1      -2.974   4.671 -18.903  0.00  0.00    +0.292 HD
ENDBRANCH  23  26
ENDBRANCH  19  20
ENDBRANCH   1  19
TORSDOF 10
ENDMDL
