MODEL 1
REMARK VINA RESULT:   -10.399      0.000      0.000
REMARK INTER + INTRA:         -10.202
REMARK INTER:                 -11.148
REMARK INTRA:                   0.947
REMARK UNBOUND:                 1.413
REMARK  Name = COC1=C2Oc3c(OC)ccc4c3[C@]23CCN(C=O)[C@H](C4)[C@H]3C=C1               ZINC000100393493
REMARK  4 active torsions:
REMARK  status: ('A' for Active; 'I' for Inactive)
REMARK    1  A    between atoms: C_1  and  O_2
REMARK    2  A    between atoms: O_2  and  C_3
REMARK    3  A    between atoms: C_7  and  O_8
REMARK    4  A    between atoms: O_8  and  C_9
REMARK                            x       y       z     vdW  Elec       q    Type
REMARK                         _______ _______ _______ _____ _____    ______ ____
ROOT
ATOM      1  C   UNL     1      -2.767   3.710 -25.315  0.00  0.00    +0.159 C 
ATOM      2  C   UNL     1      -1.627   3.360 -24.927  0.00  0.00    +0.158 C 
ATOM      3  O   UNL     1      -0.164   3.206 -25.278  0.00  0.00    -0.452 OA
ATOM      4  C   UNL     1       0.666   2.656 -24.152  0.00  0.00    +0.174 A 
ATOM      5  C   UNL     1       1.819   2.302 -23.763  0.00  0.00    +0.162 A 
ATOM      6  C   UNL     1       1.974   1.861 -22.585  0.00  0.00    +0.050 A 
ATOM      7  C   UNL     1       0.998   1.775 -21.808  0.00  0.00    +0.008 A 
ATOM      8  C   UNL     1      -0.141   2.125 -22.196  0.00  0.00    -0.038 A 
ATOM      9  C   UNL     1      -1.142   2.039 -21.406  0.00  0.00    +0.058 C 
ATOM     10  C   UNL     1      -2.280   2.389 -21.793  0.00  0.00    +0.088 C 
ATOM     11  C   UNL     1      -2.437   2.830 -22.970  0.00  0.00    +0.051 C 
ATOM     12  C   UNL     1      -3.589   3.183 -23.359  0.00  0.00    -0.017 C 
ATOM     13  N   UNL     1      -3.615   2.761 -22.134  0.00  0.00    -0.300 N 
ATOM     14  C   UNL     1      -4.571   2.655 -21.313  0.00  0.00    +0.328 C 
ATOM     15  O   UNL     1      -4.373   2.213 -20.155  0.00  0.00    -0.279 OA
ATOM     16  C   UNL     1      -3.825   3.256 -23.440  0.00  0.00    +0.109 C 
ATOM     17  C   UNL     1      -2.704   3.343 -24.295  0.00  0.00    +0.039 C 
ATOM     18  C   UNL     1      -0.319   2.567 -23.364  0.00  0.00    +0.016 A 
ATOM     19  C   UNL     1      -1.458   2.915 -23.746  0.00  0.00    +0.070 C 
ATOM     20  C   UNL     1      -3.748   3.619 -24.522  0.00  0.00    +0.045 C 
ENDROOT
BRANCH   1  22
ATOM     21  C   UNL     1      -3.340   3.383 -27.380  0.00  0.00    +0.277 C 
ATOM     22  O   UNL     1      -2.931   4.147 -26.477  0.00  0.00    -0.492 OA
ENDBRANCH   1  22
BRANCH   5  23
ATOM     23  O   UNL     1       2.800   2.387 -24.538  0.00  0.00    -0.491 OA
ATOM     24  C   UNL     1       3.965   2.309 -24.087  0.00  0.00    +0.277 C 
ENDBRANCH   5  23
TORSDOF 2
ENDMDL
MODEL 2
REMARK VINA RESULT:   -10.014      1.513      3.567
REMARK INTER + INTRA:          -9.771
REMARK INTER:                 -10.690
REMARK INTRA:                   0.919
REMARK UNBOUND:                 1.413
REMARK  Name = COC1=C2Oc3c(OC)ccc4c3[C@]23CCN(C=O)[C@H](C4)[C@H]3C=C1               ZINC000100393493
REMARK  4 active torsions:
REMARK  status: ('A' for Active; 'I' for Inactive)
REMARK    1  A    between atoms: C_1  and  O_2
REMARK    2  A    between atoms: O_2  and  C_3
REMARK    3  A    between atoms: C_7  and  O_8
REMARK    4  A    between atoms: O_8  and  C_9
REMARK                            x       y       z     vdW  Elec       q    Type
REMARK                         _______ _______ _______ _____ _____    ______ ____
ROOT
ATOM      1  C   UNL     1      -2.908   2.898 -21.842  0.00  0.00    +0.159 C 
ATOM      2  C   UNL     1      -1.678   2.803 -22.065  0.00  0.00    +0.158 C 
ATOM      3  O   UNL     1      -0.305   2.542 -21.486  0.00  0.00    -0.452 OA
ATOM      4  C   UNL     1       0.797   2.611 -22.506  0.00  0.00    +0.174 A 
ATOM      5  C   UNL     1       2.041   2.514 -22.728  0.00  0.00    +0.162 A 
ATOM      6  C   UNL     1       2.482   2.685 -23.903  0.00  0.00    +0.050 A 
ATOM      7  C   UNL     1       1.698   2.948 -24.842  0.00  0.00    +0.008 A 
ATOM      8  C   UNL     1       0.468   3.043 -24.619  0.00  0.00    -0.038 A 
ATOM      9  C   UNL     1      -0.337   3.311 -25.575  0.00  0.00    +0.058 C 
ATOM     10  C   UNL     1      -1.565   3.406 -25.353  0.00  0.00    +0.088 C 
ATOM     11  C   UNL     1      -2.008   3.235 -24.179  0.00  0.00    +0.051 C 
ATOM     12  C   UNL     1      -3.252   3.332 -23.958  0.00  0.00    -0.017 C 
ATOM     13  N   UNL     1      -2.979   3.536 -25.207  0.00  0.00    -0.300 N 
ATOM     14  C   UNL     1      -3.732   3.803 -26.188  0.00  0.00    +0.328 C 
ATOM     15  O   UNL     1      -3.253   3.965 -27.337  0.00  0.00    -0.279 OA
ATOM     16  C   UNL     1      -3.507   3.352 -23.910  0.00  0.00    +0.109 C 
ATOM     17  C   UNL     1      -2.598   3.056 -22.871  0.00  0.00    +0.039 C 
ATOM     18  C   UNL     1       0.007   2.877 -23.458  0.00  0.00    +0.016 A 
ATOM     19  C   UNL     1      -1.221   2.973 -23.241  0.00  0.00    +0.070 C 
ATOM     20  C   UNL     1      -3.694   3.164 -22.797  0.00  0.00    +0.045 C 
ENDROOT
BRANCH   1  22
ATOM     21  C   UNL     1      -3.252   3.646 -19.836  0.00  0.00    +0.277 C 
ATOM     22  O   UNL     1      -3.354   2.731 -20.684  0.00  0.00    -0.492 OA
ENDBRANCH   1  22
BRANCH   5  23
ATOM     23  O   UNL     1       2.830   2.251 -21.790  0.00  0.00    -0.491 OA
ATOM     24  C   UNL     1       2.963   1.071 -21.395  0.00  0.00    +0.277 C 
ENDBRANCH   5  23
TORSDOF 2
ENDMDL
MODEL 3
REMARK VINA RESULT:    -9.135      1.913      4.747
REMARK INTER + INTRA:          -8.790
REMARK INTER:                  -9.858
REMARK INTRA:                   1.068
REMARK UNBOUND:                 1.413
REMARK  Name = COC1=C2Oc3c(OC)ccc4c3[C@]23CCN(C=O)[C@H](C4)[C@H]3C=C1               ZINC000100393493
REMARK  4 active torsions:
REMARK  status: ('A' for Active; 'I' for Inactive)
REMARK    1  A    between atoms: C_1  and  O_2
REMARK    2  A    between atoms: O_2  and  C_3
REMARK    3  A    between atoms: C_7  and  O_8
REMARK    4  A    between atoms: O_8  and  C_9
REMARK                            x       y       z     vdW  Elec       q    Type
REMARK                         _______ _______ _______ _____ _____    ______ ____
ROOT
ATOM      1  C   UNL     1       0.697   2.924 -24.727  0.00  0.00    +0.159 C 
ATOM      2  C   UNL     1      -0.494   3.021 -24.345  0.00  0.00    +0.158 C 
ATOM      3  O   UNL     1      -1.915   3.384 -24.716  0.00  0.00    -0.452 OA
ATOM      4  C   UNL     1      -2.888   3.218 -23.584  0.00  0.00    +0.174 A 
ATOM      5  C   UNL     1      -4.093   3.317 -23.201  0.00  0.00    +0.162 A 
ATOM      6  C   UNL     1      -4.397   3.015 -22.009  0.00  0.00    +0.050 A 
ATOM      7  C   UNL     1      -3.519   2.619 -21.211  0.00  0.00    +0.008 A 
ATOM      8  C   UNL     1      -2.328   2.522 -21.593  0.00  0.00    -0.038 A 
ATOM      9  C   UNL     1      -1.426   2.119 -20.782  0.00  0.00    +0.058 C 
ATOM     10  C   UNL     1      -0.238   2.022 -21.163  0.00  0.00    +0.088 C 
ATOM     11  C   UNL     1       0.069   2.325 -22.354  0.00  0.00    +0.051 C 
ATOM     12  C   UNL     1       1.272   2.225 -22.736  0.00  0.00    -0.017 C 
ATOM     13  N   UNL     1       1.142   1.877 -21.495  0.00  0.00    -0.300 N 
ATOM     14  C   UNL     1       1.995   1.473 -20.654  0.00  0.00    +0.328 C 
ATOM     15  O   UNL     1       1.651   1.183 -19.482  0.00  0.00    -0.279 OA
ATOM     16  C   UNL     1       1.519   2.205 -22.816  0.00  0.00    +0.109 C 
ATOM     17  C   UNL     1       0.505   2.648 -23.694  0.00  0.00    +0.039 C 
ATOM     18  C   UNL     1      -2.002   2.818 -22.774  0.00  0.00    +0.016 A 
ATOM     19  C   UNL     1      -0.813   2.720 -23.150  0.00  0.00    +0.070 C 
ATOM     20  C   UNL     1       1.579   2.523 -23.913  0.00  0.00    +0.045 C 
ENDROOT
BRANCH   1  22
ATOM     21  C   UNL     1       1.197   4.418 -26.217  0.00  0.00    +0.277 C 
ATOM     22  O   UNL     1       1.009   3.220 -25.903  0.00  0.00    -0.492 OA
ENDBRANCH   1  22
BRANCH   5  23
ATOM     23  O   UNL     1      -4.976   3.713 -23.997  0.00  0.00    -0.491 OA
ATOM     24  C   UNL     1      -4.795   4.752 -24.671  0.00  0.00    +0.277 C 
ENDBRANCH   5  23
TORSDOF 2
ENDMDL
MODEL 4
REMARK VINA RESULT:    -9.085      1.941      5.845
REMARK INTER + INTRA:          -8.734
REMARK INTER:                 -10.320
REMARK INTRA:                   1.586
REMARK UNBOUND:                 1.413
REMARK  Name = COC1=C2Oc3c(OC)ccc4c3[C@]23CCN(C=O)[C@H](C4)[C@H]3C=C1               ZINC000100393493
REMARK  4 active torsions:
REMARK  status: ('A' for Active; 'I' for Inactive)
REMARK    1  A    between atoms: C_1  and  O_2
REMARK    2  A    between atoms: O_2  and  C_3
REMARK    3  A    between atoms: C_7  and  O_8
REMARK    4  A    between atoms: O_8  and  C_9
REMARK                            x       y       z     vdW  Elec       q    Type
REMARK                         _______ _______ _______ _____ _____    ______ ____
ROOT
ATOM      1  C   UNL     1       0.049   1.752 -21.608  0.00  0.00    +0.159 C 
ATOM      2  C   UNL     1      -1.129   2.094 -21.865  0.00  0.00    +0.158 C 
ATOM      3  O   UNL     1      -2.576   2.074 -21.423  0.00  0.00    -0.452 OA
ATOM      4  C   UNL     1      -3.501   2.778 -22.377  0.00  0.00    +0.174 A 
ATOM      5  C   UNL     1      -4.694   3.122 -22.634  0.00  0.00    +0.162 A 
ATOM      6  C   UNL     1      -4.942   3.775 -23.690  0.00  0.00    +0.050 A 
ATOM      7  C   UNL     1      -4.020   4.080 -24.479  0.00  0.00    +0.008 A 
ATOM      8  C   UNL     1      -2.842   3.738 -24.221  0.00  0.00    -0.038 A 
ATOM      9  C   UNL     1      -1.895   4.048 -25.023  0.00  0.00    +0.058 C 
ATOM     10  C   UNL     1      -0.719   3.706 -24.767  0.00  0.00    +0.088 C 
ATOM     11  C   UNL     1      -0.468   3.054 -23.711  0.00  0.00    +0.051 C 
ATOM     12  C   UNL     1       0.724   2.710 -23.454  0.00  0.00    -0.017 C 
ATOM     13  N   UNL     1       0.653   3.367 -24.568  0.00  0.00    -0.300 N 
ATOM     14  C   UNL     1       1.552   3.698 -25.394  0.00  0.00    +0.328 C 
ATOM     15  O   UNL     1       1.261   4.346 -26.430  0.00  0.00    -0.279 OA
ATOM     16  C   UNL     1       0.968   2.639 -23.400  0.00  0.00    +0.109 C 
ATOM     17  C   UNL     1      -0.094   2.309 -22.530  0.00  0.00    +0.039 C 
ATOM     18  C   UNL     1      -2.570   3.088 -23.176  0.00  0.00    +0.016 A 
ATOM     19  C   UNL     1      -1.393   2.750 -22.924  0.00  0.00    +0.070 C 
ATOM     20  C   UNL     1       0.976   2.065 -22.411  0.00  0.00    +0.045 C 
ENDROOT
BRANCH   1  22
ATOM     21  C   UNL     1       1.350   1.352 -19.920  0.00  0.00    +0.277 C 
ATOM     22  O   UNL     1       0.306   1.106 -20.567  0.00  0.00    -0.492 OA
ENDBRANCH   1  22
BRANCH   5  23
ATOM     23  O   UNL     1      -5.620   2.818 -21.847  0.00  0.00    -0.491 OA
ATOM     24  C   UNL     1      -5.356   2.382 -20.704  0.00  0.00    +0.277 C 
ENDBRANCH   5  23
TORSDOF 2
ENDMDL
MODEL 5
REMARK VINA RESULT:    -8.732      2.576      5.634
REMARK INTER + INTRA:          -8.340
REMARK INTER:                  -9.397
REMARK INTRA:                   1.057
REMARK UNBOUND:                 1.413
REMARK  Name = COC1=C2Oc3c(OC)ccc4c3[C@]23CCN(C=O)[C@H](C4)[C@H]3C=C1               ZINC000100393493
REMARK  4 active torsions:
REMARK  status: ('A' for Active; 'I' for Inactive)
REMARK    1  A    between atoms: C_1  and  O_2
REMARK    2  A    between atoms: O_2  and  C_3
REMARK    3  A    between atoms: C_7  and  O_8
REMARK    4  A    between atoms: O_8  and  C_9
REMARK                            x       y       z     vdW  Elec       q    Type
REMARK                         _______ _______ _______ _____ _____    ______ ____
ROOT
ATOM      1  C   UNL     1       2.625   5.223 -23.154  0.00  0.00    +0.159 C 
ATOM      2  C   UNL     1       1.425   4.929 -23.369  0.00  0.00    +0.158 C 
ATOM      3  O   UNL     1       0.062   5.419 -23.807  0.00  0.00    -0.452 OA
ATOM      4  C   UNL     1      -0.989   4.345 -23.802  0.00  0.00    +0.174 A 
ATOM      5  C   UNL     1      -2.203   4.051 -24.020  0.00  0.00    +0.162 A 
ATOM      6  C   UNL     1      -2.602   2.864 -23.834  0.00  0.00    +0.050 A 
ATOM      7  C   UNL     1      -1.808   1.983 -23.437  0.00  0.00    +0.008 A 
ATOM      8  C   UNL     1      -0.608   2.276 -23.222  0.00  0.00    -0.038 A 
ATOM      9  C   UNL     1       0.209   1.380 -22.817  0.00  0.00    +0.058 C 
ATOM     10  C   UNL     1       1.407   1.673 -22.603  0.00  0.00    +0.088 C 
ATOM     11  C   UNL     1       1.808   2.860 -22.789  0.00  0.00    +0.051 C 
ATOM     12  C   UNL     1       3.021   3.153 -22.571  0.00  0.00    -0.017 C 
ATOM     13  N   UNL     1       2.789   1.901 -22.330  0.00  0.00    -0.300 N 
ATOM     14  C   UNL     1       3.554   0.978 -21.930  0.00  0.00    +0.328 C 
ATOM     15  O   UNL     1       3.117  -0.186 -21.758  0.00  0.00    -0.279 OA
ATOM     16  C   UNL     1       3.270   3.214 -22.527  0.00  0.00    +0.109 C 
ATOM     17  C   UNL     1       2.349   4.187 -22.975  0.00  0.00    +0.039 C 
ATOM     18  C   UNL     1      -0.188   3.452 -23.401  0.00  0.00    +0.016 A 
ATOM     19  C   UNL     1       1.010   3.739 -23.186  0.00  0.00    +0.070 C 
ATOM     20  C   UNL     1       3.422   4.325 -22.753  0.00  0.00    +0.045 C 
ENDROOT
BRANCH   1  22
ATOM     21  C   UNL     1       3.600   7.009 -22.406  0.00  0.00    +0.277 C 
ATOM     22  O   UNL     1       3.030   6.393 -23.335  0.00  0.00    -0.492 OA
ENDBRANCH   1  22
BRANCH   5  23
ATOM     23  O   UNL     1      -3.002   4.931 -24.417  0.00  0.00    -0.491 OA
ATOM     24  C   UNL     1      -3.896   4.638 -25.243  0.00  0.00    +0.277 C 
ENDBRANCH   5  23
TORSDOF 2
ENDMDL
MODEL 6
REMARK VINA RESULT:    -8.497      2.712      6.201
REMARK INTER + INTRA:          -8.078
REMARK INTER:                  -9.013
REMARK INTRA:                   0.935
REMARK UNBOUND:                 1.413
REMARK  Name = COC1=C2Oc3c(OC)ccc4c3[C@]23CCN(C=O)[C@H](C4)[C@H]3C=C1               ZINC000100393493
REMARK  4 active torsions:
REMARK  status: ('A' for Active; 'I' for Inactive)
REMARK    1  A    between atoms: C_1  and  O_2
REMARK    2  A    between atoms: O_2  and  C_3
REMARK    3  A    between atoms: C_7  and  O_8
REMARK    4  A    between atoms: O_8  and  C_9
REMARK                            x       y       z     vdW  Elec       q    Type
REMARK                         _______ _______ _______ _____ _____    ______ ____
ROOT
ATOM      1  C   UNL     1       3.029   1.394 -24.324  0.00  0.00    +0.159 C 
ATOM      2  C   UNL     1       1.933   1.991 -24.204  0.00  0.00    +0.158 C 
ATOM      3  O   UNL     1       0.430   1.916 -24.358  0.00  0.00    -0.452 OA
ATOM      4  C   UNL     1      -0.274   3.185 -23.965  0.00  0.00    +0.174 A 
ATOM      5  C   UNL     1      -1.385   3.785 -23.846  0.00  0.00    +0.162 A 
ATOM      6  C   UNL     1      -1.408   4.978 -23.422  0.00  0.00    +0.050 A 
ATOM      7  C   UNL     1      -0.344   5.566 -23.123  0.00  0.00    +0.008 A 
ATOM      8  C   UNL     1       0.752   4.969 -23.242  0.00  0.00    -0.038 A 
ATOM      9  C   UNL     1       1.841   5.564 -22.938  0.00  0.00    +0.058 C 
ATOM     10  C   UNL     1       2.936   4.969 -23.058  0.00  0.00    +0.088 C 
ATOM     11  C   UNL     1       2.961   3.775 -23.481  0.00  0.00    +0.051 C 
ATOM     12  C   UNL     1       4.071   3.176 -23.600  0.00  0.00    -0.017 C 
ATOM     13  N   UNL     1       4.233   4.382 -23.157  0.00  0.00    -0.300 N 
ATOM     14  C   UNL     1       5.281   5.016 -22.842  0.00  0.00    +0.328 C 
ATOM     15  O   UNL     1       5.213   6.198 -22.426  0.00  0.00    -0.279 OA
ATOM     16  C   UNL     1       4.298   3.051 -23.626  0.00  0.00    +0.109 C 
ATOM     17  C   UNL     1       3.081   2.415 -23.955  0.00  0.00    +0.039 C 
ATOM     18  C   UNL     1       0.799   3.781 -23.662  0.00  0.00    +0.016 A 
ATOM     19  C   UNL     1       1.895   3.191 -23.779  0.00  0.00    +0.070 C 
ATOM     20  C   UNL     1       4.100   1.996 -24.019  0.00  0.00    +0.045 C 
ENDROOT
BRANCH   1  22
ATOM     21  C   UNL     1       2.973  -0.017 -25.968  0.00  0.00    +0.277 C 
ATOM     22  O   UNL     1       3.063   0.215 -24.741  0.00  0.00    -0.492 OA
ENDBRANCH   1  22
BRANCH   5  23
ATOM     23  O   UNL     1      -2.452   3.201 -24.144  0.00  0.00    -0.491 OA
ATOM     24  C   UNL     1      -3.357   3.071 -23.289  0.00  0.00    +0.277 C 
ENDBRANCH   5  23
TORSDOF 2
ENDMDL
MODEL 7
REMARK VINA RESULT:    -7.703      3.570      6.002
REMARK INTER + INTRA:          -7.190
REMARK INTER:                  -8.274
REMARK INTRA:                   1.084
REMARK UNBOUND:                 1.413
REMARK  Name = COC1=C2Oc3c(OC)ccc4c3[C@]23CCN(C=O)[C@H](C4)[C@H]3C=C1               ZINC000100393493
REMARK  4 active torsions:
REMARK  status: ('A' for Active; 'I' for Inactive)
REMARK    1  A    between atoms: C_1  and  O_2
REMARK    2  A    between atoms: O_2  and  C_3
REMARK    3  A    between atoms: C_7  and  O_8
REMARK    4  A    between atoms: O_8  and  C_9
REMARK                            x       y       z     vdW  Elec       q    Type
REMARK                         _______ _______ _______ _____ _____    ______ ____
ROOT
ATOM      1  C   UNL     1       1.068   4.906 -23.526  0.00  0.00    +0.159 C 
ATOM      2  C   UNL     1       2.221   5.269 -23.194  0.00  0.00    +0.158 C 
ATOM      3  O   UNL     1       3.082   6.367 -22.610  0.00  0.00    -0.452 OA
ATOM      4  C   UNL     1       4.538   6.004 -22.526  0.00  0.00    +0.174 A 
ATOM      5  C   UNL     1       5.703   6.374 -22.190  0.00  0.00    +0.162 A 
ATOM      6  C   UNL     1       6.681   5.586 -22.354  0.00  0.00    +0.050 A 
ATOM      7  C   UNL     1       6.504   4.449 -22.845  0.00  0.00    +0.008 A 
ATOM      8  C   UNL     1       5.350   4.086 -23.176  0.00  0.00    -0.038 A 
ATOM      9  C   UNL     1       5.163   2.926 -23.678  0.00  0.00    +0.058 C 
ATOM     10  C   UNL     1       4.012   2.563 -24.009  0.00  0.00    +0.088 C 
ATOM     11  C   UNL     1       3.032   3.349 -23.845  0.00  0.00    +0.051 C 
ATOM     12  C   UNL     1       1.868   2.979 -24.181  0.00  0.00    -0.017 C 
ATOM     13  N   UNL     1       2.743   2.054 -24.418  0.00  0.00    -0.300 N 
ATOM     14  C   UNL     1       2.613   0.896 -24.910  0.00  0.00    +0.328 C 
ATOM     15  O   UNL     1       3.609   0.147 -25.055  0.00  0.00    -0.279 OA
ATOM     16  C   UNL     1       1.629   2.905 -24.250  0.00  0.00    +0.109 C 
ATOM     17  C   UNL     1       1.861   4.182 -23.694  0.00  0.00    +0.039 C 
ATOM     18  C   UNL     1       4.362   4.853 -23.022  0.00  0.00    +0.016 A 
ATOM     19  C   UNL     1       3.214   4.487 -23.354  0.00  0.00    +0.070 C 
ATOM     20  C   UNL     1       0.897   3.754 -24.021  0.00  0.00    +0.045 C 
ENDROOT
BRANCH   1  22
ATOM     21  C   UNL     1      -0.931   5.275 -22.772  0.00  0.00    +0.277 C 
ATOM     22  O   UNL     1       0.094   5.677 -23.368  0.00  0.00    -0.492 OA
ENDBRANCH   1  22
BRANCH   5  23
ATOM     23  O   UNL     1       5.886   7.512 -21.698  0.00  0.00    -0.491 OA
ATOM     24  C   UNL     1       5.435   7.784 -20.562  0.00  0.00    +0.277 C 
ENDBRANCH   5  23
TORSDOF 2
ENDMDL
MODEL 8
REMARK VINA RESULT:    -7.670      1.978      5.260
REMARK INTER + INTRA:          -7.153
REMARK INTER:                  -8.485
REMARK INTRA:                   1.331
REMARK UNBOUND:                 1.413
REMARK  Name = COC1=C2Oc3c(OC)ccc4c3[C@]23CCN(C=O)[C@H](C4)[C@H]3C=C1               ZINC000100393493
REMARK  4 active torsions:
REMARK  status: ('A' for Active; 'I' for Inactive)
REMARK    1  A    between atoms: C_1  and  O_2
REMARK    2  A    between atoms: O_2  and  C_3
REMARK    3  A    between atoms: C_7  and  O_8
REMARK    4  A    between atoms: O_8  and  C_9
REMARK                            x       y       z     vdW  Elec       q    Type
REMARK                         _______ _______ _______ _____ _____    ______ ____
ROOT
ATOM      1  C   UNL     1      -0.236   3.515 -24.129  0.00  0.00    +0.159 C 
ATOM      2  C   UNL     1      -1.247   3.486 -23.388  0.00  0.00    +0.158 C 
ATOM      3  O   UNL     1      -1.776   3.461 -21.971  0.00  0.00    -0.452 OA
ATOM      4  C   UNL     1      -3.277   3.428 -21.894  0.00  0.00    +0.174 A 
ATOM      5  C   UNL     1      -4.297   3.398 -21.142  0.00  0.00    +0.162 A 
ATOM      6  C   UNL     1      -5.454   3.378 -21.658  0.00  0.00    +0.050 A 
ATOM      7  C   UNL     1      -5.593   3.387 -22.901  0.00  0.00    +0.008 A 
ATOM      8  C   UNL     1      -4.582   3.416 -23.642  0.00  0.00    -0.038 A 
ATOM      9  C   UNL     1      -4.718   3.425 -24.913  0.00  0.00    +0.058 C 
ATOM     10  C   UNL     1      -3.709   3.454 -25.652  0.00  0.00    +0.088 C 
ATOM     11  C   UNL     1      -2.552   3.474 -25.138  0.00  0.00    +0.051 C 
ATOM     12  C   UNL     1      -1.532   3.504 -25.890  0.00  0.00    -0.017 C 
ATOM     13  N   UNL     1      -2.627   3.487 -26.582  0.00  0.00    -0.300 N 
ATOM     14  C   UNL     1      -2.818   3.494 -27.832  0.00  0.00    +0.328 C 
ATOM     15  O   UNL     1      -3.981   3.474 -28.302  0.00  0.00    -0.279 OA
ATOM     16  C   UNL     1      -1.322   3.510 -26.042  0.00  0.00    +0.109 C 
ATOM     17  C   UNL     1      -1.197   3.499 -24.636  0.00  0.00    +0.039 C 
ATOM     18  C   UNL     1      -3.421   3.437 -23.151  0.00  0.00    +0.016 A 
ATOM     19  C   UNL     1      -2.416   3.465 -23.894  0.00  0.00    +0.070 C 
ATOM     20  C   UNL     1      -0.386   3.524 -25.385  0.00  0.00    +0.045 C 
ENDROOT
BRANCH   1  22
ATOM     21  C   UNL     1       1.522   4.621 -23.508  0.00  0.00    +0.277 C 
ATOM     22  O   UNL     1       0.912   3.535 -23.629  0.00  0.00    -0.492 OA
ENDBRANCH   1  22
BRANCH   5  23
ATOM     23  O   UNL     1      -4.162   3.389 -19.896  0.00  0.00    -0.491 OA
ATOM     24  C   UNL     1      -3.079   3.746 -19.380  0.00  0.00    +0.277 C 
ENDBRANCH   5  23
TORSDOF 2
ENDMDL
MODEL 9
REMARK VINA RESULT:    -7.498      1.349      2.103
REMARK INTER + INTRA:          -6.961
REMARK INTER:                  -8.374
REMARK INTRA:                   1.413
REMARK UNBOUND:                 1.413
REMARK  Name = COC1=C2Oc3c(OC)ccc4c3[C@]23CCN(C=O)[C@H](C4)[C@H]3C=C1               ZINC000100393493
REMARK  4 active torsions:
REMARK  status: ('A' for Active; 'I' for Inactive)
REMARK    1  A    between atoms: C_1  and  O_2
REMARK    2  A    between atoms: O_2  and  C_3
REMARK    3  A    between atoms: C_7  and  O_8
REMARK    4  A    between atoms: O_8  and  C_9
REMARK                            x       y       z     vdW  Elec       q    Type
REMARK                         _______ _______ _______ _____ _____    ______ ____
ROOT
ATOM      1  C   UNL     1      -0.409   3.523 -25.136  0.00  0.00    +0.159 C 
ATOM      2  C   UNL     1       0.325   3.061 -24.231  0.00  0.00    +0.158 C 
ATOM      3  O   UNL     1       1.732   2.707 -23.802  0.00  0.00    -0.452 OA
ATOM      4  C   UNL     1       1.807   2.133 -22.415  0.00  0.00    +0.174 A 
ATOM      5  C   UNL     1       2.552   1.666 -21.502  0.00  0.00    +0.162 A 
ATOM      6  C   UNL     1       2.038   1.287 -20.409  0.00  0.00    +0.050 A 
ATOM      7  C   UNL     1       0.803   1.370 -20.226  0.00  0.00    +0.008 A 
ATOM      8  C   UNL     1       0.069   1.832 -21.131  0.00  0.00    -0.038 A 
ATOM      9  C   UNL     1      -1.193   1.919 -20.950  0.00  0.00    +0.058 C 
ATOM     10  C   UNL     1      -1.926   2.381 -21.853  0.00  0.00    +0.088 C 
ATOM     11  C   UNL     1      -1.415   2.761 -22.947  0.00  0.00    +0.051 C 
ATOM     12  C   UNL     1      -2.160   3.227 -23.859  0.00  0.00    -0.017 C 
ATOM     13  N   UNL     1      -2.849   2.890 -22.816  0.00  0.00    -0.300 N 
ATOM     14  C   UNL     1      -4.090   2.955 -22.585  0.00  0.00    +0.328 C 
ATOM     15  O   UNL     1      -4.558   2.568 -21.487  0.00  0.00    -0.279 OA
ATOM     16  C   UNL     1      -2.311   3.323 -24.048  0.00  0.00    +0.109 C 
ATOM     17  C   UNL     1      -0.914   3.217 -24.224  0.00  0.00    +0.039 C 
ATOM     18  C   UNL     1       0.558   2.216 -22.228  0.00  0.00    +0.016 A 
ATOM     19  C   UNL     1      -0.178   2.676 -23.127  0.00  0.00    +0.070 C 
ATOM     20  C   UNL     1      -1.657   3.604 -24.943  0.00  0.00    +0.045 C 
ENDROOT
BRANCH   1  22
ATOM     21  C   UNL     1       1.188   4.500 -26.230  0.00  0.00    +0.277 C 
ATOM     22  O   UNL     1       0.088   3.901 -26.221  0.00  0.00    -0.492 OA
ENDBRANCH   1  22
BRANCH   5  23
ATOM     23  O   UNL     1       3.789   1.581 -21.681  0.00  0.00    -0.491 OA
ATOM     24  C   UNL     1       4.250   0.753 -22.500  0.00  0.00    +0.277 C 
ENDBRANCH   5  23
TORSDOF 2
ENDMDL
