MODEL 1
REMARK VINA RESULT:    -8.886      0.000      0.000
REMARK INTER + INTRA:         -11.674
REMARK INTER:                 -11.722
REMARK INTRA:                   0.048
REMARK UNBOUND:                 0.329
REMARK  Name = ZINC000000621833
REMARK  11 active torsions:
REMARK  status: ('A' for Active; 'I' for Inactive)
REMARK    1  A    between atoms: C_1  and  O_2
REMARK    2  A    between atoms: O_2  and  C_3
REMARK    3  A    between atoms: C_6  and  C_7
REMARK    4  A    between atoms: C_7  and  C_8
REMARK    5  A    between atoms: C_11  and  O_12
REMARK    6  A    between atoms: O_12  and  C_13
REMARK    7  A    between atoms: C_14  and  O_15
REMARK    8  A    between atoms: O_15  and  C_16
REMARK    9  A    between atoms: N_21  and  C_22
REMARK   10  A    between atoms: C_24  and  O_25
REMARK   11  A    between atoms: O_25  and  C_26
REMARK                            x       y       z     vdW  Elec       q    Type
REMARK                         _______ _______ _______ _____ _____    ______ ____
ROOT
ATOM      1  C   UNL     1      -0.898   3.933 -24.067  0.00  0.00    +0.100 C 
ATOM      2  C   UNL     1      -2.102   3.855 -23.583  0.00  0.00    +0.008 A 
ATOM      3  C   UNL     1      -2.309   4.070 -22.318  0.00  0.00    +0.058 A 
ATOM      4  C   UNL     1      -3.513   3.992 -21.833  0.00  0.00    +0.162 A 
ATOM      5  C   UNL     1      -4.510   3.698 -22.614  0.00  0.00    +0.162 A 
ATOM      6  C   UNL     1      -4.303   3.483 -23.879  0.00  0.00    +0.053 A 
ATOM      7  C   UNL     1      -3.099   3.561 -24.364  0.00  0.00    -0.030 A 
ATOM      8  C   UNL     1      -2.892   3.346 -25.629  0.00  0.00    +0.086 C 
ATOM      9  C   UNL     1      -1.688   3.424 -26.113  0.00  0.00    +0.136 C 
ATOM     10  N   UNL     1      -0.691   3.717 -25.332  0.00  0.00    +0.239 N 
ATOM     11  H   UNL     1       0.171   3.937 -24.834  0.00  0.00    +0.204 HD
ATOM     12  C   UNL     1       0.513   3.795 -25.817  0.00  0.00    +0.191 C 
ENDROOT
BRANCH   5  13
ATOM     13  O   UNL     1      -5.713   3.620 -22.130  0.00  0.00    -0.491 OA
ATOM     14  C   UNL     1      -6.180   2.475 -21.729  0.00  0.00    +0.277 C 
ENDBRANCH   5  13
BRANCH   4  15
ATOM     15  O   UNL     1      -3.720   4.207 -20.568  0.00  0.00    -0.491 OA
ATOM     16  C   UNL     1      -2.995   3.596 -19.678  0.00  0.00    +0.277 C 
ENDBRANCH   4  15
BRANCH   1  17
ATOM     17  C   UNL     1       0.099   4.226 -23.286  0.00  0.00    +0.094 C 
BRANCH  17  21
ATOM     18  C   UNL     1       2.687   1.477 -22.311  0.00  0.00    +0.161 A 
ATOM     19  C   UNL     1       1.414   1.236 -22.208  0.00  0.00    +0.049 A 
ATOM     20  C   UNL     1       0.551   2.152 -22.533  0.00  0.00    +0.007 A 
ATOM     21  C   UNL     1       0.962   3.310 -22.961  0.00  0.00    -0.038 A 
ATOM     22  C   UNL     1       2.235   3.550 -23.063  0.00  0.00    +0.053 A 
ATOM     23  C   UNL     1       3.098   2.633 -22.738  0.00  0.00    +0.162 A 
BRANCH  18  25
ATOM     24  C   UNL     1       3.863   0.375 -20.738  0.00  0.00    +0.277 C 
ATOM     25  O   UNL     1       3.550   0.560 -21.986  0.00  0.00    -0.491 OA
ENDBRANCH  18  25
BRANCH  23  26
ATOM     26  O   UNL     1       4.371   2.874 -22.840  0.00  0.00    -0.491 OA
ATOM     27  C   UNL     1       4.782   4.038 -23.247  0.00  0.00    +0.277 C 
ENDBRANCH  23  26
ENDBRANCH  17  21
ENDBRANCH   1  17
TORSDOF 6
ENDMDL
MODEL 2
REMARK VINA RESULT:    -8.576      1.967      3.661
REMARK INTER + INTRA:         -11.256
REMARK INTER:                 -11.603
REMARK INTRA:                   0.347
REMARK UNBOUND:                 0.329
REMARK  Name = ZINC000000621833
REMARK  11 active torsions:
REMARK  status: ('A' for Active; 'I' for Inactive)
REMARK    1  A    between atoms: C_1  and  O_2
REMARK    2  A    between atoms: O_2  and  C_3
REMARK    3  A    between atoms: C_6  and  C_7
REMARK    4  A    between atoms: C_7  and  C_8
REMARK    5  A    between atoms: C_11  and  O_12
REMARK    6  A    between atoms: O_12  and  C_13
REMARK    7  A    between atoms: C_14  and  O_15
REMARK    8  A    between atoms: O_15  and  C_16
REMARK    9  A    between atoms: N_21  and  C_22
REMARK   10  A    between atoms: C_24  and  O_25
REMARK   11  A    between atoms: O_25  and  C_26
REMARK                            x       y       z     vdW  Elec       q    Type
REMARK                         _______ _______ _______ _____ _____    ______ ____
ROOT
ATOM      1  C   UNL     1       0.254   2.412 -22.993  0.00  0.00    +0.100 C 
ATOM      2  C   UNL     1      -1.001   2.733 -23.103  0.00  0.00    +0.008 A 
ATOM      3  C   UNL     1      -1.400   3.457 -24.106  0.00  0.00    +0.058 A 
ATOM      4  C   UNL     1      -2.656   3.778 -24.217  0.00  0.00    +0.162 A 
ATOM      5  C   UNL     1      -3.511   3.374 -23.325  0.00  0.00    +0.162 A 
ATOM      6  C   UNL     1      -3.111   2.650 -22.322  0.00  0.00    +0.053 A 
ATOM      7  C   UNL     1      -1.856   2.329 -22.211  0.00  0.00    -0.030 A 
ATOM      8  C   UNL     1      -1.456   1.604 -21.209  0.00  0.00    +0.086 C 
ATOM      9  C   UNL     1      -0.201   1.284 -21.100  0.00  0.00    +0.136 C 
ATOM     10  N   UNL     1       0.654   1.688 -21.992  0.00  0.00    +0.239 N 
ATOM     11  H   UNL     1       1.422   1.937 -22.615  0.00  0.00    +0.204 HD
ATOM     12  C   UNL     1       1.910   1.367 -21.881  0.00  0.00    +0.191 C 
ENDROOT
BRANCH   5  13
ATOM     13  O   UNL     1      -4.765   3.695 -23.435  0.00  0.00    -0.491 OA
ATOM     14  C   UNL     1      -5.597   3.405 -22.478  0.00  0.00    +0.277 C 
ENDBRANCH   5  13
BRANCH   4  15
ATOM     15  O   UNL     1      -3.055   4.503 -25.219  0.00  0.00    -0.491 OA
ATOM     16  C   UNL     1      -3.335   3.940 -26.358  0.00  0.00    +0.277 C 
ENDBRANCH   4  15
BRANCH   1  17
ATOM     17  C   UNL     1       1.110   2.817 -23.886  0.00  0.00    +0.094 C 
BRANCH  17  21
ATOM     18  C   UNL     1       3.916   5.337 -22.896  0.00  0.00    +0.161 A 
ATOM     19  C   UNL     1       2.672   5.712 -22.883  0.00  0.00    +0.049 A 
ATOM     20  C   UNL     1       1.736   4.873 -23.213  0.00  0.00    +0.007 A 
ATOM     21  C   UNL     1       2.045   3.656 -23.556  0.00  0.00    -0.038 A 
ATOM     22  C   UNL     1       3.290   3.282 -23.568  0.00  0.00    +0.053 A 
ATOM     23  C   UNL     1       4.225   4.122 -23.238  0.00  0.00    +0.162 A 
BRANCH  18  25
ATOM     24  C   UNL     1       4.540   7.327 -22.047  0.00  0.00    +0.277 C 
ATOM     25  O   UNL     1       4.852   6.177 -22.566  0.00  0.00    -0.491 OA
ENDBRANCH  18  25
BRANCH  23  26
ATOM     26  O   UNL     1       5.470   3.747 -23.251  0.00  0.00    -0.491 OA
ATOM     27  C   UNL     1       5.859   2.761 -22.499  0.00  0.00    +0.277 C 
ENDBRANCH  23  26
ENDBRANCH  17  21
ENDBRANCH   1  17
TORSDOF 6
ENDMDL
MODEL 3
REMARK VINA RESULT:    -8.232      1.273      2.274
REMARK INTER + INTRA:         -10.791
REMARK INTER:                 -11.080
REMARK INTRA:                   0.290
REMARK UNBOUND:                 0.329
REMARK  Name = ZINC000000621833
REMARK  11 active torsions:
REMARK  status: ('A' for Active; 'I' for Inactive)
REMARK    1  A    between atoms: C_1  and  O_2
REMARK    2  A    between atoms: O_2  and  C_3
REMARK    3  A    between atoms: C_6  and  C_7
REMARK    4  A    between atoms: C_7  and  C_8
REMARK    5  A    between atoms: C_11  and  O_12
REMARK    6  A    between atoms: O_12  and  C_13
REMARK    7  A    between atoms: C_14  and  O_15
REMARK    8  A    between atoms: O_15  and  C_16
REMARK    9  A    between atoms: N_21  and  C_22
REMARK   10  A    between atoms: C_24  and  O_25
REMARK   11  A    between atoms: O_25  and  C_26
REMARK                            x       y       z     vdW  Elec       q    Type
REMARK                         _______ _______ _______ _____ _____    ______ ____
ROOT
ATOM      1  C   UNL     1      -0.897   2.993 -24.098  0.00  0.00    +0.100 C 
ATOM      2  C   UNL     1      -2.072   3.142 -23.562  0.00  0.00    +0.008 A 
ATOM      3  C   UNL     1      -2.232   2.955 -22.286  0.00  0.00    +0.058 A 
ATOM      4  C   UNL     1      -3.407   3.104 -21.749  0.00  0.00    +0.162 A 
ATOM      5  C   UNL     1      -4.421   3.440 -22.490  0.00  0.00    +0.162 A 
ATOM      6  C   UNL     1      -4.261   3.627 -23.766  0.00  0.00    +0.053 A 
ATOM      7  C   UNL     1      -3.086   3.478 -24.302  0.00  0.00    -0.030 A 
ATOM      8  C   UNL     1      -2.926   3.665 -25.579  0.00  0.00    +0.086 C 
ATOM      9  C   UNL     1      -1.751   3.516 -26.114  0.00  0.00    +0.136 C 
ATOM     10  N   UNL     1      -0.736   3.180 -25.374  0.00  0.00    +0.239 N 
ATOM     11  H   UNL     1       0.135   2.921 -24.911  0.00  0.00    +0.204 HD
ATOM     12  C   UNL     1       0.439   3.030 -25.911  0.00  0.00    +0.191 C 
ENDROOT
BRANCH   5  13
ATOM     13  O   UNL     1      -5.596   3.589 -21.954  0.00  0.00    -0.491 OA
ATOM     14  C   UNL     1      -6.442   2.602 -21.956  0.00  0.00    +0.277 C 
ENDBRANCH   5  13
BRANCH   4  15
ATOM     15  O   UNL     1      -3.567   2.917 -20.473  0.00  0.00    -0.491 OA
ATOM     16  C   UNL     1      -3.081   3.774 -19.624  0.00  0.00    +0.277 C 
ENDBRANCH   4  15
BRANCH   1  17
ATOM     17  C   UNL     1       0.118   2.656 -23.357  0.00  0.00    +0.094 C 
BRANCH  17  21
ATOM     18  C   UNL     1       3.072   5.151 -22.849  0.00  0.00    +0.161 A 
ATOM     19  C   UNL     1       1.882   5.599 -23.117  0.00  0.00    +0.049 A 
ATOM     20  C   UNL     1       0.897   4.768 -23.287  0.00  0.00    +0.007 A 
ATOM     21  C   UNL     1       1.103   3.487 -23.188  0.00  0.00    -0.038 A 
ATOM     22  C   UNL     1       2.293   3.040 -22.919  0.00  0.00    +0.053 A 
ATOM     23  C   UNL     1       3.278   3.871 -22.750  0.00  0.00    +0.162 A 
BRANCH  18  25
ATOM     24  C   UNL     1       3.819   7.209 -22.323  0.00  0.00    +0.277 C 
ATOM     25  O   UNL     1       4.057   5.982 -22.679  0.00  0.00    -0.491 OA
ENDBRANCH  18  25
BRANCH  23  26
ATOM     26  O   UNL     1       4.468   3.423 -22.481  0.00  0.00    -0.491 OA
ATOM     27  C   UNL     1       5.050   2.595 -23.297  0.00  0.00    +0.277 C 
ENDBRANCH  23  26
ENDBRANCH  17  21
ENDBRANCH   1  17
TORSDOF 6
ENDMDL
MODEL 4
REMARK VINA RESULT:    -7.475      1.312      6.776
REMARK INTER + INTRA:          -9.768
REMARK INTER:                 -11.685
REMARK INTRA:                   1.916
REMARK UNBOUND:                 0.329
REMARK  Name = ZINC000000621833
REMARK  11 active torsions:
REMARK  status: ('A' for Active; 'I' for Inactive)
REMARK    1  A    between atoms: C_1  and  O_2
REMARK    2  A    between atoms: O_2  and  C_3
REMARK    3  A    between atoms: C_6  and  C_7
REMARK    4  A    between atoms: C_7  and  C_8
REMARK    5  A    between atoms: C_11  and  O_12
REMARK    6  A    between atoms: O_12  and  C_13
REMARK    7  A    between atoms: C_14  and  O_15
REMARK    8  A    between atoms: O_15  and  C_16
REMARK    9  A    between atoms: N_21  and  C_22
REMARK   10  A    between atoms: C_24  and  O_25
REMARK   11  A    between atoms: O_25  and  C_26
REMARK                            x       y       z     vdW  Elec       q    Type
REMARK                         _______ _______ _______ _____ _____    ______ ____
ROOT
ATOM      1  C   UNL     1       0.392   2.782 -23.787  0.00  0.00    +0.100 C 
ATOM      2  C   UNL     1       1.501   2.762 -23.109  0.00  0.00    +0.008 A 
ATOM      3  C   UNL     1       1.659   1.902 -22.148  0.00  0.00    +0.058 A 
ATOM      4  C   UNL     1       2.769   1.882 -21.469  0.00  0.00    +0.162 A 
ATOM      5  C   UNL     1       3.719   2.722 -21.753  0.00  0.00    +0.162 A 
ATOM      6  C   UNL     1       3.561   3.582 -22.715  0.00  0.00    +0.053 A 
ATOM      7  C   UNL     1       2.452   3.602 -23.393  0.00  0.00    -0.030 A 
ATOM      8  C   UNL     1       2.294   4.462 -24.355  0.00  0.00    +0.086 C 
ATOM      9  C   UNL     1       1.184   4.481 -25.032  0.00  0.00    +0.136 C 
ATOM     10  N   UNL     1       0.234   3.641 -24.748  0.00  0.00    +0.239 N 
ATOM     11  H   UNL     1      -0.584   3.043 -24.630  0.00  0.00    +0.204 HD
ATOM     12  C   UNL     1      -0.876   3.661 -25.427  0.00  0.00    +0.191 C 
ENDROOT
BRANCH   5  13
ATOM     13  O   UNL     1       4.828   2.702 -21.075  0.00  0.00    -0.491 OA
ATOM     14  C   UNL     1       5.950   3.013 -21.654  0.00  0.00    +0.277 C 
ENDBRANCH   5  13
BRANCH   4  15
ATOM     15  O   UNL     1       2.927   1.022 -20.508  0.00  0.00    -0.491 OA
ATOM     16  C   UNL     1       3.854   0.113 -20.593  0.00  0.00    +0.277 C 
ENDBRANCH   4  15
BRANCH   1  17
ATOM     17  C   UNL     1      -0.559   1.941 -23.503  0.00  0.00    +0.094 C 
BRANCH  17  21
ATOM     18  C   UNL     1      -3.928   3.235 -22.025  0.00  0.00    +0.161 A 
ATOM     19  C   UNL     1      -2.983   2.828 -21.230  0.00  0.00    +0.049 A 
ATOM     20  C   UNL     1      -1.860   2.397 -21.723  0.00  0.00    +0.007 A 
ATOM     21  C   UNL     1      -1.682   2.372 -23.011  0.00  0.00    -0.038 A 
ATOM     22  C   UNL     1      -2.627   2.779 -23.805  0.00  0.00    +0.053 A 
ATOM     23  C   UNL     1      -3.750   3.210 -23.313  0.00  0.00    +0.162 A 
BRANCH  18  25
ATOM     24  C   UNL     1      -6.116   2.924 -21.595  0.00  0.00    +0.277 C 
ATOM     25  O   UNL     1      -5.051   3.666 -21.533  0.00  0.00    -0.491 OA
ENDBRANCH  18  25
BRANCH  23  26
ATOM     26  O   UNL     1      -4.695   3.616 -24.108  0.00  0.00    -0.491 OA
ATOM     27  C   UNL     1      -4.542   3.532 -25.395  0.00  0.00    +0.277 C 
ENDBRANCH  23  26
ENDBRANCH  17  21
ENDBRANCH   1  17
TORSDOF 6
ENDMDL
MODEL 5
REMARK VINA RESULT:    -7.450      2.233      4.353
REMARK INTER + INTRA:          -9.735
REMARK INTER:                 -10.044
REMARK INTRA:                   0.309
REMARK UNBOUND:                 0.329
REMARK  Name = ZINC000000621833
REMARK  11 active torsions:
REMARK  status: ('A' for Active; 'I' for Inactive)
REMARK    1  A    between atoms: C_1  and  O_2
REMARK    2  A    between atoms: O_2  and  C_3
REMARK    3  A    between atoms: C_6  and  C_7
REMARK    4  A    between atoms: C_7  and  C_8
REMARK    5  A    between atoms: C_11  and  O_12
REMARK    6  A    between atoms: O_12  and  C_13
REMARK    7  A    between atoms: C_14  and  O_15
REMARK    8  A    between atoms: O_15  and  C_16
REMARK    9  A    between atoms: N_21  and  C_22
REMARK   10  A    between atoms: C_24  and  O_25
REMARK   11  A    between atoms: O_25  and  C_26
REMARK                            x       y       z     vdW  Elec       q    Type
REMARK                         _______ _______ _______ _____ _____    ______ ____
ROOT
ATOM      1  C   UNL     1       1.828   2.019 -22.735  0.00  0.00    +0.100 C 
ATOM      2  C   UNL     1       0.594   2.419 -22.814  0.00  0.00    +0.008 A 
ATOM      3  C   UNL     1       0.174   3.020 -23.887  0.00  0.00    +0.058 A 
ATOM      4  C   UNL     1      -1.061   3.421 -23.967  0.00  0.00    +0.162 A 
ATOM      5  C   UNL     1      -1.874   3.220 -22.973  0.00  0.00    +0.162 A 
ATOM      6  C   UNL     1      -1.454   2.619 -21.900  0.00  0.00    +0.053 A 
ATOM      7  C   UNL     1      -0.220   2.219 -21.820  0.00  0.00    -0.030 A 
ATOM      8  C   UNL     1       0.201   1.617 -20.747  0.00  0.00    +0.086 C 
ATOM      9  C   UNL     1       1.435   1.218 -20.669  0.00  0.00    +0.136 C 
ATOM     10  N   UNL     1       2.249   1.418 -21.662  0.00  0.00    +0.239 N 
ATOM     11  H   UNL     1       2.984   1.512 -22.363  0.00  0.00    +0.204 HD
ATOM     12  C   UNL     1       3.484   1.018 -21.582  0.00  0.00    +0.191 C 
ENDROOT
BRANCH   5  13
ATOM     13  O   UNL     1      -3.108   3.620 -23.053  0.00  0.00    -0.491 OA
ATOM     14  C   UNL     1      -3.919   3.428 -22.055  0.00  0.00    +0.277 C 
ENDBRANCH   5  13
BRANCH   4  15
ATOM     15  O   UNL     1      -1.481   4.022 -25.040  0.00  0.00    -0.491 OA
ATOM     16  C   UNL     1      -2.064   3.340 -25.981  0.00  0.00    +0.277 C 
ENDBRANCH   4  15
BRANCH   1  17
ATOM     17  C   UNL     1       2.642   2.220 -23.729  0.00  0.00    +0.094 C 
BRANCH  17  21
ATOM     18  C   UNL     1       5.770   4.502 -23.258  0.00  0.00    +0.161 A 
ATOM     19  C   UNL     1       5.908   3.301 -23.738  0.00  0.00    +0.049 A 
ATOM     20  C   UNL     1       4.865   2.541 -23.895  0.00  0.00    +0.007 A 
ATOM     21  C   UNL     1       3.685   2.981 -23.572  0.00  0.00    -0.038 A 
ATOM     22  C   UNL     1       3.548   4.181 -23.093  0.00  0.00    +0.053 A 
ATOM     23  C   UNL     1       4.590   4.942 -22.936  0.00  0.00    +0.162 A 
BRANCH  18  25
ATOM     24  C   UNL     1       7.981   4.731 -22.895  0.00  0.00    +0.277 C 
ATOM     25  O   UNL     1       6.812   5.262 -23.101  0.00  0.00    -0.491 OA
ENDBRANCH  18  25
BRANCH  23  26
ATOM     26  O   UNL     1       4.453   6.142 -22.457  0.00  0.00    -0.491 OA
ATOM     27  C   UNL     1       3.301   6.741 -22.524  0.00  0.00    +0.277 C 
ENDBRANCH  23  26
ENDBRANCH  17  21
ENDBRANCH   1  17
TORSDOF 6
ENDMDL
MODEL 6
REMARK VINA RESULT:    -7.362      1.449      2.105
REMARK INTER + INTRA:          -9.615
REMARK INTER:                 -10.842
REMARK INTRA:                   1.227
REMARK UNBOUND:                 0.329
REMARK  Name = ZINC000000621833
REMARK  11 active torsions:
REMARK  status: ('A' for Active; 'I' for Inactive)
REMARK    1  A    between atoms: C_1  and  O_2
REMARK    2  A    between atoms: O_2  and  C_3
REMARK    3  A    between atoms: C_6  and  C_7
REMARK    4  A    between atoms: C_7  and  C_8
REMARK    5  A    between atoms: C_11  and  O_12
REMARK    6  A    between atoms: O_12  and  C_13
REMARK    7  A    between atoms: C_14  and  O_15
REMARK    8  A    between atoms: O_15  and  C_16
REMARK    9  A    between atoms: N_21  and  C_22
REMARK   10  A    between atoms: C_24  and  O_25
REMARK   11  A    between atoms: O_25  and  C_26
REMARK                            x       y       z     vdW  Elec       q    Type
REMARK                         _______ _______ _______ _____ _____    ______ ____
ROOT
ATOM      1  C   UNL     1       0.169   2.415 -23.841  0.00  0.00    +0.100 C 
ATOM      2  C   UNL     1      -1.032   2.786 -23.511  0.00  0.00    +0.008 A 
ATOM      3  C   UNL     1      -1.481   2.542 -22.316  0.00  0.00    +0.058 A 
ATOM      4  C   UNL     1      -2.682   2.914 -21.984  0.00  0.00    +0.162 A 
ATOM      5  C   UNL     1      -3.434   3.530 -22.848  0.00  0.00    +0.162 A 
ATOM      6  C   UNL     1      -2.984   3.774 -24.043  0.00  0.00    +0.053 A 
ATOM      7  C   UNL     1      -1.783   3.402 -24.375  0.00  0.00    -0.030 A 
ATOM      8  C   UNL     1      -1.333   3.646 -25.569  0.00  0.00    +0.086 C 
ATOM      9  C   UNL     1      -0.132   3.274 -25.900  0.00  0.00    +0.136 C 
ATOM     10  N   UNL     1       0.619   2.658 -25.036  0.00  0.00    +0.239 N 
ATOM     11  H   UNL     1       1.305   2.172 -24.459  0.00  0.00    +0.204 HD
ATOM     12  C   UNL     1       1.820   2.287 -25.367  0.00  0.00    +0.191 C 
ENDROOT
BRANCH   5  13
ATOM     13  O   UNL     1      -4.634   3.901 -22.517  0.00  0.00    -0.491 OA
ATOM     14  C   UNL     1      -5.628   3.684 -23.326  0.00  0.00    +0.277 C 
ENDBRANCH   5  13
BRANCH   4  15
ATOM     15  O   UNL     1      -3.132   2.670 -20.789  0.00  0.00    -0.491 OA
ATOM     16  C   UNL     1      -3.083   3.593 -19.874  0.00  0.00    +0.277 C 
ENDBRANCH   4  15
BRANCH   1  17
ATOM     17  C   UNL     1       0.921   1.798 -22.977  0.00  0.00    +0.094 C 
BRANCH  17  21
ATOM     18  C   UNL     1       4.496   3.144 -22.191  0.00  0.00    +0.161 A 
ATOM     19  C   UNL     1       4.237   1.876 -22.069  0.00  0.00    +0.049 A 
ATOM     20  C   UNL     1       3.046   1.427 -22.331  0.00  0.00    +0.007 A 
ATOM     21  C   UNL     1       2.112   2.247 -22.715  0.00  0.00    -0.038 A 
ATOM     22  C   UNL     1       2.371   3.515 -22.836  0.00  0.00    +0.053 A 
ATOM     23  C   UNL     1       3.562   3.964 -22.574  0.00  0.00    +0.162 A 
BRANCH  18  25
ATOM     24  C   UNL     1       6.717   3.109 -22.556  0.00  0.00    +0.277 C 
ATOM     25  O   UNL     1       5.687   3.593 -21.929  0.00  0.00    -0.491 OA
ENDBRANCH  18  25
BRANCH  23  26
ATOM     26  O   UNL     1       3.821   5.232 -22.696  0.00  0.00    -0.491 OA
ATOM     27  C   UNL     1       2.860   6.069 -22.951  0.00  0.00    +0.277 C 
ENDBRANCH  23  26
ENDBRANCH  17  21
ENDBRANCH   1  17
TORSDOF 6
ENDMDL
MODEL 7
REMARK VINA RESULT:    -7.304      1.842      7.232
REMARK INTER + INTRA:          -9.537
REMARK INTER:                  -9.495
REMARK INTRA:                  -0.042
REMARK UNBOUND:                 0.329
REMARK  Name = ZINC000000621833
REMARK  11 active torsions:
REMARK  status: ('A' for Active; 'I' for Inactive)
REMARK    1  A    between atoms: C_1  and  O_2
REMARK    2  A    between atoms: O_2  and  C_3
REMARK    3  A    between atoms: C_6  and  C_7
REMARK    4  A    between atoms: C_7  and  C_8
REMARK    5  A    between atoms: C_11  and  O_12
REMARK    6  A    between atoms: O_12  and  C_13
REMARK    7  A    between atoms: C_14  and  O_15
REMARK    8  A    between atoms: O_15  and  C_16
REMARK    9  A    between atoms: N_21  and  C_22
REMARK   10  A    between atoms: C_24  and  O_25
REMARK   11  A    between atoms: O_25  and  C_26
REMARK                            x       y       z     vdW  Elec       q    Type
REMARK                         _______ _______ _______ _____ _____    ______ ____
ROOT
ATOM      1  C   UNL     1       0.987   2.791 -22.490  0.00  0.00    +0.100 C 
ATOM      2  C   UNL     1       2.204   3.199 -22.697  0.00  0.00    +0.008 A 
ATOM      3  C   UNL     1       2.446   4.466 -22.858  0.00  0.00    +0.058 A 
ATOM      4  C   UNL     1       3.663   4.875 -23.065  0.00  0.00    +0.162 A 
ATOM      5  C   UNL     1       4.637   4.016 -23.112  0.00  0.00    +0.162 A 
ATOM      6  C   UNL     1       4.395   2.749 -22.951  0.00  0.00    +0.053 A 
ATOM      7  C   UNL     1       3.178   2.340 -22.744  0.00  0.00    -0.030 A 
ATOM      8  C   UNL     1       2.936   1.073 -22.583  0.00  0.00    +0.086 C 
ATOM      9  C   UNL     1       1.719   0.666 -22.376  0.00  0.00    +0.136 C 
ATOM     10  N   UNL     1       0.745   1.525 -22.330  0.00  0.00    +0.239 N 
ATOM     11  H   UNL     1      -0.104   2.088 -22.271  0.00  0.00    +0.204 HD
ATOM     12  C   UNL     1      -0.473   1.117 -22.122  0.00  0.00    +0.191 C 
ENDROOT
BRANCH   5  13
ATOM     13  O   UNL     1       5.854   4.423 -23.319  0.00  0.00    -0.491 OA
ATOM     14  C   UNL     1       6.768   4.227 -22.415  0.00  0.00    +0.277 C 
ENDBRANCH   5  13
BRANCH   4  15
ATOM     15  O   UNL     1       3.905   6.142 -23.226  0.00  0.00    -0.491 OA
ATOM     16  C   UNL     1       3.799   6.957 -22.218  0.00  0.00    +0.277 C 
ENDBRANCH   4  15
BRANCH   1  17
ATOM     17  C   UNL     1       0.012   3.651 -22.444  0.00  0.00    +0.094 C 
BRANCH  17  21
ATOM     18  C   UNL     1      -2.728   3.643 -25.220  0.00  0.00    +0.161 A 
ATOM     19  C   UNL     1      -1.471   3.582 -25.547  0.00  0.00    +0.049 A 
ATOM     20  C   UNL     1      -0.558   3.585 -24.622  0.00  0.00    +0.007 A 
ATOM     21  C   UNL     1      -0.901   3.649 -23.369  0.00  0.00    -0.038 A 
ATOM     22  C   UNL     1      -2.158   3.709 -23.043  0.00  0.00    +0.053 A 
ATOM     23  C   UNL     1      -3.071   3.707 -23.968  0.00  0.00    +0.162 A 
BRANCH  18  25
ATOM     24  C   UNL     1      -3.305   3.475 -27.390  0.00  0.00    +0.277 C 
ATOM     25  O   UNL     1      -3.641   3.641 -26.145  0.00  0.00    -0.491 OA
ENDBRANCH  18  25
BRANCH  23  26
ATOM     26  O   UNL     1      -4.328   3.768 -23.641  0.00  0.00    -0.491 OA
ATOM     27  C   UNL     1      -4.714   3.369 -22.466  0.00  0.00    +0.277 C 
ENDBRANCH  23  26
ENDBRANCH  17  21
ENDBRANCH   1  17
TORSDOF 6
ENDMDL
MODEL 8
REMARK VINA RESULT:    -7.284      2.402      7.137
REMARK INTER + INTRA:          -9.510
REMARK INTER:                  -9.761
REMARK INTRA:                   0.251
REMARK UNBOUND:                 0.329
REMARK  Name = ZINC000000621833
REMARK  11 active torsions:
REMARK  status: ('A' for Active; 'I' for Inactive)
REMARK    1  A    between atoms: C_1  and  O_2
REMARK    2  A    between atoms: O_2  and  C_3
REMARK    3  A    between atoms: C_6  and  C_7
REMARK    4  A    between atoms: C_7  and  C_8
REMARK    5  A    between atoms: C_11  and  O_12
REMARK    6  A    between atoms: O_12  and  C_13
REMARK    7  A    between atoms: C_14  and  O_15
REMARK    8  A    between atoms: O_15  and  C_16
REMARK    9  A    between atoms: N_21  and  C_22
REMARK   10  A    between atoms: C_24  and  O_25
REMARK   11  A    between atoms: O_25  and  C_26
REMARK                            x       y       z     vdW  Elec       q    Type
REMARK                         _______ _______ _______ _____ _____    ______ ____
ROOT
ATOM      1  C   UNL     1       2.375   4.012 -24.077  0.00  0.00    +0.100 C 
ATOM      2  C   UNL     1       3.327   4.583 -23.401  0.00  0.00    +0.008 A 
ATOM      3  C   UNL     1       3.137   5.757 -22.876  0.00  0.00    +0.058 A 
ATOM      4  C   UNL     1       4.090   6.328 -22.200  0.00  0.00    +0.162 A 
ATOM      5  C   UNL     1       5.232   5.725 -22.049  0.00  0.00    +0.162 A 
ATOM      6  C   UNL     1       5.421   4.551 -22.573  0.00  0.00    +0.053 A 
ATOM      7  C   UNL     1       4.469   3.980 -23.250  0.00  0.00    -0.030 A 
ATOM      8  C   UNL     1       4.658   2.806 -23.775  0.00  0.00    +0.086 C 
ATOM      9  C   UNL     1       3.705   2.235 -24.451  0.00  0.00    +0.136 C 
ATOM     10  N   UNL     1       2.564   2.839 -24.601  0.00  0.00    +0.239 N 
ATOM     11  H   UNL     1       1.629   3.198 -24.794  0.00  0.00    +0.204 HD
ATOM     12  C   UNL     1       1.611   2.267 -25.278  0.00  0.00    +0.191 C 
ENDROOT
BRANCH   5  13
ATOM     13  O   UNL     1       6.184   6.296 -21.373  0.00  0.00    -0.491 OA
ATOM     14  C   UNL     1       7.298   6.615 -21.962  0.00  0.00    +0.277 C 
ENDBRANCH   5  13
BRANCH   4  15
ATOM     15  O   UNL     1       3.900   7.502 -21.675  0.00  0.00    -0.491 OA
ATOM     16  C   UNL     1       4.127   8.573 -22.377  0.00  0.00    +0.277 C 
ENDBRANCH   4  15
BRANCH   1  17
ATOM     17  C   UNL     1       1.232   4.616 -24.228  0.00  0.00    +0.094 C 
BRANCH  17  21
ATOM     18  C   UNL     1      -2.006   3.071 -22.698  0.00  0.00    +0.161 A 
ATOM     19  C   UNL     1      -0.868   2.934 -22.085  0.00  0.00    +0.049 A 
ATOM     20  C   UNL     1       0.212   3.448 -22.594  0.00  0.00    +0.007 A 
ATOM     21  C   UNL     1       0.153   4.101 -23.718  0.00  0.00    -0.038 A 
ATOM     22  C   UNL     1      -0.985   4.238 -24.331  0.00  0.00    +0.053 A 
ATOM     23  C   UNL     1      -2.064   3.723 -23.821  0.00  0.00    +0.162 A 
BRANCH  18  25
ATOM     24  C   UNL     1      -3.443   2.864 -20.977  0.00  0.00    +0.277 C 
ATOM     25  O   UNL     1      -3.085   2.557 -22.189  0.00  0.00    -0.491 OA
ENDBRANCH  18  25
BRANCH  23  26
ATOM     26  O   UNL     1      -3.202   3.861 -24.434  0.00  0.00    -0.491 OA
ATOM     27  C   UNL     1      -3.359   3.377 -25.630  0.00  0.00    +0.277 C 
ENDBRANCH  23  26
ENDBRANCH  17  21
ENDBRANCH   1  17
TORSDOF 6
ENDMDL
MODEL 9
REMARK VINA RESULT:    -7.038      2.206      3.686
REMARK INTER + INTRA:          -9.178
REMARK INTER:                  -9.507
REMARK INTRA:                   0.329
REMARK UNBOUND:                 0.329
REMARK  Name = ZINC000000621833
REMARK  11 active torsions:
REMARK  status: ('A' for Active; 'I' for Inactive)
REMARK    1  A    between atoms: C_1  and  O_2
REMARK    2  A    between atoms: O_2  and  C_3
REMARK    3  A    between atoms: C_6  and  C_7
REMARK    4  A    between atoms: C_7  and  C_8
REMARK    5  A    between atoms: C_11  and  O_12
REMARK    6  A    between atoms: O_12  and  C_13
REMARK    7  A    between atoms: C_14  and  O_15
REMARK    8  A    between atoms: O_15  and  C_16
REMARK    9  A    between atoms: N_21  and  C_22
REMARK   10  A    between atoms: C_24  and  O_25
REMARK   11  A    between atoms: O_25  and  C_26
REMARK                            x       y       z     vdW  Elec       q    Type
REMARK                         _______ _______ _______ _____ _____    ______ ____
ROOT
ATOM      1  C   UNL     1      -2.506   3.774 -22.313  0.00  0.00    +0.100 C 
ATOM      2  C   UNL     1      -2.589   3.661 -23.605  0.00  0.00    +0.008 A 
ATOM      3  C   UNL     1      -1.519   3.767 -24.336  0.00  0.00    +0.058 A 
ATOM      4  C   UNL     1      -1.602   3.654 -25.629  0.00  0.00    +0.162 A 
ATOM      5  C   UNL     1      -2.754   3.435 -26.190  0.00  0.00    +0.162 A 
ATOM      6  C   UNL     1      -3.823   3.329 -25.459  0.00  0.00    +0.053 A 
ATOM      7  C   UNL     1      -3.741   3.442 -24.166  0.00  0.00    -0.030 A 
ATOM      8  C   UNL     1      -4.810   3.336 -23.435  0.00  0.00    +0.086 C 
ATOM      9  C   UNL     1      -4.727   3.450 -22.142  0.00  0.00    +0.136 C 
ATOM     10  N   UNL     1      -3.574   3.668 -21.582  0.00  0.00    +0.239 N 
ATOM     11  H   UNL     1      -2.741   3.839 -21.020  0.00  0.00    +0.204 HD
ATOM     12  C   UNL     1      -3.492   3.781 -20.289  0.00  0.00    +0.191 C 
ENDROOT
BRANCH   5  13
ATOM     13  O   UNL     1      -2.837   3.322 -27.482  0.00  0.00    -0.491 OA
ATOM     14  C   UNL     1      -3.939   3.640 -28.093  0.00  0.00    +0.277 C 
ENDBRANCH   5  13
BRANCH   4  15
ATOM     15  O   UNL     1      -0.532   3.760 -26.361  0.00  0.00    -0.491 OA
ATOM     16  C   UNL     1       0.634   3.869 -25.795  0.00  0.00    +0.277 C 
ENDBRANCH   4  15
BRANCH   1  17
ATOM     17  C   UNL     1      -1.353   3.993 -21.752  0.00  0.00    +0.094 C 
BRANCH  17  21
ATOM     18  C   UNL     1       1.539   1.409 -22.164  0.00  0.00    +0.161 A 
ATOM     19  C   UNL     1       0.411   1.043 -21.629  0.00  0.00    +0.049 A 
ATOM     20  C   UNL     1      -0.552   1.905 -21.492  0.00  0.00    +0.007 A 
ATOM     21  C   UNL     1      -0.389   3.132 -21.889  0.00  0.00    -0.038 A 
ATOM     22  C   UNL     1       0.738   3.497 -22.423  0.00  0.00    +0.053 A 
ATOM     23  C   UNL     1       1.702   2.636 -22.561  0.00  0.00    +0.162 A 
BRANCH  18  25
ATOM     24  C   UNL     1       3.402   0.424 -21.370  0.00  0.00    +0.277 C 
ATOM     25  O   UNL     1       2.502   0.548 -22.301  0.00  0.00    -0.491 OA
ENDBRANCH  18  25
BRANCH  23  26
ATOM     26  O   UNL     1       2.829   3.002 -23.095  0.00  0.00    -0.491 OA
ATOM     27  C   UNL     1       3.165   4.257 -23.109  0.00  0.00    +0.277 C 
ENDBRANCH  23  26
ENDBRANCH  17  21
ENDBRANCH   1  17
TORSDOF 6
ENDMDL
