MODEL 1
REMARK VINA RESULT:   -12.446      0.000      0.000
REMARK INTER + INTRA:         -12.446
REMARK INTER:                 -12.446
REMARK INTRA:                   0.000
REMARK UNBOUND:                 0.000
REMARK  Name = ZINC000004104637
REMARK  2 active torsions:
REMARK  status: ('A' for Active; 'I' for Inactive)
REMARK    1  A    between atoms: C_1  and  C_2
REMARK    2  A    between atoms: C_16  and  C_17
REMARK                            x       y       z     vdW  Elec       q    Type
REMARK                         _______ _______ _______ _____ _____    ______ ____
ROOT
ATOM      1  C   UNL     1      -4.857   2.876 -21.660  0.00  0.00    +0.019 C 
ATOM      2  C   UNL     1      -4.006   3.151 -22.602  0.00  0.00    +0.029 C 
ATOM      3  C   UNL     1      -3.482   2.553 -21.574  0.00  0.00    +0.015 C 
ATOM      4  C   UNL     1      -2.210   2.284 -21.557  0.00  0.00    +0.005 C 
ATOM      5  C   UNL     1      -1.462   2.613 -22.569  0.00  0.00    -0.001 C 
ATOM      6  C   UNL     1      -1.986   3.211 -23.597  0.00  0.00    +0.004 C 
ATOM      7  C   UNL     1      -1.239   3.541 -24.608  0.00  0.00    +0.078 C 
ATOM      8  C   UNL     1       0.032   3.272 -24.592  0.00  0.00    +0.138 C 
ATOM      9  C   UNL     1       0.557   2.673 -23.564  0.00  0.00    +0.068 C 
ATOM     10  C   UNL     1       1.828   2.404 -23.547  0.00  0.00    +0.086 C 
ATOM     11  C   UNL     1       2.352   1.805 -22.519  0.00  0.00    +0.134 C 
ATOM     12  C   UNL     1       1.605   1.476 -21.507  0.00  0.00    +0.075 C 
ATOM     13  C   UNL     1       0.334   1.745 -21.524  0.00  0.00    +0.015 C 
ATOM     14  O   UNL     1       3.624   1.536 -22.502  0.00  0.00    -0.297 OA
ATOM     15  O   UNL     1       0.780   3.601 -25.603  0.00  0.00    -0.297 OA
ATOM     16  C   UNL     1      -0.191   2.344 -22.552  0.00  0.00    -0.019 C 
ATOM     17  C   UNL     1      -0.938   2.015 -21.541  0.00  0.00    +0.012 C 
ATOM     18  C   UNL     1      -5.223   3.526 -22.864  0.00  0.00    +0.139 C 
ATOM     19  O   UNL     1      -6.255   3.368 -22.088  0.00  0.00    -0.297 OA
ATOM     20  C   UNL     1      -5.228   4.087 -24.036  0.00  0.00    +0.075 C 
ATOM     21  C   UNL     1      -4.014   4.059 -24.500  0.00  0.00    +0.012 C 
ATOM     22  C   UNL     1      -3.259   3.481 -23.614  0.00  0.00    +0.006 C 
ENDROOT
TORSDOF 0
ENDMDL
MODEL 2
REMARK VINA RESULT:   -12.151      1.135      2.648
REMARK INTER + INTRA:         -12.151
REMARK INTER:                 -12.151
REMARK INTRA:                   0.000
REMARK UNBOUND:                 0.000
REMARK  Name = ZINC000004104637
REMARK  2 active torsions:
REMARK  status: ('A' for Active; 'I' for Inactive)
REMARK    1  A    between atoms: C_1  and  C_2
REMARK    2  A    between atoms: C_16  and  C_17
REMARK                            x       y       z     vdW  Elec       q    Type
REMARK                         _______ _______ _______ _____ _____    ______ ____
ROOT
ATOM      1  C   UNL     1      -4.528   3.776 -23.912  0.00  0.00    +0.019 C 
ATOM      2  C   UNL     1      -3.702   3.253 -23.056  0.00  0.00    +0.029 C 
ATOM      3  C   UNL     1      -3.149   3.605 -24.179  0.00  0.00    +0.015 C 
ATOM      4  C   UNL     1      -1.874   3.420 -24.361  0.00  0.00    +0.005 C 
ATOM      5  C   UNL     1      -1.154   2.884 -23.421  0.00  0.00    -0.001 C 
ATOM      6  C   UNL     1      -1.708   2.533 -22.299  0.00  0.00    +0.004 C 
ATOM      7  C   UNL     1      -0.988   1.997 -21.358  0.00  0.00    +0.078 C 
ATOM      8  C   UNL     1       0.286   1.812 -21.540  0.00  0.00    +0.138 C 
ATOM      9  C   UNL     1       0.840   2.164 -22.663  0.00  0.00    +0.068 C 
ATOM     10  C   UNL     1       2.113   1.979 -22.845  0.00  0.00    +0.086 C 
ATOM     11  C   UNL     1       2.667   2.331 -23.968  0.00  0.00    +0.134 C 
ATOM     12  C   UNL     1       1.947   2.867 -24.908  0.00  0.00    +0.075 C 
ATOM     13  C   UNL     1       0.673   3.051 -24.726  0.00  0.00    +0.015 C 
ATOM     14  O   UNL     1       3.941   2.146 -24.150  0.00  0.00    -0.297 OA
ATOM     15  O   UNL     1       1.006   1.276 -20.600  0.00  0.00    -0.297 OA
ATOM     16  C   UNL     1       0.119   2.700 -23.603  0.00  0.00    -0.019 C 
ATOM     17  C   UNL     1      -0.601   3.236 -24.543  0.00  0.00    +0.012 C 
ATOM     18  C   UNL     1      -4.928   3.327 -22.630  0.00  0.00    +0.139 C 
ATOM     19  O   UNL     1      -5.940   3.807 -23.291  0.00  0.00    -0.297 OA
ATOM     20  C   UNL     1      -4.966   2.837 -21.427  0.00  0.00    +0.075 C 
ATOM     21  C   UNL     1      -3.763   2.460 -21.109  0.00  0.00    +0.012 C 
ATOM     22  C   UNL     1      -2.982   2.717 -22.116  0.00  0.00    +0.006 C 
ENDROOT
TORSDOF 0
ENDMDL
MODEL 3
REMARK VINA RESULT:   -11.820      1.135      5.530
REMARK INTER + INTRA:         -11.820
REMARK INTER:                 -11.820
REMARK INTRA:                   0.000
REMARK UNBOUND:                 0.000
REMARK  Name = ZINC000004104637
REMARK  2 active torsions:
REMARK  status: ('A' for Active; 'I' for Inactive)
REMARK    1  A    between atoms: C_1  and  C_2
REMARK    2  A    between atoms: C_16  and  C_17
REMARK                            x       y       z     vdW  Elec       q    Type
REMARK                         _______ _______ _______ _____ _____    ______ ____
ROOT
ATOM      1  C   UNL     1       2.123   1.500 -21.931  0.00  0.00    +0.019 C 
ATOM      2  C   UNL     1       1.347   2.052 -22.816  0.00  0.00    +0.029 C 
ATOM      3  C   UNL     1       0.741   1.716 -21.716  0.00  0.00    +0.015 C 
ATOM      4  C   UNL     1      -0.533   1.942 -21.580  0.00  0.00    +0.005 C 
ATOM      5  C   UNL     1      -1.199   2.504 -22.545  0.00  0.00    -0.001 C 
ATOM      6  C   UNL     1      -0.593   2.840 -23.644  0.00  0.00    +0.004 C 
ATOM      7  C   UNL     1      -1.259   3.401 -24.609  0.00  0.00    +0.078 C 
ATOM      8  C   UNL     1      -2.532   3.627 -24.474  0.00  0.00    +0.138 C 
ATOM      9  C   UNL     1      -3.139   3.291 -23.373  0.00  0.00    +0.068 C 
ATOM     10  C   UNL     1      -4.411   3.517 -23.238  0.00  0.00    +0.086 C 
ATOM     11  C   UNL     1      -5.018   3.181 -22.138  0.00  0.00    +0.134 C 
ATOM     12  C   UNL     1      -4.351   2.620 -21.174  0.00  0.00    +0.075 C 
ATOM     13  C   UNL     1      -3.079   2.394 -21.309  0.00  0.00    +0.015 C 
ATOM     14  O   UNL     1      -6.291   3.407 -22.003  0.00  0.00    -0.297 OA
ATOM     15  O   UNL     1      -3.199   4.189 -25.438  0.00  0.00    -0.297 OA
ATOM     16  C   UNL     1      -2.472   2.730 -22.409  0.00  0.00    -0.019 C 
ATOM     17  C   UNL     1      -1.805   2.168 -21.445  0.00  0.00    +0.012 C 
ATOM     18  C   UNL     1       2.585   1.939 -23.196  0.00  0.00    +0.139 C 
ATOM     19  O   UNL     1       3.555   1.424 -22.500  0.00  0.00    -0.297 OA
ATOM     20  C   UNL     1       2.683   2.431 -24.396  0.00  0.00    +0.075 C 
ATOM     21  C   UNL     1       1.507   2.848 -24.756  0.00  0.00    +0.012 C 
ATOM     22  C   UNL     1       0.681   2.614 -23.780  0.00  0.00    +0.006 C 
ENDROOT
TORSDOF 0
ENDMDL
MODEL 4
REMARK VINA RESULT:   -11.350      0.969      1.255
REMARK INTER + INTRA:         -11.350
REMARK INTER:                 -11.350
REMARK INTRA:                   0.000
REMARK UNBOUND:                 0.000
REMARK  Name = ZINC000004104637
REMARK  2 active torsions:
REMARK  status: ('A' for Active; 'I' for Inactive)
REMARK    1  A    between atoms: C_1  and  C_2
REMARK    2  A    between atoms: C_16  and  C_17
REMARK                            x       y       z     vdW  Elec       q    Type
REMARK                         _______ _______ _______ _____ _____    ______ ____
ROOT
ATOM      1  C   UNL     1      -4.461   3.357 -22.913  0.00  0.00    +0.019 C 
ATOM      2  C   UNL     1      -3.351   3.323 -23.589  0.00  0.00    +0.029 C 
ATOM      3  C   UNL     1      -3.232   2.929 -22.356  0.00  0.00    +0.015 C 
ATOM      4  C   UNL     1      -2.074   2.548 -21.904  0.00  0.00    +0.005 C 
ATOM      5  C   UNL     1      -1.035   2.561 -22.686  0.00  0.00    -0.001 C 
ATOM      6  C   UNL     1      -1.155   2.954 -23.919  0.00  0.00    +0.004 C 
ATOM      7  C   UNL     1      -0.116   2.967 -24.701  0.00  0.00    +0.078 C 
ATOM      8  C   UNL     1       1.041   2.586 -24.250  0.00  0.00    +0.138 C 
ATOM      9  C   UNL     1       1.161   2.192 -23.016  0.00  0.00    +0.068 C 
ATOM     10  C   UNL     1       2.319   1.811 -22.565  0.00  0.00    +0.086 C 
ATOM     11  C   UNL     1       2.438   1.418 -21.332  0.00  0.00    +0.134 C 
ATOM     12  C   UNL     1       1.400   1.405 -20.550  0.00  0.00    +0.075 C 
ATOM     13  C   UNL     1       0.242   1.786 -21.001  0.00  0.00    +0.015 C 
ATOM     14  O   UNL     1       3.596   1.037 -20.880  0.00  0.00    -0.297 OA
ATOM     15  O   UNL     1       2.080   2.598 -25.031  0.00  0.00    -0.297 OA
ATOM     16  C   UNL     1       0.122   2.180 -22.235  0.00  0.00    -0.019 C 
ATOM     17  C   UNL     1      -0.916   2.167 -21.453  0.00  0.00    +0.012 C 
ATOM     18  C   UNL     1      -4.374   3.744 -24.273  0.00  0.00    +0.139 C 
ATOM     19  O   UNL     1      -5.590   3.871 -23.830  0.00  0.00    -0.297 OA
ATOM     20  C   UNL     1      -3.967   4.017 -25.477  0.00  0.00    +0.075 C 
ATOM     21  C   UNL     1      -2.694   3.764 -25.538  0.00  0.00    +0.012 C 
ATOM     22  C   UNL     1      -2.313   3.335 -24.371  0.00  0.00    +0.006 C 
ENDROOT
TORSDOF 0
ENDMDL
MODEL 5
REMARK VINA RESULT:   -10.811      1.388      6.141
REMARK INTER + INTRA:         -10.811
REMARK INTER:                 -10.811
REMARK INTRA:                   0.000
REMARK UNBOUND:                 0.000
REMARK  Name = ZINC000004104637
REMARK  2 active torsions:
REMARK  status: ('A' for Active; 'I' for Inactive)
REMARK    1  A    between atoms: C_1  and  C_2
REMARK    2  A    between atoms: C_16  and  C_17
REMARK                            x       y       z     vdW  Elec       q    Type
REMARK                         _______ _______ _______ _____ _____    ______ ____
ROOT
ATOM      1  C   UNL     1       2.827   2.353 -23.958  0.00  0.00    +0.019 C 
ATOM      2  C   UNL     1       1.810   2.221 -23.159  0.00  0.00    +0.029 C 
ATOM      3  C   UNL     1       1.515   2.755 -24.307  0.00  0.00    +0.015 C 
ATOM      4  C   UNL     1       0.289   3.102 -24.566  0.00  0.00    +0.005 C 
ATOM      5  C   UNL     1      -0.641   2.916 -23.677  0.00  0.00    -0.001 C 
ATOM      6  C   UNL     1      -0.345   2.383 -22.529  0.00  0.00    +0.004 C 
ATOM      7  C   UNL     1      -1.275   2.196 -21.640  0.00  0.00    +0.078 C 
ATOM      8  C   UNL     1      -2.501   2.543 -21.899  0.00  0.00    +0.138 C 
ATOM      9  C   UNL     1      -2.797   3.077 -23.048  0.00  0.00    +0.068 C 
ATOM     10  C   UNL     1      -4.022   3.424 -23.307  0.00  0.00    +0.086 C 
ATOM     11  C   UNL     1      -4.317   3.958 -24.455  0.00  0.00    +0.134 C 
ATOM     12  C   UNL     1      -3.387   4.144 -25.344  0.00  0.00    +0.075 C 
ATOM     13  C   UNL     1      -2.162   3.797 -25.085  0.00  0.00    +0.015 C 
ATOM     14  O   UNL     1      -5.543   4.305 -24.714  0.00  0.00    -0.297 OA
ATOM     15  O   UNL     1      -3.431   2.358 -21.011  0.00  0.00    -0.297 OA
ATOM     16  C   UNL     1      -1.866   3.263 -23.936  0.00  0.00    -0.019 C 
ATOM     17  C   UNL     1      -0.936   3.449 -24.825  0.00  0.00    +0.012 C 
ATOM     18  C   UNL     1       2.933   1.795 -22.660  0.00  0.00    +0.139 C 
ATOM     19  O   UNL     1       4.090   1.815 -23.254  0.00  0.00    -0.297 OA
ATOM     20  C   UNL     1       2.697   1.346 -21.464  0.00  0.00    +0.075 C 
ATOM     21  C   UNL     1       1.429   1.494 -21.222  0.00  0.00    +0.012 C 
ATOM     22  C   UNL     1       0.880   2.035 -22.270  0.00  0.00    +0.006 C 
ENDROOT
TORSDOF 0
ENDMDL
MODEL 6
REMARK VINA RESULT:   -10.134      2.097      6.635
REMARK INTER + INTRA:         -10.134
REMARK INTER:                 -10.134
REMARK INTRA:                   0.000
REMARK UNBOUND:                 0.000
REMARK  Name = ZINC000004104637
REMARK  2 active torsions:
REMARK  status: ('A' for Active; 'I' for Inactive)
REMARK    1  A    between atoms: C_1  and  C_2
REMARK    2  A    between atoms: C_16  and  C_17
REMARK                            x       y       z     vdW  Elec       q    Type
REMARK                         _______ _______ _______ _____ _____    ______ ____
ROOT
ATOM      1  C   UNL     1       4.619   4.039 -23.251  0.00  0.00    +0.019 C 
ATOM      2  C   UNL     1       3.738   3.237 -22.732  0.00  0.00    +0.029 C 
ATOM      3  C   UNL     1       3.226   4.197 -23.442  0.00  0.00    +0.015 C 
ATOM      4  C   UNL     1       1.936   4.288 -23.579  0.00  0.00    +0.005 C 
ATOM      5  C   UNL     1       1.159   3.417 -23.006  0.00  0.00    -0.001 C 
ATOM      6  C   UNL     1       1.672   2.456 -22.295  0.00  0.00    +0.004 C 
ATOM      7  C   UNL     1       0.896   1.586 -21.722  0.00  0.00    +0.078 C 
ATOM      8  C   UNL     1      -0.394   1.676 -21.858  0.00  0.00    +0.138 C 
ATOM      9  C   UNL     1      -0.907   2.636 -22.569  0.00  0.00    +0.068 C 
ATOM     10  C   UNL     1      -2.197   2.726 -22.705  0.00  0.00    +0.086 C 
ATOM     11  C   UNL     1      -2.709   3.686 -23.416  0.00  0.00    +0.134 C 
ATOM     12  C   UNL     1      -1.933   4.557 -23.989  0.00  0.00    +0.075 C 
ATOM     13  C   UNL     1      -0.644   4.467 -23.853  0.00  0.00    +0.015 C 
ATOM     14  O   UNL     1      -3.999   3.777 -23.552  0.00  0.00    -0.297 OA
ATOM     15  O   UNL     1      -1.171   0.805 -21.285  0.00  0.00    -0.297 OA
ATOM     16  C   UNL     1      -0.130   3.507 -23.142  0.00  0.00    -0.019 C 
ATOM     17  C   UNL     1       0.646   4.377 -23.716  0.00  0.00    +0.012 C 
ATOM     18  C   UNL     1       4.968   2.929 -22.444  0.00  0.00    +0.139 C 
ATOM     19  O   UNL     1       6.029   3.569 -22.838  0.00  0.00    -0.297 OA
ATOM     20  C   UNL     1       4.952   1.868 -21.693  0.00  0.00    +0.075 C 
ATOM     21  C   UNL     1       3.712   1.521 -21.516  0.00  0.00    +0.012 C 
ATOM     22  C   UNL     1       2.962   2.366 -22.158  0.00  0.00    +0.006 C 
ENDROOT
TORSDOF 0
ENDMDL
MODEL 7
REMARK VINA RESULT:    -9.666      1.728      2.642
REMARK INTER + INTRA:          -9.666
REMARK INTER:                  -9.666
REMARK INTRA:                   0.000
REMARK UNBOUND:                 0.000
REMARK  Name = ZINC000004104637
REMARK  2 active torsions:
REMARK  status: ('A' for Active; 'I' for Inactive)
REMARK    1  A    between atoms: C_1  and  C_2
REMARK    2  A    between atoms: C_16  and  C_17
REMARK                            x       y       z     vdW  Elec       q    Type
REMARK                         _______ _______ _______ _____ _____    ______ ____
ROOT
ATOM      1  C   UNL     1      -2.554   2.192 -21.825  0.00  0.00    +0.019 C 
ATOM      2  C   UNL     1      -1.573   2.882 -22.326  0.00  0.00    +0.029 C 
ATOM      3  C   UNL     1      -1.202   1.785 -21.735  0.00  0.00    +0.015 C 
ATOM      4  C   UNL     1       0.058   1.467 -21.686  0.00  0.00    +0.005 C 
ATOM      5  C   UNL     1       0.946   2.246 -22.229  0.00  0.00    -0.001 C 
ATOM      6  C   UNL     1       0.575   3.343 -22.820  0.00  0.00    +0.004 C 
ATOM      7  C   UNL     1       1.463   4.122 -23.362  0.00  0.00    +0.078 C 
ATOM      8  C   UNL     1       2.722   3.805 -23.314  0.00  0.00    +0.138 C 
ATOM      9  C   UNL     1       3.094   2.707 -22.723  0.00  0.00    +0.068 C 
ATOM     10  C   UNL     1       4.353   2.390 -22.674  0.00  0.00    +0.086 C 
ATOM     11  C   UNL     1       4.725   1.293 -22.083  0.00  0.00    +0.134 C 
ATOM     12  C   UNL     1       3.837   0.514 -21.541  0.00  0.00    +0.075 C 
ATOM     13  C   UNL     1       2.577   0.832 -21.589  0.00  0.00    +0.015 C 
ATOM     14  O   UNL     1       5.985   0.975 -22.035  0.00  0.00    -0.297 OA
ATOM     15  O   UNL     1       3.611   4.583 -23.856  0.00  0.00    -0.297 OA
ATOM     16  C   UNL     1       2.205   1.929 -22.180  0.00  0.00    -0.019 C 
ATOM     17  C   UNL     1       1.317   1.150 -21.638  0.00  0.00    +0.012 C 
ATOM     18  C   UNL     1      -2.743   3.418 -22.510  0.00  0.00    +0.139 C 
ATOM     19  O   UNL     1      -3.879   2.930 -22.108  0.00  0.00    -0.297 OA
ATOM     20  C   UNL     1      -2.578   4.528 -23.165  0.00  0.00    +0.075 C 
ATOM     21  C   UNL     1      -1.307   4.678 -23.387  0.00  0.00    +0.012 C 
ATOM     22  C   UNL     1      -0.685   3.661 -22.868  0.00  0.00    +0.006 C 
ENDROOT
TORSDOF 0
ENDMDL
