MODEL 1
REMARK VINA RESULT:   -11.002      0.000      0.000
REMARK INTER + INTRA:         -11.667
REMARK INTER:                 -11.518
REMARK INTRA:                  -0.149
REMARK UNBOUND:                -0.022
REMARK  Name = COc1ccc2c3c1O[C@@H]1[C@@H](Cl)C=C[C@@H]4[C@@H](C2)N(C)CC[C@]314      ZINC000253504155
REMARK  3 active torsions:
REMARK  status: ('A' for Active; 'I' for Inactive)
REMARK    1  A    between atoms: C_1  and  O_2
REMARK    2  A    between atoms: O_2  and  C_3
REMARK    3  A    between atoms: N_18  and  C_19
REMARK                            x       y       z     vdW  Elec       q    Type
REMARK                         _______ _______ _______ _____ _____    ______ ____
ROOT
ATOM      1  C   UNL     1       0.919   2.250 -23.270  0.00  0.00    +0.162 A 
ATOM      2  C   UNL     1       0.883   1.880 -22.062  0.00  0.00    +0.050 A 
ATOM      3  C   UNL     1      -0.190   1.904 -21.423  0.00  0.00    +0.008 A 
ATOM      4  C   UNL     1      -1.237   2.299 -21.984  0.00  0.00    -0.034 A 
ATOM      5  C   UNL     1      -1.224   2.671 -23.185  0.00  0.00    +0.012 A 
ATOM      6  C   UNL     1      -2.271   3.064 -23.739  0.00  0.00    +0.054 C 
ATOM      7  C   UNL     1      -3.398   3.530 -24.476  0.00  0.00    +0.067 C 
ATOM      8  C   UNL     1      -4.623   3.569 -23.783  0.00  0.00    +0.132 C 
ATOM      9  N   UNL     1      -4.626   3.149 -22.438  0.00  0.00    +0.236 N 
ATOM     10  H   UNL     1      -5.486   3.158 -21.890  0.00  0.00    +0.203 HD
ATOM     11  C   UNL     1      -5.670   3.153 -21.753  0.00  0.00    +0.190 C 
ATOM     12  C   UNL     1      -3.382   2.720 -21.897  0.00  0.00    +0.076 C 
ATOM     13  C   UNL     1      -3.347   3.090 -23.104  0.00  0.00    +0.075 C 
ATOM     14  C   UNL     1      -4.407   3.488 -23.667  0.00  0.00    -0.020 C 
ATOM     15  C   UNL     1      -4.377   3.855 -24.861  0.00  0.00    -0.008 C 
ATOM     16  C   UNL     1      -3.297   3.832 -25.513  0.00  0.00    +0.144 C 
ATOM     17 CL   UNL     1      -3.273   4.200 -26.705  0.00  0.00    -0.113 Cl
ATOM     18  C   UNL     1      -2.250   3.438 -24.952  0.00  0.00    +0.207 C 
ATOM     19  O   UNL     1      -0.770   3.171 -25.088  0.00  0.00    -0.482 OA
ATOM     20  C   UNL     1      -2.335   2.326 -21.338  0.00  0.00    +0.090 C 
ATOM     21  C   UNL     1      -0.142   2.648 -23.832  0.00  0.00    +0.167 A 
ENDROOT
BRANCH   1  23
ATOM     22  C   UNL     1       2.710   3.247 -23.967  0.00  0.00    +0.277 C 
ATOM     23  O   UNL     1       1.995   2.223 -23.904  0.00  0.00    -0.491 OA
ENDBRANCH   1  23
TORSDOF 1
ENDMDL
MODEL 2
REMARK VINA RESULT:   -10.811      2.040      3.005
REMARK INTER + INTRA:         -11.465
REMARK INTER:                 -11.347
REMARK INTRA:                  -0.118
REMARK UNBOUND:                -0.022
REMARK  Name = COc1ccc2c3c1O[C@@H]1[C@@H](Cl)C=C[C@@H]4[C@@H](C2)N(C)CC[C@]314      ZINC000253504155
REMARK  3 active torsions:
REMARK  status: ('A' for Active; 'I' for Inactive)
REMARK    1  A    between atoms: C_1  and  O_2
REMARK    2  A    between atoms: O_2  and  C_3
REMARK    3  A    between atoms: N_18  and  C_19
REMARK                            x       y       z     vdW  Elec       q    Type
REMARK                         _______ _______ _______ _____ _____    ______ ____
ROOT
ATOM      1  C   UNL     1       1.065   1.717 -22.196  0.00  0.00    +0.162 A 
ATOM      2  C   UNL     1       1.625   2.123 -23.254  0.00  0.00    +0.050 A 
ATOM      3  C   UNL     1       0.968   2.727 -24.128  0.00  0.00    +0.008 A 
ATOM      4  C   UNL     1      -0.254   2.932 -23.955  0.00  0.00    -0.034 A 
ATOM      5  C   UNL     1      -0.832   2.538 -22.910  0.00  0.00    +0.012 A 
ATOM      6  C   UNL     1      -2.051   2.745 -22.743  0.00  0.00    +0.054 C 
ATOM      7  C   UNL     1      -3.433   2.923 -22.441  0.00  0.00    +0.067 C 
ATOM      8  C   UNL     1      -4.200   3.600 -23.407  0.00  0.00    +0.132 C 
ATOM      9  N   UNL     1      -3.542   4.038 -24.574  0.00  0.00    +0.236 N 
ATOM     10  H   UNL     1      -4.049   4.534 -25.306  0.00  0.00    +0.203 HD
ATOM     11  C   UNL     1      -4.149   4.646 -25.480  0.00  0.00    +0.190 C 
ATOM     12  C   UNL     1      -2.150   3.753 -24.671  0.00  0.00    +0.076 C 
ATOM     13  C   UNL     1      -2.712   3.349 -23.615  0.00  0.00    +0.075 C 
ATOM     14  C   UNL     1      -3.947   3.558 -23.443  0.00  0.00    -0.020 C 
ATOM     15  C   UNL     1      -4.507   3.160 -22.400  0.00  0.00    -0.008 C 
ATOM     16  C   UNL     1      -3.850   2.549 -21.512  0.00  0.00    +0.144 C 
ATOM     17 CL   UNL     1      -4.414   2.153 -20.471  0.00  0.00    -0.113 Cl
ATOM     18  C   UNL     1      -2.628   2.344 -21.685  0.00  0.00    +0.207 C 
ATOM     19  O   UNL     1      -1.356   1.753 -21.126  0.00  0.00    -0.482 OA
ATOM     20  C   UNL     1      -0.929   3.547 -24.843  0.00  0.00    +0.090 C 
ATOM     21  C   UNL     1      -0.172   1.928 -22.026  0.00  0.00    +0.167 A 
ENDROOT
BRANCH   1  23
ATOM     22  C   UNL     1       2.873   1.510 -21.023  0.00  0.00    +0.277 C 
ATOM     23  O   UNL     1       1.725   1.114 -21.325  0.00  0.00    -0.491 OA
ENDBRANCH   1  23
TORSDOF 1
ENDMDL
MODEL 3
REMARK VINA RESULT:   -10.683      2.683      5.449
REMARK INTER + INTRA:         -11.330
REMARK INTER:                 -11.205
REMARK INTRA:                  -0.125
REMARK UNBOUND:                -0.022
REMARK  Name = COc1ccc2c3c1O[C@@H]1[C@@H](Cl)C=C[C@@H]4[C@@H](C2)N(C)CC[C@]314      ZINC000253504155
REMARK  3 active torsions:
REMARK  status: ('A' for Active; 'I' for Inactive)
REMARK    1  A    between atoms: C_1  and  O_2
REMARK    2  A    between atoms: O_2  and  C_3
REMARK    3  A    between atoms: N_18  and  C_19
REMARK                            x       y       z     vdW  Elec       q    Type
REMARK                         _______ _______ _______ _____ _____    ______ ____
ROOT
ATOM      1  C   UNL     1      -4.731   3.388 -22.471  0.00  0.00    +0.162 A 
ATOM      2  C   UNL     1      -5.033   3.872 -23.598  0.00  0.00    +0.050 A 
ATOM      3  C   UNL     1      -4.168   3.988 -24.491  0.00  0.00    +0.008 A 
ATOM      4  C   UNL     1      -2.992   3.623 -24.268  0.00  0.00    -0.034 A 
ATOM      5  C   UNL     1      -2.668   3.138 -23.153  0.00  0.00    +0.012 A 
ATOM      6  C   UNL     1      -1.495   2.775 -22.936  0.00  0.00    +0.054 C 
ATOM      7  C   UNL     1      -0.191   2.328 -22.572  0.00  0.00    +0.067 C 
ATOM      8  C   UNL     1       0.807   2.446 -23.558  0.00  0.00    +0.132 C 
ATOM      9  N   UNL     1       0.433   2.990 -24.803  0.00  0.00    +0.236 N 
ATOM     10  H   UNL     1       1.115   3.098 -25.553  0.00  0.00    +0.203 HD
ATOM     11  C   UNL     1       1.256   3.129 -25.731  0.00  0.00    +0.190 C 
ATOM     12  C   UNL     1      -0.930   3.374 -24.953  0.00  0.00    +0.076 C 
ATOM     13  C   UNL     1      -0.625   2.890 -23.827  0.00  0.00    +0.075 C 
ATOM     14  C   UNL     1       0.563   2.522 -23.605  0.00  0.00    -0.020 C 
ATOM     15  C   UNL     1       0.869   2.043 -22.492  0.00  0.00    -0.008 C 
ATOM     16  C   UNL     1       0.000   1.922 -21.585  0.00  0.00    +0.144 C 
ATOM     17 CL   UNL     1       0.310   1.443 -20.475  0.00  0.00    -0.113 Cl
ATOM     18  C   UNL     1      -1.175   2.287 -21.808  0.00  0.00    +0.207 C 
ATOM     19  O   UNL     1      -2.577   2.428 -21.266  0.00  0.00    -0.482 OA
ATOM     20  C   UNL     1      -2.105   3.738 -25.175  0.00  0.00    +0.090 C 
ATOM     21  C   UNL     1      -3.540   3.020 -22.250  0.00  0.00    +0.167 A 
ENDROOT
BRANCH   1  23
ATOM     22  C   UNL     1      -6.649   2.632 -21.809  0.00  0.00    +0.277 C 
ATOM     23  O   UNL     1      -5.599   3.273 -21.581  0.00  0.00    -0.491 OA
ENDBRANCH   1  23
TORSDOF 1
ENDMDL
MODEL 4
REMARK VINA RESULT:   -10.214      2.081      4.742
REMARK INTER + INTRA:         -10.833
REMARK INTER:                 -10.770
REMARK INTRA:                  -0.063
REMARK UNBOUND:                -0.022
REMARK  Name = COc1ccc2c3c1O[C@@H]1[C@@H](Cl)C=C[C@@H]4[C@@H](C2)N(C)CC[C@]314      ZINC000253504155
REMARK  3 active torsions:
REMARK  status: ('A' for Active; 'I' for Inactive)
REMARK    1  A    between atoms: C_1  and  O_2
REMARK    2  A    between atoms: O_2  and  C_3
REMARK    3  A    between atoms: N_18  and  C_19
REMARK                            x       y       z     vdW  Elec       q    Type
REMARK                         _______ _______ _______ _____ _____    ______ ____
ROOT
ATOM      1  C   UNL     1      -3.873   3.564 -23.170  0.00  0.00    +0.162 A 
ATOM      2  C   UNL     1      -4.132   2.973 -22.085  0.00  0.00    +0.050 A 
ATOM      3  C   UNL     1      -3.222   2.422 -21.430  0.00  0.00    +0.008 A 
ATOM      4  C   UNL     1      -2.045   2.456 -21.853  0.00  0.00    -0.034 A 
ATOM      5  C   UNL     1      -1.764   3.040 -22.931  0.00  0.00    +0.012 A 
ATOM      6  C   UNL     1      -0.589   3.071 -23.348  0.00  0.00    +0.054 C 
ATOM      7  C   UNL     1       0.711   3.173 -23.923  0.00  0.00    +0.067 C 
ATOM      8  C   UNL     1       1.759   2.561 -23.209  0.00  0.00    +0.132 C 
ATOM      9  N   UNL     1       1.433   1.911 -22.002  0.00  0.00    +0.236 N 
ATOM     10  H   UNL     1       2.153   1.452 -21.444  0.00  0.00    +0.203 HD
ATOM     11  C   UNL     1       2.303   1.344 -21.307  0.00  0.00    +0.190 C 
ATOM     12  C   UNL     1       0.064   1.930 -21.611  0.00  0.00    +0.076 C 
ATOM     13  C   UNL     1       0.325   2.521 -22.697  0.00  0.00    +0.075 C 
ATOM     14  C   UNL     1       1.516   2.554 -23.121  0.00  0.00    -0.020 C 
ATOM     15  C   UNL     1       1.778   3.137 -24.194  0.00  0.00    -0.008 C 
ATOM     16  C   UNL     1       0.864   3.696 -24.861  0.00  0.00    +0.144 C 
ATOM     17 CL   UNL     1       1.131   4.278 -25.932  0.00  0.00    -0.113 Cl
ATOM     18  C   UNL     1      -0.313   3.662 -24.438  0.00  0.00    +0.207 C 
ATOM     19  O   UNL     1      -1.750   4.061 -24.672  0.00  0.00    -0.482 OA
ATOM     20  C   UNL     1      -1.112   1.897 -21.190  0.00  0.00    +0.090 C 
ATOM     21  C   UNL     1      -2.681   3.597 -23.594  0.00  0.00    +0.167 A 
ENDROOT
BRANCH   1  23
ATOM     22  C   UNL     1      -5.025   3.749 -24.994  0.00  0.00    +0.277 C 
ATOM     23  O   UNL     1      -4.786   4.114 -23.822  0.00  0.00    -0.491 OA
ENDBRANCH   1  23
TORSDOF 1
ENDMDL
MODEL 5
REMARK VINA RESULT:    -9.783      1.440      2.202
REMARK INTER + INTRA:         -10.377
REMARK INTER:                 -10.238
REMARK INTRA:                  -0.139
REMARK UNBOUND:                -0.022
REMARK  Name = COc1ccc2c3c1O[C@@H]1[C@@H](Cl)C=C[C@@H]4[C@@H](C2)N(C)CC[C@]314      ZINC000253504155
REMARK  3 active torsions:
REMARK  status: ('A' for Active; 'I' for Inactive)
REMARK    1  A    between atoms: C_1  and  O_2
REMARK    2  A    between atoms: O_2  and  C_3
REMARK    3  A    between atoms: N_18  and  C_19
REMARK                            x       y       z     vdW  Elec       q    Type
REMARK                         _______ _______ _______ _____ _____    ______ ____
ROOT
ATOM      1  C   UNL     1       3.045   1.998 -23.096  0.00  0.00    +0.162 A 
ATOM      2  C   UNL     1       3.134   1.582 -21.907  0.00  0.00    +0.050 A 
ATOM      3  C   UNL     1       2.114   1.479 -21.193  0.00  0.00    +0.008 A 
ATOM      4  C   UNL     1       0.996   1.791 -21.660  0.00  0.00    -0.034 A 
ATOM      5  C   UNL     1       0.883   2.208 -22.841  0.00  0.00    +0.012 A 
ATOM      6  C   UNL     1      -0.234   2.517 -23.301  0.00  0.00    +0.054 C 
ATOM      7  C   UNL     1      -1.452   2.900 -23.935  0.00  0.00    +0.067 C 
ATOM      8  C   UNL     1      -2.620   2.795 -23.156  0.00  0.00    +0.132 C 
ATOM      9  N   UNL     1      -2.483   2.327 -21.834  0.00  0.00    +0.236 N 
ATOM     10  H   UNL     1      -3.296   2.231 -21.226  0.00  0.00    +0.203 HD
ATOM     11  C   UNL     1      -3.468   2.204 -21.076  0.00  0.00    +0.190 C 
ATOM     12  C   UNL     1      -1.166   2.000 -21.402  0.00  0.00    +0.076 C 
ATOM     13  C   UNL     1      -1.257   2.416 -22.591  0.00  0.00    +0.075 C 
ATOM     14  C   UNL     1      -2.389   2.730 -23.059  0.00  0.00    -0.020 C 
ATOM     15  C   UNL     1      -2.483   3.142 -24.234  0.00  0.00    -0.008 C 
ATOM     16  C   UNL     1      -1.457   3.249 -24.961  0.00  0.00    +0.144 C 
ATOM     17 CL   UNL     1      -1.557   3.662 -26.136  0.00  0.00    -0.113 Cl
ATOM     18  C   UNL     1      -0.339   2.937 -24.495  0.00  0.00    +0.207 C 
ATOM     19  O   UNL     1       1.145   2.820 -24.747  0.00  0.00    -0.482 OA
ATOM     20  C   UNL     1      -0.049   1.688 -20.937  0.00  0.00    +0.090 C 
ATOM     21  C   UNL     1       1.911   2.313 -23.564  0.00  0.00    +0.167 A 
ENDROOT
BRANCH   1  23
ATOM     22  C   UNL     1       4.868   3.042 -23.620  0.00  0.00    +0.277 C 
ATOM     23  O   UNL     1       4.067   2.099 -23.806  0.00  0.00    -0.491 OA
ENDBRANCH   1  23
TORSDOF 1
ENDMDL
MODEL 6
REMARK VINA RESULT:    -9.741      2.084      3.323
REMARK INTER + INTRA:         -10.333
REMARK INTER:                 -10.208
REMARK INTRA:                  -0.125
REMARK UNBOUND:                -0.022
REMARK  Name = COc1ccc2c3c1O[C@@H]1[C@@H](Cl)C=C[C@@H]4[C@@H](C2)N(C)CC[C@]314      ZINC000253504155
REMARK  3 active torsions:
REMARK  status: ('A' for Active; 'I' for Inactive)
REMARK    1  A    between atoms: C_1  and  O_2
REMARK    2  A    between atoms: O_2  and  C_3
REMARK    3  A    between atoms: N_18  and  C_19
REMARK                            x       y       z     vdW  Elec       q    Type
REMARK                         _______ _______ _______ _____ _____    ______ ____
ROOT
ATOM      1  C   UNL     1       2.174   2.034 -22.154  0.00  0.00    +0.162 A 
ATOM      2  C   UNL     1       2.798   2.231 -23.234  0.00  0.00    +0.050 A 
ATOM      3  C   UNL     1       2.185   2.563 -24.270  0.00  0.00    +0.008 A 
ATOM      4  C   UNL     1       0.942   2.703 -24.237  0.00  0.00    -0.034 A 
ATOM      5  C   UNL     1       0.299   2.513 -23.173  0.00  0.00    +0.012 A 
ATOM      6  C   UNL     1      -0.940   2.653 -23.146  0.00  0.00    +0.054 C 
ATOM      7  C   UNL     1      -2.351   2.783 -22.993  0.00  0.00    +0.067 C 
ATOM      8  C   UNL     1      -3.071   3.157 -24.144  0.00  0.00    +0.132 C 
ATOM      9  N   UNL     1      -2.341   3.367 -25.331  0.00  0.00    +0.236 N 
ATOM     10  H   UNL     1      -2.813   3.639 -26.193  0.00  0.00    +0.203 HD
ATOM     11  C   UNL     1      -2.903   3.701 -26.395  0.00  0.00    +0.190 C 
ATOM     12  C   UNL     1      -0.932   3.182 -25.260  0.00  0.00    +0.076 C 
ATOM     13  C   UNL     1      -1.558   2.986 -24.180  0.00  0.00    +0.075 C 
ATOM     14  C   UNL     1      -2.814   3.128 -24.151  0.00  0.00    -0.020 C 
ATOM     15  C   UNL     1      -3.437   2.935 -23.086  0.00  0.00    -0.008 C 
ATOM     16  C   UNL     1      -2.824   2.599 -22.035  0.00  0.00    +0.144 C 
ATOM     17 CL   UNL     1      -3.452   2.408 -20.973  0.00  0.00    -0.113 Cl
ATOM     18  C   UNL     1      -1.581   2.459 -22.068  0.00  0.00    +0.207 C 
ATOM     19  O   UNL     1      -0.330   2.117 -21.296  0.00  0.00    -0.482 OA
ATOM     20  C   UNL     1       0.310   3.042 -25.291  0.00  0.00    +0.090 C 
ATOM     21  C   UNL     1       0.916   2.177 -22.126  0.00  0.00    +0.167 A 
ENDROOT
BRANCH   1  23
ATOM     22  C   UNL     1       3.512   0.680 -21.124  0.00  0.00    +0.277 C 
ATOM     23  O   UNL     1       2.792   1.702 -21.120  0.00  0.00    -0.491 OA
ENDBRANCH   1  23
TORSDOF 1
ENDMDL
MODEL 7
REMARK VINA RESULT:    -9.675      3.214      6.329
REMARK INTER + INTRA:         -10.263
REMARK INTER:                 -10.143
REMARK INTRA:                  -0.120
REMARK UNBOUND:                -0.022
REMARK  Name = COc1ccc2c3c1O[C@@H]1[C@@H](Cl)C=C[C@@H]4[C@@H](C2)N(C)CC[C@]314      ZINC000253504155
REMARK  3 active torsions:
REMARK  status: ('A' for Active; 'I' for Inactive)
REMARK    1  A    between atoms: C_1  and  O_2
REMARK    2  A    between atoms: O_2  and  C_3
REMARK    3  A    between atoms: N_18  and  C_19
REMARK                            x       y       z     vdW  Elec       q    Type
REMARK                         _______ _______ _______ _____ _____    ______ ____
ROOT
ATOM      1  C   UNL     1      -1.538   3.353 -23.344  0.00  0.00    +0.162 A 
ATOM      2  C   UNL     1      -1.602   4.592 -23.582  0.00  0.00    +0.050 A 
ATOM      3  C   UNL     1      -0.565   5.289 -23.595  0.00  0.00    +0.008 A 
ATOM      4  C   UNL     1       0.544   4.756 -23.371  0.00  0.00    -0.034 A 
ATOM      5  C   UNL     1       0.631   3.525 -23.132  0.00  0.00    +0.012 A 
ATOM      6  C   UNL     1       1.740   2.998 -22.909  0.00  0.00    +0.054 C 
ATOM      7  C   UNL     1       2.946   2.287 -22.640  0.00  0.00    +0.067 C 
ATOM      8  C   UNL     1       4.132   3.046 -22.648  0.00  0.00    +0.132 C 
ATOM      9  N   UNL     1       4.023   4.425 -22.917  0.00  0.00    +0.236 N 
ATOM     10  H   UNL     1       4.850   5.021 -22.935  0.00  0.00    +0.203 HD
ATOM     11  C   UNL     1       5.025   5.169 -22.943  0.00  0.00    +0.190 C 
ATOM     12  C   UNL     1       2.714   4.931 -23.159  0.00  0.00    +0.076 C 
ATOM     13  C   UNL     1       2.780   3.692 -22.921  0.00  0.00    +0.075 C 
ATOM     14  C   UNL     1       3.902   3.157 -22.695  0.00  0.00    -0.020 C 
ATOM     15  C   UNL     1       3.972   1.932 -22.459  0.00  0.00    -0.008 C 
ATOM     16  C   UNL     1       2.929   1.221 -22.444  0.00  0.00    +0.144 C 
ATOM     17 CL   UNL     1       3.004  -0.002 -22.207  0.00  0.00    -0.113 Cl
ATOM     18  C   UNL     1       1.820   1.754 -22.668  0.00  0.00    +0.207 C 
ATOM     19  O   UNL     1       0.329   1.557 -22.799  0.00  0.00    -0.482 OA
ATOM     20  C   UNL     1       1.605   5.462 -23.383  0.00  0.00    +0.090 C 
ATOM     21  C   UNL     1      -0.413   2.818 -23.118  0.00  0.00    +0.167 A 
ENDROOT
BRANCH   1  23
ATOM     22  C   UNL     1      -3.592   3.064 -22.722  0.00  0.00    +0.277 C 
ATOM     23  O   UNL     1      -2.577   2.660 -23.332  0.00  0.00    -0.491 OA
ENDBRANCH   1  23
TORSDOF 1
ENDMDL
