MODEL 1
REMARK VINA RESULT:    -9.453      0.000      0.000
REMARK INTER + INTRA:         -10.005
REMARK INTER:                 -10.005
REMARK INTRA:                   0.000
REMARK UNBOUND:                 0.000
REMARK  Name = ZINC000005161554
REMARK  3 active torsions:
REMARK  status: ('A' for Active; 'I' for Inactive)
REMARK    1  A    between atoms: C_1  and  N_2
REMARK    2  A    between atoms: C_12  and  O_13
REMARK    3  A    between atoms: C_15  and  O_16
REMARK                            x       y       z     vdW  Elec       q    Type
REMARK                         _______ _______ _______ _____ _____    ______ ____
ROOT
ATOM      1  C   UNL     1      -3.418   4.220 -25.469  0.00  0.00    +0.149 C 
ATOM      2  N   UNL     1      -2.925   3.697 -24.386  0.00  0.00    -0.343 N 
ATOM      3  C   UNL     1      -3.706   3.416 -23.386  0.00  0.00    +0.053 A 
ATOM      4  C   UNL     1      -4.981   3.657 -23.469  0.00  0.00    +0.026 A 
ATOM      5  C   UNL     1      -5.763   3.376 -22.469  0.00  0.00    +0.002 A 
ATOM      6  C   UNL     1      -5.270   2.854 -21.386  0.00  0.00    +0.001 A 
ATOM      7  C   UNL     1      -3.996   2.612 -21.302  0.00  0.00    +0.014 A 
ATOM      8  C   UNL     1      -3.213   2.893 -22.302  0.00  0.00    +0.046 A 
ATOM      9  C   UNL     1      -1.939   2.652 -22.219  0.00  0.00    +0.201 A 
ATOM     10  C   UNL     1      -1.158   2.933 -23.219  0.00  0.00    +0.087 A 
ATOM     11  C   UNL     1       0.117   2.691 -23.135  0.00  0.00    +0.133 A 
ATOM     12  C   UNL     1       0.899   2.972 -24.135  0.00  0.00    +0.091 A 
ATOM     13  C   UNL     1       0.406   3.495 -25.219  0.00  0.00    +0.122 A 
ATOM     14  C   UNL     1      -0.869   3.736 -25.302  0.00  0.00    +0.072 A 
ATOM     15  O   UNL     1      -1.446   2.129 -21.135  0.00  0.00    -0.286 OA
ATOM     16  C   UNL     1      -1.650   3.455 -24.302  0.00  0.00    +0.060 A 
ENDROOT
BRANCH  13  17
ATOM     17  O   UNL     1       1.188   3.776 -26.219  0.00  0.00    -0.507 OA
ATOM     18  H   UNL     1       1.965   4.280 -26.078  0.00  0.00    +0.292 HD
ENDBRANCH  13  17
BRANCH  11  19
ATOM     19  O   UNL     1       0.610   2.168 -22.052  0.00  0.00    -0.506 OA
ATOM     20  H   UNL     1       0.534   2.623 -21.236  0.00  0.00    +0.292 HD
ENDBRANCH  11  19
TORSDOF 2
ENDMDL
MODEL 2
REMARK VINA RESULT:    -9.270      1.397      3.206
REMARK INTER + INTRA:          -9.812
REMARK INTER:                  -9.812
REMARK INTRA:                   0.000
REMARK UNBOUND:                 0.000
REMARK  Name = ZINC000005161554
REMARK  3 active torsions:
REMARK  status: ('A' for Active; 'I' for Inactive)
REMARK    1  A    between atoms: C_1  and  N_2
REMARK    2  A    between atoms: C_12  and  O_13
REMARK    3  A    between atoms: C_15  and  O_16
REMARK                            x       y       z     vdW  Elec       q    Type
REMARK                         _______ _______ _______ _____ _____    ______ ____
ROOT
ATOM      1  C   UNL     1      -3.246   2.464 -20.878  0.00  0.00    +0.149 C 
ATOM      2  N   UNL     1      -2.734   2.697 -22.050  0.00  0.00    -0.343 N 
ATOM      3  C   UNL     1      -3.475   3.190 -22.998  0.00  0.00    +0.053 A 
ATOM      4  C   UNL     1      -4.729   3.451 -22.773  0.00  0.00    +0.026 A 
ATOM      5  C   UNL     1      -5.470   3.944 -23.721  0.00  0.00    +0.002 A 
ATOM      6  C   UNL     1      -4.957   4.176 -24.893  0.00  0.00    +0.001 A 
ATOM      7  C   UNL     1      -3.704   3.915 -25.117  0.00  0.00    +0.014 A 
ATOM      8  C   UNL     1      -2.962   3.422 -24.170  0.00  0.00    +0.046 A 
ATOM      9  C   UNL     1      -1.709   3.161 -24.394  0.00  0.00    +0.201 A 
ATOM     10  C   UNL     1      -0.968   2.668 -23.447  0.00  0.00    +0.087 A 
ATOM     11  C   UNL     1       0.285   2.407 -23.672  0.00  0.00    +0.133 A 
ATOM     12  C   UNL     1       1.027   1.914 -22.724  0.00  0.00    +0.091 A 
ATOM     13  C   UNL     1       0.514   1.682 -21.552  0.00  0.00    +0.122 A 
ATOM     14  C   UNL     1      -0.740   1.943 -21.328  0.00  0.00    +0.072 A 
ATOM     15  O   UNL     1      -1.197   3.394 -25.566  0.00  0.00    -0.286 OA
ATOM     16  C   UNL     1      -1.481   2.436 -22.275  0.00  0.00    +0.060 A 
ENDROOT
BRANCH  13  17
ATOM     17  O   UNL     1       1.255   1.189 -20.605  0.00  0.00    -0.507 OA
ATOM     18  H   UNL     1       1.064   1.387 -19.709  0.00  0.00    +0.292 HD
ENDBRANCH  13  17
BRANCH  11  19
ATOM     19  O   UNL     1       0.798   2.639 -24.843  0.00  0.00    -0.506 OA
ATOM     20  H   UNL     1       0.652   3.464 -25.263  0.00  0.00    +0.292 HD
ENDBRANCH  11  19
TORSDOF 2
ENDMDL
MODEL 3
REMARK VINA RESULT:    -8.985      2.098      4.295
REMARK INTER + INTRA:          -9.510
REMARK INTER:                  -9.510
REMARK INTRA:                   0.000
REMARK UNBOUND:                 0.000
REMARK  Name = ZINC000005161554
REMARK  3 active torsions:
REMARK  status: ('A' for Active; 'I' for Inactive)
REMARK    1  A    between atoms: C_1  and  N_2
REMARK    2  A    between atoms: C_12  and  O_13
REMARK    3  A    between atoms: C_15  and  O_16
REMARK                            x       y       z     vdW  Elec       q    Type
REMARK                         _______ _______ _______ _____ _____    ______ ____
ROOT
ATOM      1  C   UNL     1      -0.674   3.430 -25.286  0.00  0.00    +0.149 C 
ATOM      2  N   UNL     1      -1.283   3.138 -24.175  0.00  0.00    -0.343 N 
ATOM      3  C   UNL     1      -0.619   2.613 -23.188  0.00  0.00    +0.053 A 
ATOM      4  C   UNL     1       0.655   2.381 -23.312  0.00  0.00    +0.026 A 
ATOM      5  C   UNL     1       1.319   1.857 -22.326  0.00  0.00    +0.002 A 
ATOM      6  C   UNL     1       0.711   1.565 -21.215  0.00  0.00    +0.001 A 
ATOM      7  C   UNL     1      -0.562   1.796 -21.090  0.00  0.00    +0.014 A 
ATOM      8  C   UNL     1      -1.227   2.321 -22.077  0.00  0.00    +0.046 A 
ATOM      9  C   UNL     1      -2.500   2.553 -21.953  0.00  0.00    +0.201 A 
ATOM     10  C   UNL     1      -3.164   3.077 -22.940  0.00  0.00    +0.087 A 
ATOM     11  C   UNL     1      -4.437   3.309 -22.815  0.00  0.00    +0.133 A 
ATOM     12  C   UNL     1      -5.102   3.833 -23.802  0.00  0.00    +0.091 A 
ATOM     13  C   UNL     1      -4.493   4.126 -24.913  0.00  0.00    +0.122 A 
ATOM     14  C   UNL     1      -3.220   3.894 -25.037  0.00  0.00    +0.072 A 
ATOM     15  O   UNL     1      -3.108   2.260 -20.842  0.00  0.00    -0.286 OA
ATOM     16  C   UNL     1      -2.556   3.369 -24.051  0.00  0.00    +0.060 A 
ENDROOT
BRANCH  13  17
ATOM     17  O   UNL     1      -5.158   4.650 -25.900  0.00  0.00    -0.507 OA
ATOM     18  H   UNL     1      -5.682   5.414 -25.758  0.00  0.00    +0.292 HD
ENDBRANCH  13  17
BRANCH  11  19
ATOM     19  O   UNL     1      -5.046   3.017 -21.705  0.00  0.00    -0.506 OA
ATOM     20  H   UNL     1      -4.549   2.798 -20.942  0.00  0.00    +0.292 HD
ENDBRANCH  11  19
TORSDOF 2
ENDMDL
MODEL 4
REMARK VINA RESULT:    -8.783      2.141      5.336
REMARK INTER + INTRA:          -9.296
REMARK INTER:                  -9.296
REMARK INTRA:                   0.000
REMARK UNBOUND:                 0.000
REMARK  Name = ZINC000005161554
REMARK  3 active torsions:
REMARK  status: ('A' for Active; 'I' for Inactive)
REMARK    1  A    between atoms: C_1  and  N_2
REMARK    2  A    between atoms: C_12  and  O_13
REMARK    3  A    between atoms: C_15  and  O_16
REMARK                            x       y       z     vdW  Elec       q    Type
REMARK                         _______ _______ _______ _____ _____    ______ ____
ROOT
ATOM      1  C   UNL     1      -1.521   2.424 -21.407  0.00  0.00    +0.149 C 
ATOM      2  N   UNL     1      -1.712   2.822 -22.629  0.00  0.00    -0.343 N 
ATOM      3  C   UNL     1      -0.710   2.889 -23.455  0.00  0.00    +0.053 A 
ATOM      4  C   UNL     1       0.483   2.557 -23.057  0.00  0.00    +0.026 A 
ATOM      5  C   UNL     1       1.485   2.624 -23.883  0.00  0.00    +0.002 A 
ATOM      6  C   UNL     1       1.295   3.022 -25.105  0.00  0.00    +0.001 A 
ATOM      7  C   UNL     1       0.103   3.353 -25.503  0.00  0.00    +0.014 A 
ATOM      8  C   UNL     1      -0.900   3.287 -24.677  0.00  0.00    +0.046 A 
ATOM      9  C   UNL     1      -2.092   3.618 -25.075  0.00  0.00    +0.201 A 
ATOM     10  C   UNL     1      -3.094   3.552 -24.250  0.00  0.00    +0.087 A 
ATOM     11  C   UNL     1      -4.286   3.883 -24.647  0.00  0.00    +0.133 A 
ATOM     12  C   UNL     1      -5.289   3.816 -23.822  0.00  0.00    +0.091 A 
ATOM     13  C   UNL     1      -5.099   3.418 -22.599  0.00  0.00    +0.122 A 
ATOM     14  C   UNL     1      -3.906   3.087 -22.202  0.00  0.00    +0.072 A 
ATOM     15  O   UNL     1      -2.282   4.016 -26.298  0.00  0.00    -0.286 OA
ATOM     16  C   UNL     1      -2.904   3.153 -23.027  0.00  0.00    +0.060 A 
ENDROOT
BRANCH  13  17
ATOM     17  O   UNL     1      -6.101   3.352 -21.774  0.00  0.00    -0.507 OA
ATOM     18  H   UNL     1      -6.969   3.222 -22.101  0.00  0.00    +0.292 HD
ENDBRANCH  13  17
BRANCH  11  19
ATOM     19  O   UNL     1      -4.477   4.281 -25.870  0.00  0.00    -0.506 OA
ATOM     20  H   UNL     1      -4.490   5.197 -26.067  0.00  0.00    +0.292 HD
ENDBRANCH  11  19
TORSDOF 2
ENDMDL
MODEL 5
REMARK VINA RESULT:    -8.609      2.211      3.224
REMARK INTER + INTRA:          -9.113
REMARK INTER:                  -9.113
REMARK INTRA:                   0.000
REMARK UNBOUND:                 0.000
REMARK  Name = ZINC000005161554
REMARK  3 active torsions:
REMARK  status: ('A' for Active; 'I' for Inactive)
REMARK    1  A    between atoms: C_1  and  N_2
REMARK    2  A    between atoms: C_12  and  O_13
REMARK    3  A    between atoms: C_15  and  O_16
REMARK                            x       y       z     vdW  Elec       q    Type
REMARK                         _______ _______ _______ _____ _____    ______ ____
ROOT
ATOM      1  C   UNL     1       0.483   3.637 -25.161  0.00  0.00    +0.149 C 
ATOM      2  N   UNL     1       0.467   3.037 -24.008  0.00  0.00    -0.343 N 
ATOM      3  C   UNL     1      -0.652   2.903 -23.360  0.00  0.00    +0.053 A 
ATOM      4  C   UNL     1      -1.755   3.370 -23.865  0.00  0.00    +0.026 A 
ATOM      5  C   UNL     1      -2.874   3.236 -23.217  0.00  0.00    +0.002 A 
ATOM      6  C   UNL     1      -2.890   2.636 -22.064  0.00  0.00    +0.001 A 
ATOM      7  C   UNL     1      -1.787   2.169 -21.559  0.00  0.00    +0.014 A 
ATOM      8  C   UNL     1      -0.668   2.303 -22.207  0.00  0.00    +0.046 A 
ATOM      9  C   UNL     1       0.435   1.836 -21.702  0.00  0.00    +0.201 A 
ATOM     10  C   UNL     1       1.554   1.970 -22.350  0.00  0.00    +0.087 A 
ATOM     11  C   UNL     1       2.657   1.503 -21.845  0.00  0.00    +0.133 A 
ATOM     12  C   UNL     1       3.777   1.637 -22.493  0.00  0.00    +0.091 A 
ATOM     13  C   UNL     1       3.793   2.237 -23.646  0.00  0.00    +0.122 A 
ATOM     14  C   UNL     1       2.689   2.704 -24.151  0.00  0.00    +0.072 A 
ATOM     15  O   UNL     1       0.419   1.236 -20.549  0.00  0.00    -0.286 OA
ATOM     16  C   UNL     1       1.570   2.570 -23.503  0.00  0.00    +0.060 A 
ENDROOT
BRANCH  13  17
ATOM     17  O   UNL     1       4.911   2.371 -24.294  0.00  0.00    -0.507 OA
ATOM     18  H   UNL     1       5.048   1.903 -25.094  0.00  0.00    +0.292 HD
ENDBRANCH  13  17
BRANCH  11  19
ATOM     19  O   UNL     1       2.642   0.903 -20.692  0.00  0.00    -0.506 OA
ATOM     20  H   UNL     1       1.825   0.692 -20.285  0.00  0.00    +0.292 HD
ENDBRANCH  11  19
TORSDOF 2
ENDMDL
MODEL 6
REMARK VINA RESULT:    -8.595      0.946      1.117
REMARK INTER + INTRA:          -9.098
REMARK INTER:                  -9.098
REMARK INTRA:                   0.000
REMARK UNBOUND:                 0.000
REMARK  Name = ZINC000005161554
REMARK  3 active torsions:
REMARK  status: ('A' for Active; 'I' for Inactive)
REMARK    1  A    between atoms: C_1  and  N_2
REMARK    2  A    between atoms: C_12  and  O_13
REMARK    3  A    between atoms: C_15  and  O_16
REMARK                            x       y       z     vdW  Elec       q    Type
REMARK                         _______ _______ _______ _____ _____    ______ ____
ROOT
ATOM      1  C   UNL     1      -2.305   3.720 -25.805  0.00  0.00    +0.149 C 
ATOM      2  N   UNL     1      -2.279   3.356 -24.557  0.00  0.00    -0.343 N 
ATOM      3  C   UNL     1      -3.366   3.391 -23.847  0.00  0.00    +0.053 A 
ATOM      4  C   UNL     1      -4.481   3.791 -24.384  0.00  0.00    +0.026 A 
ATOM      5  C   UNL     1      -5.569   3.827 -23.673  0.00  0.00    +0.002 A 
ATOM      6  C   UNL     1      -5.543   3.463 -22.425  0.00  0.00    +0.001 A 
ATOM      7  C   UNL     1      -4.429   3.063 -21.888  0.00  0.00    +0.014 A 
ATOM      8  C   UNL     1      -3.340   3.027 -22.599  0.00  0.00    +0.046 A 
ATOM      9  C   UNL     1      -2.226   2.628 -22.062  0.00  0.00    +0.201 A 
ATOM     10  C   UNL     1      -1.139   2.592 -22.772  0.00  0.00    +0.087 A 
ATOM     11  C   UNL     1      -0.025   2.193 -22.235  0.00  0.00    +0.133 A 
ATOM     12  C   UNL     1       1.064   2.157 -22.945  0.00  0.00    +0.091 A 
ATOM     13  C   UNL     1       1.038   2.521 -24.193  0.00  0.00    +0.122 A 
ATOM     14  C   UNL     1      -0.077   2.921 -24.730  0.00  0.00    +0.072 A 
ATOM     15  O   UNL     1      -2.200   2.264 -20.814  0.00  0.00    -0.286 OA
ATOM     16  C   UNL     1      -1.165   2.956 -24.020  0.00  0.00    +0.060 A 
ENDROOT
BRANCH  13  17
ATOM     17  O   UNL     1       2.126   2.486 -24.903  0.00  0.00    -0.507 OA
ATOM     18  H   UNL     1       2.363   3.221 -25.434  0.00  0.00    +0.292 HD
ENDBRANCH  13  17
BRANCH  11  19
ATOM     19  O   UNL     1       0.002   1.829 -20.987  0.00  0.00    -0.506 OA
ATOM     20  H   UNL     1      -0.112   0.927 -20.760  0.00  0.00    +0.292 HD
ENDBRANCH  11  19
TORSDOF 2
ENDMDL
MODEL 7
REMARK VINA RESULT:    -8.416      2.735      3.951
REMARK INTER + INTRA:          -8.908
REMARK INTER:                  -8.908
REMARK INTRA:                   0.000
REMARK UNBOUND:                 0.000
REMARK  Name = ZINC000005161554
REMARK  3 active torsions:
REMARK  status: ('A' for Active; 'I' for Inactive)
REMARK    1  A    between atoms: C_1  and  N_2
REMARK    2  A    between atoms: C_12  and  O_13
REMARK    3  A    between atoms: C_15  and  O_16
REMARK                            x       y       z     vdW  Elec       q    Type
REMARK                         _______ _______ _______ _____ _____    ______ ____
ROOT
ATOM      1  C   UNL     1       1.791   5.298 -23.633  0.00  0.00    +0.149 C 
ATOM      2  N   UNL     1       1.468   4.089 -23.281  0.00  0.00    -0.343 N 
ATOM      3  C   UNL     1       0.260   3.830 -22.878  0.00  0.00    +0.053 A 
ATOM      4  C   UNL     1      -0.627   4.780 -22.828  0.00  0.00    +0.026 A 
ATOM      5  C   UNL     1      -1.835   4.520 -22.426  0.00  0.00    +0.002 A 
ATOM      6  C   UNL     1      -2.158   3.311 -22.073  0.00  0.00    +0.001 A 
ATOM      7  C   UNL     1      -1.272   2.362 -22.123  0.00  0.00    +0.014 A 
ATOM      8  C   UNL     1      -0.063   2.621 -22.525  0.00  0.00    +0.046 A 
ATOM      9  C   UNL     1       0.823   1.671 -22.575  0.00  0.00    +0.201 A 
ATOM     10  C   UNL     1       2.032   1.930 -22.977  0.00  0.00    +0.087 A 
ATOM     11  C   UNL     1       2.918   0.981 -23.027  0.00  0.00    +0.133 A 
ATOM     12  C   UNL     1       4.127   1.240 -23.429  0.00  0.00    +0.091 A 
ATOM     13  C   UNL     1       4.449   2.449 -23.782  0.00  0.00    +0.122 A 
ATOM     14  C   UNL     1       3.563   3.399 -23.732  0.00  0.00    +0.072 A 
ATOM     15  O   UNL     1       0.501   0.462 -22.222  0.00  0.00    -0.286 OA
ATOM     16  C   UNL     1       2.354   3.139 -23.330  0.00  0.00    +0.060 A 
ENDROOT
BRANCH  13  17
ATOM     17  O   UNL     1       5.658   2.708 -24.185  0.00  0.00    -0.507 OA
ATOM     18  H   UNL     1       5.800   3.330 -24.871  0.00  0.00    +0.292 HD
ENDBRANCH  13  17
BRANCH  11  19
ATOM     19  O   UNL     1       2.596  -0.228 -22.674  0.00  0.00    -0.506 OA
ATOM     20  H   UNL     1       2.515  -0.445 -21.766  0.00  0.00    +0.292 HD
ENDBRANCH  11  19
TORSDOF 2
ENDMDL
MODEL 8
REMARK VINA RESULT:    -8.031      2.207      4.953
REMARK INTER + INTRA:          -8.500
REMARK INTER:                  -8.500
REMARK INTRA:                   0.000
REMARK UNBOUND:                 0.000
REMARK  Name = ZINC000005161554
REMARK  3 active torsions:
REMARK  status: ('A' for Active; 'I' for Inactive)
REMARK    1  A    between atoms: C_1  and  N_2
REMARK    2  A    between atoms: C_12  and  O_13
REMARK    3  A    between atoms: C_15  and  O_16
REMARK                            x       y       z     vdW  Elec       q    Type
REMARK                         _______ _______ _______ _____ _____    ______ ____
ROOT
ATOM      1  C   UNL     1       1.181   3.736 -25.499  0.00  0.00    +0.149 C 
ATOM      2  N   UNL     1       0.814   3.086 -24.435  0.00  0.00    -0.343 N 
ATOM      3  C   UNL     1       1.668   2.336 -23.804  0.00  0.00    +0.053 A 
ATOM      4  C   UNL     1       2.890   2.236 -24.237  0.00  0.00    +0.026 A 
ATOM      5  C   UNL     1       3.744   1.486 -23.606  0.00  0.00    +0.002 A 
ATOM      6  C   UNL     1       3.376   0.836 -22.543  0.00  0.00    +0.001 A 
ATOM      7  C   UNL     1       2.155   0.935 -22.110  0.00  0.00    +0.014 A 
ATOM      8  C   UNL     1       1.300   1.685 -22.741  0.00  0.00    +0.046 A 
ATOM      9  C   UNL     1       0.079   1.785 -22.308  0.00  0.00    +0.201 A 
ATOM     10  C   UNL     1      -0.775   2.535 -22.938  0.00  0.00    +0.087 A 
ATOM     11  C   UNL     1      -1.997   2.634 -22.505  0.00  0.00    +0.133 A 
ATOM     12  C   UNL     1      -2.851   3.385 -23.136  0.00  0.00    +0.091 A 
ATOM     13  C   UNL     1      -2.484   4.035 -24.200  0.00  0.00    +0.122 A 
ATOM     14  C   UNL     1      -1.261   3.935 -24.633  0.00  0.00    +0.072 A 
ATOM     15  O   UNL     1      -0.289   1.134 -21.244  0.00  0.00    -0.286 OA
ATOM     16  C   UNL     1      -0.408   3.185 -24.002  0.00  0.00    +0.060 A 
ENDROOT
BRANCH  13  17
ATOM     17  O   UNL     1      -3.338   4.785 -24.831  0.00  0.00    -0.507 OA
ATOM     18  H   UNL     1      -3.494   4.650 -25.745  0.00  0.00    +0.292 HD
ENDBRANCH  13  17
BRANCH  11  19
ATOM     19  O   UNL     1      -2.365   1.984 -21.442  0.00  0.00    -0.506 OA
ATOM     20  H   UNL     1      -2.096   1.095 -21.320  0.00  0.00    +0.292 HD
ENDBRANCH  11  19
TORSDOF 2
ENDMDL
MODEL 9
REMARK VINA RESULT:    -7.692      2.879      6.160
REMARK INTER + INTRA:          -8.142
REMARK INTER:                  -8.142
REMARK INTRA:                   0.000
REMARK UNBOUND:                 0.000
REMARK  Name = ZINC000005161554
REMARK  3 active torsions:
REMARK  status: ('A' for Active; 'I' for Inactive)
REMARK    1  A    between atoms: C_1  and  N_2
REMARK    2  A    between atoms: C_12  and  O_13
REMARK    3  A    between atoms: C_15  and  O_16
REMARK                            x       y       z     vdW  Elec       q    Type
REMARK                         _______ _______ _______ _____ _____    ______ ____
ROOT
ATOM      1  C   UNL     1       1.493   0.864 -22.123  0.00  0.00    +0.149 C 
ATOM      2  N   UNL     1       1.578   2.105 -22.501  0.00  0.00    -0.343 N 
ATOM      3  C   UNL     1       2.742   2.636 -22.732  0.00  0.00    +0.053 A 
ATOM      4  C   UNL     1       3.821   1.926 -22.585  0.00  0.00    +0.026 A 
ATOM      5  C   UNL     1       4.985   2.457 -22.816  0.00  0.00    +0.002 A 
ATOM      6  C   UNL     1       5.070   3.698 -23.193  0.00  0.00    +0.001 A 
ATOM      7  C   UNL     1       3.992   4.408 -23.340  0.00  0.00    +0.014 A 
ATOM      8  C   UNL     1       2.827   3.877 -23.109  0.00  0.00    +0.046 A 
ATOM      9  C   UNL     1       1.749   4.587 -23.256  0.00  0.00    +0.201 A 
ATOM     10  C   UNL     1       0.585   4.057 -23.025  0.00  0.00    +0.087 A 
ATOM     11  C   UNL     1      -0.494   4.767 -23.172  0.00  0.00    +0.133 A 
ATOM     12  C   UNL     1      -1.658   4.236 -22.941  0.00  0.00    +0.091 A 
ATOM     13  C   UNL     1      -1.744   2.995 -22.564  0.00  0.00    +0.122 A 
ATOM     14  C   UNL     1      -0.664   2.285 -22.417  0.00  0.00    +0.072 A 
ATOM     15  O   UNL     1       1.834   5.828 -23.634  0.00  0.00    -0.286 OA
ATOM     16  C   UNL     1       0.500   2.815 -22.648  0.00  0.00    +0.060 A 
ENDROOT
BRANCH  13  17
ATOM     17  O   UNL     1      -2.908   2.464 -22.333  0.00  0.00    -0.507 OA
ATOM     18  H   UNL     1      -3.453   2.808 -21.653  0.00  0.00    +0.292 HD
ENDBRANCH  13  17
BRANCH  11  19
ATOM     19  O   UNL     1      -0.409   6.008 -23.549  0.00  0.00    -0.506 OA
ATOM     20  H   UNL     1      -1.102   6.393 -24.050  0.00  0.00    +0.292 HD
ENDBRANCH  11  19
TORSDOF 2
ENDMDL
