MODEL 1
REMARK VINA RESULT:   -10.240      0.000      0.000
REMARK INTER + INTRA:          -9.664
REMARK INTER:                 -11.628
REMARK INTRA:                   1.964
REMARK UNBOUND:                 2.072
REMARK  Name = ZINC000005037439
REMARK  3 active torsions:
REMARK  status: ('A' for Active; 'I' for Inactive)
REMARK    1  A    between atoms: O_1  and  C_2
REMARK    2  A    between atoms: C_5  and  C_6
REMARK    3  A    between atoms: C_18  and  C_19
REMARK                            x       y       z     vdW  Elec       q    Type
REMARK                         _______ _______ _______ _____ _____    ______ ____
ROOT
ATOM      1  C   UNL     1       0.377   3.097 -23.206  0.00  0.00    +0.127 C 
ATOM      2  C   UNL     1       0.468   1.808 -23.066  0.00  0.00    +0.198 C 
ATOM      3  O   UNL     1       1.720   1.510 -22.886  0.00  0.00    -0.369 OA
ATOM      4  C   UNL     1       2.404   2.615 -22.914  0.00  0.00    +0.157 C 
ATOM      5  C   UNL     1      -0.453   4.078 -23.404  0.00  0.00    +0.183 C 
ATOM      6  O   UNL     1       0.231   5.183 -23.433  0.00  0.00    -0.369 OA
ATOM      7  C   UNL     1       1.483   4.885 -23.252  0.00  0.00    +0.170 C 
ATOM      8  C   UNL     1       1.574   3.596 -23.112  0.00  0.00    +0.085 C 
ENDROOT
BRANCH   4   9
ATOM      9  C   UNL     1       3.691   2.721 -22.770  0.00  0.00    -0.015 A 
ATOM     10  C   UNL     1       4.246   2.419 -21.634  0.00  0.00    +0.010 A 
ATOM     11  C   UNL     1       5.533   2.525 -21.489  0.00  0.00    +0.050 A 
ATOM     12  C   UNL     1       6.266   2.933 -22.482  0.00  0.00    +0.166 A 
ATOM     13  C   UNL     1       5.713   3.235 -23.619  0.00  0.00    +0.167 A 
ATOM     14  O   UNL     1       6.652   3.611 -24.436  0.00  0.00    -0.453 OA
ATOM     15  C   UNL     1       7.786   3.541 -23.804  0.00  0.00    +0.466 C 
ATOM     16  O   UNL     1       7.548   3.122 -22.595  0.00  0.00    -0.453 OA
ATOM     17  C   UNL     1       4.426   3.129 -23.763  0.00  0.00    +0.055 A 
ENDBRANCH   4   9
BRANCH   5  18
ATOM     18  C   UNL     1      -1.740   3.972 -23.548  0.00  0.00    -0.012 A 
ATOM     19  C   UNL     1      -2.275   4.096 -24.726  0.00  0.00    +0.010 A 
ATOM     20  C   UNL     1      -3.562   3.990 -24.871  0.00  0.00    +0.050 A 
ATOM     21  C   UNL     1      -4.315   3.760 -23.837  0.00  0.00    +0.166 A 
ATOM     22  C   UNL     1      -3.781   3.636 -22.659  0.00  0.00    +0.167 A 
ATOM     23  O   UNL     1      -4.737   3.413 -21.805  0.00  0.00    -0.453 OA
ATOM     24  C   UNL     1      -5.861   3.399 -22.457  0.00  0.00    +0.466 C 
ATOM     25  O   UNL     1      -5.601   3.614 -23.713  0.00  0.00    -0.453 OA
ATOM     26  C   UNL     1      -2.494   3.742 -22.513  0.00  0.00    +0.055 A 
ENDBRANCH   5  18
BRANCH   1  27
ATOM     27  O   UNL     1      -0.820   2.598 -23.300  0.00  0.00    -0.383 OA
ATOM     28  H   UNL     1      -0.830   1.709 -22.916  0.00  0.00    +0.210 HD
ENDBRANCH   1  27
TORSDOF 3
ENDMDL
MODEL 2
REMARK VINA RESULT:   -10.185      0.547      8.537
REMARK INTER + INTRA:          -9.601
REMARK INTER:                 -11.642
REMARK INTRA:                   2.041
REMARK UNBOUND:                 2.072
REMARK  Name = ZINC000005037439
REMARK  3 active torsions:
REMARK  status: ('A' for Active; 'I' for Inactive)
REMARK    1  A    between atoms: O_1  and  C_2
REMARK    2  A    between atoms: C_5  and  C_6
REMARK    3  A    between atoms: C_18  and  C_19
REMARK                            x       y       z     vdW  Elec       q    Type
REMARK                         _______ _______ _______ _____ _____    ______ ____
ROOT
ATOM      1  C   UNL     1       1.493   3.583 -23.034  0.00  0.00    +0.127 C 
ATOM      2  C   UNL     1       1.400   4.875 -23.144  0.00  0.00    +0.198 C 
ATOM      3  O   UNL     1       0.146   5.176 -23.301  0.00  0.00    -0.369 OA
ATOM      4  C   UNL     1      -0.538   4.071 -23.289  0.00  0.00    +0.157 C 
ATOM      5  C   UNL     1       2.326   2.598 -22.869  0.00  0.00    +0.183 C 
ATOM      6  O   UNL     1       1.642   1.493 -22.857  0.00  0.00    -0.369 OA
ATOM      7  C   UNL     1       0.388   1.794 -23.015  0.00  0.00    +0.170 C 
ATOM      8  C   UNL     1       0.295   3.086 -23.124  0.00  0.00    +0.085 C 
ENDROOT
BRANCH   4   9
ATOM      9  C   UNL     1      -1.827   3.967 -23.419  0.00  0.00    -0.015 A 
ATOM     10  C   UNL     1      -2.384   4.191 -24.572  0.00  0.00    +0.010 A 
ATOM     11  C   UNL     1      -3.673   4.088 -24.702  0.00  0.00    +0.050 A 
ATOM     12  C   UNL     1      -4.405   3.760 -23.679  0.00  0.00    +0.166 A 
ATOM     13  C   UNL     1      -3.849   3.536 -22.526  0.00  0.00    +0.167 A 
ATOM     14  O   UNL     1      -4.787   3.230 -21.679  0.00  0.00    -0.453 OA
ATOM     15  C   UNL     1      -5.923   3.265 -22.309  0.00  0.00    +0.466 C 
ATOM     16  O   UNL     1      -5.688   3.593 -23.546  0.00  0.00    -0.453 OA
ATOM     17  C   UNL     1      -2.559   3.639 -22.395  0.00  0.00    +0.055 A 
ENDBRANCH   4   9
BRANCH   5  18
ATOM     18  C   UNL     1       3.615   2.702 -22.740  0.00  0.00    -0.012 A 
ATOM     19  C   UNL     1       4.174   2.456 -21.592  0.00  0.00    +0.010 A 
ATOM     20  C   UNL     1       5.463   2.560 -21.462  0.00  0.00    +0.050 A 
ATOM     21  C   UNL     1       6.193   2.909 -22.479  0.00  0.00    +0.166 A 
ATOM     22  C   UNL     1       5.635   3.155 -23.626  0.00  0.00    +0.167 A 
ATOM     23  O   UNL     1       6.570   3.480 -24.469  0.00  0.00    -0.453 OA
ATOM     24  C   UNL     1       7.708   3.435 -23.841  0.00  0.00    +0.466 C 
ATOM     25  O   UNL     1       7.475   3.082 -22.611  0.00  0.00    -0.453 OA
ATOM     26  C   UNL     1       4.345   3.052 -23.758  0.00  0.00    +0.055 A 
ENDBRANCH   5  18
BRANCH   1  27
ATOM     27  O   UNL     1       2.691   4.080 -22.944  0.00  0.00    -0.383 OA
ATOM     28  H   UNL     1       2.785   4.546 -22.099  0.00  0.00    +0.210 HD
ENDBRANCH   1  27
TORSDOF 3
ENDMDL
MODEL 3
REMARK VINA RESULT:   -10.129      1.160      1.829
REMARK INTER + INTRA:          -9.537
REMARK INTER:                 -11.880
REMARK INTRA:                   2.343
REMARK UNBOUND:                 2.072
REMARK  Name = ZINC000005037439
REMARK  3 active torsions:
REMARK  status: ('A' for Active; 'I' for Inactive)
REMARK    1  A    between atoms: O_1  and  C_2
REMARK    2  A    between atoms: C_5  and  C_6
REMARK    3  A    between atoms: C_18  and  C_19
REMARK                            x       y       z     vdW  Elec       q    Type
REMARK                         _______ _______ _______ _____ _____    ______ ____
ROOT
ATOM      1  C   UNL     1       0.477   3.958 -23.400  0.00  0.00    +0.127 C 
ATOM      2  C   UNL     1       0.652   5.237 -23.251  0.00  0.00    +0.198 C 
ATOM      3  O   UNL     1       1.930   5.461 -23.169  0.00  0.00    -0.369 OA
ATOM      4  C   UNL     1       2.545   4.321 -23.266  0.00  0.00    +0.157 C 
ATOM      5  C   UNL     1      -0.421   3.028 -23.543  0.00  0.00    +0.183 C 
ATOM      6  O   UNL     1       0.195   1.888 -23.640  0.00  0.00    -0.369 OA
ATOM      7  C   UNL     1       1.472   2.112 -23.558  0.00  0.00    +0.170 C 
ATOM      8  C   UNL     1       1.648   3.392 -23.409  0.00  0.00    +0.085 C 
ENDROOT
BRANCH   4   9
ATOM      9  C   UNL     1       3.831   4.141 -23.227  0.00  0.00    -0.015 A 
ATOM     10  C   UNL     1       4.339   2.998 -23.583  0.00  0.00    +0.010 A 
ATOM     11  C   UNL     1       5.625   2.817 -23.544  0.00  0.00    +0.050 A 
ATOM     12  C   UNL     1       6.405   3.780 -23.150  0.00  0.00    +0.166 A 
ATOM     13  C   UNL     1       5.899   4.923 -22.794  0.00  0.00    +0.167 A 
ATOM     14  O   UNL     1       6.877   5.705 -22.447  0.00  0.00    -0.453 OA
ATOM     15  C   UNL     1       7.988   5.046 -22.588  0.00  0.00    +0.466 C 
ATOM     16  O   UNL     1       7.697   3.855 -23.023  0.00  0.00    -0.453 OA
ATOM     17  C   UNL     1       4.612   5.104 -22.833  0.00  0.00    +0.055 A 
ENDBRANCH   4   9
BRANCH   5  18
ATOM     18  C   UNL     1      -1.707   3.209 -23.582  0.00  0.00    -0.012 A 
ATOM     19  C   UNL     1      -2.274   3.618 -24.678  0.00  0.00    +0.010 A 
ATOM     20  C   UNL     1      -3.560   3.799 -24.717  0.00  0.00    +0.050 A 
ATOM     21  C   UNL     1      -4.280   3.570 -23.659  0.00  0.00    +0.166 A 
ATOM     22  C   UNL     1      -3.715   3.161 -22.564  0.00  0.00    +0.167 A 
ATOM     23  O   UNL     1      -4.643   3.007 -21.665  0.00  0.00    -0.453 OA
ATOM     24  C   UNL     1      -5.781   3.322 -22.206  0.00  0.00    +0.466 C 
ATOM     25  O   UNL     1      -5.558   3.670 -23.439  0.00  0.00    -0.453 OA
ATOM     26  C   UNL     1      -2.428   2.980 -22.523  0.00  0.00    +0.055 A 
ENDBRANCH   5  18
BRANCH   1  27
ATOM     27  O   UNL     1      -0.693   4.524 -23.391  0.00  0.00    -0.383 OA
ATOM     28  H   UNL     1      -0.640   5.383 -23.838  0.00  0.00    +0.210 HD
ENDBRANCH   1  27
TORSDOF 3
ENDMDL
MODEL 4
REMARK VINA RESULT:    -9.514      1.328      8.270
REMARK INTER + INTRA:          -8.832
REMARK INTER:                 -11.409
REMARK INTRA:                   2.577
REMARK UNBOUND:                 2.072
REMARK  Name = ZINC000005037439
REMARK  3 active torsions:
REMARK  status: ('A' for Active; 'I' for Inactive)
REMARK    1  A    between atoms: O_1  and  C_2
REMARK    2  A    between atoms: C_5  and  C_6
REMARK    3  A    between atoms: C_18  and  C_19
REMARK                            x       y       z     vdW  Elec       q    Type
REMARK                         _______ _______ _______ _____ _____    ______ ____
ROOT
ATOM      1  C   UNL     1       1.578   3.200 -22.730  0.00  0.00    +0.127 C 
ATOM      2  C   UNL     1       1.486   2.113 -22.023  0.00  0.00    +0.198 C 
ATOM      3  O   UNL     1       0.230   1.906 -21.765  0.00  0.00    -0.369 OA
ATOM      4  C   UNL     1      -0.456   2.865 -22.311  0.00  0.00    +0.157 C 
ATOM      5  C   UNL     1       2.412   4.000 -23.327  0.00  0.00    +0.183 C 
ATOM      6  O   UNL     1       1.725   4.959 -23.873  0.00  0.00    -0.369 OA
ATOM      7  C   UNL     1       0.469   4.753 -23.614  0.00  0.00    +0.170 C 
ATOM      8  C   UNL     1       0.377   3.665 -22.908  0.00  0.00    +0.085 C 
ENDROOT
BRANCH   4   9
ATOM      9  C   UNL     1      -1.748   3.001 -22.269  0.00  0.00    -0.015 A 
ATOM     10  C   UNL     1      -2.384   2.826 -21.148  0.00  0.00    +0.010 A 
ATOM     11  C   UNL     1      -3.676   2.962 -21.105  0.00  0.00    +0.050 A 
ATOM     12  C   UNL     1      -4.332   3.274 -22.184  0.00  0.00    +0.166 A 
ATOM     13  C   UNL     1      -3.697   3.449 -23.304  0.00  0.00    +0.167 A 
ATOM     14  O   UNL     1      -4.571   3.749 -24.219  0.00  0.00    -0.453 OA
ATOM     15  C   UNL     1      -5.746   3.759 -23.664  0.00  0.00    +0.466 C 
ATOM     16  O   UNL     1      -5.599   3.465 -22.405  0.00  0.00    -0.453 OA
ATOM     17  C   UNL     1      -2.405   3.313 -23.347  0.00  0.00    +0.055 A 
ENDBRANCH   4   9
BRANCH   5  18
ATOM     18  C   UNL     1       3.703   3.864 -23.369  0.00  0.00    -0.012 A 
ATOM     19  C   UNL     1       4.228   2.805 -23.909  0.00  0.00    +0.010 A 
ATOM     20  C   UNL     1       5.520   2.668 -23.952  0.00  0.00    +0.050 A 
ATOM     21  C   UNL     1       6.287   3.592 -23.454  0.00  0.00    +0.166 A 
ATOM     22  C   UNL     1       5.764   4.651 -22.914  0.00  0.00    +0.167 A 
ATOM     23  O   UNL     1       6.733   5.411 -22.497  0.00  0.00    -0.453 OA
ATOM     24  C   UNL     1       7.855   4.821 -22.779  0.00  0.00    +0.466 C 
ATOM     25  O   UNL     1       7.580   3.696 -23.371  0.00  0.00    -0.453 OA
ATOM     26  C   UNL     1       4.471   4.788 -22.871  0.00  0.00    +0.055 A 
ENDBRANCH   5  18
BRANCH   1  27
ATOM     27  O   UNL     1       2.779   2.735 -22.552  0.00  0.00    -0.383 OA
ATOM     28  H   UNL     1       2.996   2.752 -21.608  0.00  0.00    +0.210 HD
ENDBRANCH   1  27
TORSDOF 3
ENDMDL
MODEL 5
REMARK VINA RESULT:    -9.507      1.591      8.590
REMARK INTER + INTRA:          -8.824
REMARK INTER:                 -10.534
REMARK INTRA:                   1.710
REMARK UNBOUND:                 2.072
REMARK  Name = ZINC000005037439
REMARK  3 active torsions:
REMARK  status: ('A' for Active; 'I' for Inactive)
REMARK    1  A    between atoms: O_1  and  C_2
REMARK    2  A    between atoms: C_5  and  C_6
REMARK    3  A    between atoms: C_18  and  C_19
REMARK                            x       y       z     vdW  Elec       q    Type
REMARK                         _______ _______ _______ _____ _____    ______ ____
ROOT
ATOM      1  C   UNL     1       2.952   4.301 -23.075  0.00  0.00    +0.127 C 
ATOM      2  C   UNL     1       2.645   5.558 -23.202  0.00  0.00    +0.198 C 
ATOM      3  O   UNL     1       1.363   5.642 -23.397  0.00  0.00    -0.369 OA
ATOM      4  C   UNL     1       0.875   4.437 -23.391  0.00  0.00    +0.157 C 
ATOM      5  C   UNL     1       3.933   3.473 -22.875  0.00  0.00    +0.183 C 
ATOM      6  O   UNL     1       3.445   2.268 -22.869  0.00  0.00    -0.369 OA
ATOM      7  C   UNL     1       2.164   2.351 -23.064  0.00  0.00    +0.170 C 
ATOM      8  C   UNL     1       1.857   3.609 -23.192  0.00  0.00    +0.085 C 
ENDROOT
BRANCH   4   9
ATOM      9  C   UNL     1      -0.373   4.117 -23.555  0.00  0.00    -0.015 A 
ATOM     10  C   UNL     1      -0.816   3.811 -24.738  0.00  0.00    +0.010 A 
ATOM     11  C   UNL     1      -2.064   3.490 -24.903  0.00  0.00    +0.050 A 
ATOM     12  C   UNL     1      -2.871   3.475 -23.884  0.00  0.00    +0.166 A 
ATOM     13  C   UNL     1      -2.429   3.781 -22.700  0.00  0.00    +0.167 A 
ATOM     14  O   UNL     1      -3.422   3.691 -21.865  0.00  0.00    -0.453 OA
ATOM     15  C   UNL     1      -4.477   3.330 -22.532  0.00  0.00    +0.466 C 
ATOM     16  O   UNL     1      -4.137   3.196 -23.781  0.00  0.00    -0.453 OA
ATOM     17  C   UNL     1      -1.180   4.102 -22.535  0.00  0.00    +0.055 A 
ENDBRANCH   4   9
BRANCH   5  18
ATOM     18  C   UNL     1       5.181   3.793 -22.711  0.00  0.00    -0.012 A 
ATOM     19  C   UNL     1       5.974   3.867 -23.739  0.00  0.00    +0.010 A 
ATOM     20  C   UNL     1       7.223   4.187 -23.576  0.00  0.00    +0.050 A 
ATOM     21  C   UNL     1       7.680   4.435 -22.383  0.00  0.00    +0.166 A 
ATOM     22  C   UNL     1       6.888   4.362 -21.356  0.00  0.00    +0.167 A 
ATOM     23  O   UNL     1       7.579   4.651 -20.293  0.00  0.00    -0.453 OA
ATOM     24  C   UNL     1       8.799   4.903 -20.665  0.00  0.00    +0.466 C 
ATOM     25  O   UNL     1       8.861   4.769 -21.957  0.00  0.00    -0.453 OA
ATOM     26  C   UNL     1       5.638   4.041 -21.519  0.00  0.00    +0.055 A 
ENDBRANCH   5  18
BRANCH   1  27
ATOM     27  O   UNL     1       4.045   4.994 -22.958  0.00  0.00    -0.383 OA
ATOM     28  H   UNL     1       4.046   5.710 -23.612  0.00  0.00    +0.210 HD
ENDBRANCH   1  27
TORSDOF 3
ENDMDL
