MODEL 1
REMARK VINA RESULT:   -11.900      0.000      0.000
REMARK INTER + INTRA:         -12.149
REMARK INTER:                 -12.260
REMARK INTRA:                   0.111
REMARK UNBOUND:                 2.533
REMARK  Name = ZINC000019535046
REMARK  8 active torsions:
REMARK  status: ('A' for Active; 'I' for Inactive)
REMARK    1  A    between atoms: C_1  and  O_2
REMARK    2  A    between atoms: O_2  and  C_3
REMARK    3  A    between atoms: C_8  and  O_9
REMARK    4  A    between atoms: O_9  and  C_10
REMARK    5  A    between atoms: C_16  and  O_17
REMARK    6  A    between atoms: O_17  and  C_18
REMARK    7  A    between atoms: C_19  and  O_20
REMARK    8  A    between atoms: O_20  and  C_21
REMARK                            x       y       z     vdW  Elec       q    Type
REMARK                         _______ _______ _______ _____ _____    ______ ____
ROOT
ATOM      1  C   UNL     1       3.891   2.581 -23.066  0.00  0.00    +0.162 A 
ATOM      2  C   UNL     1       3.343   3.113 -24.118  0.00  0.00    +0.053 A 
ATOM      3  C   UNL     1       2.055   3.284 -24.164  0.00  0.00    -0.030 A 
ATOM      4  C   UNL     1       1.315   2.923 -23.158  0.00  0.00    +0.008 A 
ATOM      5  C   UNL     1       0.027   3.094 -23.204  0.00  0.00    +0.100 C 
ATOM      6  C   UNL     1      -0.713   2.732 -22.198  0.00  0.00    +0.095 C 
ATOM      7  C   UNL     1      -2.001   2.903 -22.244  0.00  0.00    -0.030 A 
ATOM      8  C   UNL     1      -2.741   2.541 -21.238  0.00  0.00    +0.008 A 
ATOM      9  C   UNL     1      -4.028   2.712 -21.284  0.00  0.00    +0.050 A 
ATOM     10  C   UNL     1      -4.577   3.245 -22.336  0.00  0.00    +0.162 A 
ATOM     11  C   UNL     1      -3.836   3.606 -23.342  0.00  0.00    +0.170 A 
ATOM     12  C   UNL     1      -2.549   3.435 -23.296  0.00  0.00    +0.046 A 
ATOM     13  C   UNL     1      -1.808   3.797 -24.302  0.00  0.00    +0.172 C 
ATOM     14  N   UNL     1      -0.521   3.626 -24.256  0.00  0.00    +0.244 N 
ATOM     15  H   UNL     1      -1.041   3.320 -23.434  0.00  0.00    +0.204 HD
ATOM     16  C   UNL     1       0.219   3.987 -25.262  0.00  0.00    +0.137 C 
ATOM     17  C   UNL     1       1.863   2.390 -22.106  0.00  0.00    +0.058 A 
ATOM     18  C   UNL     1       1.507   3.816 -25.216  0.00  0.00    +0.086 C 
ATOM     19  C   UNL     1       3.151   2.219 -22.061  0.00  0.00    +0.162 A 
ENDROOT
BRANCH   1  21
ATOM     20  C   UNL     1       5.973   3.310 -23.521  0.00  0.00    +0.277 C 
ATOM     21  O   UNL     1       5.179   2.410 -23.020  0.00  0.00    -0.491 OA
ENDBRANCH   1  21
BRANCH  11  22
ATOM     22  O   UNL     1      -4.384   4.138 -24.394  0.00  0.00    -0.491 OA
ATOM     23  C   UNL     1      -4.807   3.380 -25.361  0.00  0.00    +0.277 C 
ENDBRANCH  11  22
BRANCH  10  24
ATOM     24  O   UNL     1      -5.864   3.415 -22.382  0.00  0.00    -0.491 OA
ATOM     25  C   UNL     1      -6.645   2.663 -21.666  0.00  0.00    +0.277 C 
ENDBRANCH  10  24
BRANCH  19  26
ATOM     26  O   UNL     1       3.699   1.687 -21.008  0.00  0.00    -0.491 OA
ATOM     27  C   UNL     1       3.720   0.395 -20.870  0.00  0.00    +0.277 C 
ENDBRANCH  19  26
TORSDOF 4
ENDMDL
MODEL 2
REMARK VINA RESULT:   -10.744      1.376      7.753
REMARK INTER + INTRA:         -10.724
REMARK INTER:                 -10.891
REMARK INTRA:                   0.168
REMARK UNBOUND:                 2.533
REMARK  Name = ZINC000019535046
REMARK  8 active torsions:
REMARK  status: ('A' for Active; 'I' for Inactive)
REMARK    1  A    between atoms: C_1  and  O_2
REMARK    2  A    between atoms: O_2  and  C_3
REMARK    3  A    between atoms: C_8  and  O_9
REMARK    4  A    between atoms: O_9  and  C_10
REMARK    5  A    between atoms: C_16  and  O_17
REMARK    6  A    between atoms: O_17  and  C_18
REMARK    7  A    between atoms: C_19  and  O_20
REMARK    8  A    between atoms: O_20  and  C_21
REMARK                            x       y       z     vdW  Elec       q    Type
REMARK                         _______ _______ _______ _____ _____    ______ ____
ROOT
ATOM      1  C   UNL     1      -3.448   3.215 -23.856  0.00  0.00    +0.162 A 
ATOM      2  C   UNL     1      -3.146   2.646 -22.727  0.00  0.00    +0.053 A 
ATOM      3  C   UNL     1      -1.901   2.448 -22.411  0.00  0.00    -0.030 A 
ATOM      4  C   UNL     1      -0.957   2.819 -23.224  0.00  0.00    +0.008 A 
ATOM      5  C   UNL     1       0.289   2.621 -22.908  0.00  0.00    +0.100 C 
ATOM      6  C   UNL     1       1.232   2.993 -23.722  0.00  0.00    +0.095 C 
ATOM      7  C   UNL     1       2.478   2.795 -23.406  0.00  0.00    -0.030 A 
ATOM      8  C   UNL     1       3.421   3.166 -24.220  0.00  0.00    +0.008 A 
ATOM      9  C   UNL     1       4.666   2.969 -23.905  0.00  0.00    +0.050 A 
ATOM     10  C   UNL     1       4.969   2.399 -22.775  0.00  0.00    +0.162 A 
ATOM     11  C   UNL     1       4.025   2.028 -21.962  0.00  0.00    +0.170 A 
ATOM     12  C   UNL     1       2.780   2.226 -22.277  0.00  0.00    +0.046 A 
ATOM     13  C   UNL     1       1.836   1.855 -21.464  0.00  0.00    +0.172 C 
ATOM     14  N   UNL     1       0.590   2.052 -21.779  0.00  0.00    +0.244 N 
ATOM     15  H   UNL     1       1.279   2.368 -22.462  0.00  0.00    +0.204 HD
ATOM     16  C   UNL     1      -0.353   1.681 -20.965  0.00  0.00    +0.137 C 
ATOM     17  C   UNL     1      -1.259   3.388 -24.353  0.00  0.00    +0.058 A 
ATOM     18  C   UNL     1      -1.599   1.879 -21.281  0.00  0.00    +0.086 C 
ATOM     19  C   UNL     1      -2.504   3.586 -24.669  0.00  0.00    +0.162 A 
ENDROOT
BRANCH   1  21
ATOM     20  C   UNL     1      -5.549   3.762 -23.257  0.00  0.00    +0.277 C 
ATOM     21  O   UNL     1      -4.693   3.412 -24.171  0.00  0.00    -0.491 OA
ENDBRANCH   1  21
BRANCH  11  22
ATOM     22  O   UNL     1       4.326   1.459 -20.833  0.00  0.00    -0.491 OA
ATOM     23  C   UNL     1       4.604   0.190 -20.798  0.00  0.00    +0.277 C 
ENDBRANCH  11  22
BRANCH  10  24
ATOM     24  O   UNL     1       6.214   2.202 -22.460  0.00  0.00    -0.491 OA
ATOM     25  C   UNL     1       7.124   3.045 -22.847  0.00  0.00    +0.277 C 
ENDBRANCH  10  24
BRANCH  19  26
ATOM     26  O   UNL     1      -2.807   4.155 -25.799  0.00  0.00    -0.491 OA
ATOM     27  C   UNL     1      -2.968   3.434 -26.867  0.00  0.00    +0.277 C 
ENDBRANCH  19  26
TORSDOF 4
ENDMDL
MODEL 3
REMARK VINA RESULT:   -10.655      1.123      7.117
REMARK INTER + INTRA:         -10.613
REMARK INTER:                 -10.628
REMARK INTRA:                   0.015
REMARK UNBOUND:                 2.533
REMARK  Name = ZINC000019535046
REMARK  8 active torsions:
REMARK  status: ('A' for Active; 'I' for Inactive)
REMARK    1  A    between atoms: C_1  and  O_2
REMARK    2  A    between atoms: O_2  and  C_3
REMARK    3  A    between atoms: C_8  and  O_9
REMARK    4  A    between atoms: O_9  and  C_10
REMARK    5  A    between atoms: C_16  and  O_17
REMARK    6  A    between atoms: O_17  and  C_18
REMARK    7  A    between atoms: C_19  and  O_20
REMARK    8  A    between atoms: O_20  and  C_21
REMARK                            x       y       z     vdW  Elec       q    Type
REMARK                         _______ _______ _______ _____ _____    ______ ____
ROOT
ATOM      1  C   UNL     1      -4.041   3.702 -23.863  0.00  0.00    +0.162 A 
ATOM      2  C   UNL     1      -3.165   3.873 -24.808  0.00  0.00    +0.053 A 
ATOM      3  C   UNL     1      -1.920   3.559 -24.605  0.00  0.00    -0.030 A 
ATOM      4  C   UNL     1      -1.551   3.074 -23.457  0.00  0.00    +0.008 A 
ATOM      5  C   UNL     1      -0.305   2.759 -23.254  0.00  0.00    +0.100 C 
ATOM      6  C   UNL     1       0.063   2.274 -22.106  0.00  0.00    +0.095 C 
ATOM      7  C   UNL     1       1.309   1.960 -21.903  0.00  0.00    -0.030 A 
ATOM      8  C   UNL     1       1.678   1.474 -20.755  0.00  0.00    +0.008 A 
ATOM      9  C   UNL     1       2.922   1.160 -20.552  0.00  0.00    +0.050 A 
ATOM     10  C   UNL     1       3.799   1.331 -21.497  0.00  0.00    +0.162 A 
ATOM     11  C   UNL     1       3.429   1.817 -22.645  0.00  0.00    +0.170 A 
ATOM     12  C   UNL     1       2.185   2.131 -22.848  0.00  0.00    +0.046 A 
ATOM     13  C   UNL     1       1.815   2.617 -23.996  0.00  0.00    +0.172 C 
ATOM     14  N   UNL     1       0.571   2.931 -24.199  0.00  0.00    +0.244 N 
ATOM     15  H   UNL     1       0.791   2.556 -23.277  0.00  0.00    +0.204 HD
ATOM     16  C   UNL     1       0.202   3.417 -25.347  0.00  0.00    +0.137 C 
ATOM     17  C   UNL     1      -2.427   2.902 -22.512  0.00  0.00    +0.058 A 
ATOM     18  C   UNL     1      -1.044   3.731 -25.550  0.00  0.00    +0.086 C 
ATOM     19  C   UNL     1      -3.671   3.216 -22.715  0.00  0.00    +0.162 A 
ENDROOT
BRANCH   1  21
ATOM     20  C   UNL     1      -5.855   3.722 -25.197  0.00  0.00    +0.277 C 
ATOM     21  O   UNL     1      -5.286   4.016 -24.066  0.00  0.00    -0.491 OA
ENDBRANCH   1  21
BRANCH  11  22
ATOM     22  O   UNL     1       4.305   1.989 -23.590  0.00  0.00    -0.491 OA
ATOM     23  C   UNL     1       5.070   3.040 -23.585  0.00  0.00    +0.277 C 
ENDBRANCH  11  22
BRANCH  10  24
ATOM     24  O   UNL     1       5.044   1.017 -21.294  0.00  0.00    -0.491 OA
ATOM     25  C   UNL     1       5.342  -0.029 -20.583  0.00  0.00    +0.277 C 
ENDBRANCH  10  24
BRANCH  19  26
ATOM     26  O   UNL     1      -4.548   3.044 -21.770  0.00  0.00    -0.491 OA
ATOM     27  C   UNL     1      -4.316   2.195 -20.814  0.00  0.00    +0.277 C 
ENDBRANCH  19  26
TORSDOF 4
ENDMDL
MODEL 4
REMARK VINA RESULT:    -9.776      2.575      4.621
REMARK INTER + INTRA:          -9.529
REMARK INTER:                  -9.681
REMARK INTRA:                   0.152
REMARK UNBOUND:                 2.533
REMARK  Name = ZINC000019535046
REMARK  8 active torsions:
REMARK  status: ('A' for Active; 'I' for Inactive)
REMARK    1  A    between atoms: C_1  and  O_2
REMARK    2  A    between atoms: O_2  and  C_3
REMARK    3  A    between atoms: C_8  and  O_9
REMARK    4  A    between atoms: O_9  and  C_10
REMARK    5  A    between atoms: C_16  and  O_17
REMARK    6  A    between atoms: O_17  and  C_18
REMARK    7  A    between atoms: C_19  and  O_20
REMARK    8  A    between atoms: O_20  and  C_21
REMARK                            x       y       z     vdW  Elec       q    Type
REMARK                         _______ _______ _______ _____ _____    ______ ____
ROOT
ATOM      1  C   UNL     1       7.329   4.573 -22.398  0.00  0.00    +0.162 A 
ATOM      2  C   UNL     1       6.935   3.343 -22.254  0.00  0.00    +0.053 A 
ATOM      3  C   UNL     1       5.677   3.042 -22.395  0.00  0.00    -0.030 A 
ATOM      4  C   UNL     1       4.815   3.973 -22.679  0.00  0.00    +0.008 A 
ATOM      5  C   UNL     1       3.557   3.672 -22.819  0.00  0.00    +0.100 C 
ATOM      6  C   UNL     1       2.695   4.602 -23.103  0.00  0.00    +0.095 C 
ATOM      7  C   UNL     1       1.438   4.302 -23.243  0.00  0.00    -0.030 A 
ATOM      8  C   UNL     1       0.575   5.232 -23.527  0.00  0.00    +0.008 A 
ATOM      9  C   UNL     1      -0.681   4.932 -23.668  0.00  0.00    +0.050 A 
ATOM     10  C   UNL     1      -1.076   3.701 -23.524  0.00  0.00    +0.162 A 
ATOM     11  C   UNL     1      -0.213   2.771 -23.240  0.00  0.00    +0.170 A 
ATOM     12  C   UNL     1       1.043   3.071 -23.100  0.00  0.00    +0.046 A 
ATOM     13  C   UNL     1       1.907   2.142 -22.816  0.00  0.00    +0.172 C 
ATOM     14  N   UNL     1       3.163   2.442 -22.675  0.00  0.00    +0.244 N 
ATOM     15  H   UNL     1       2.541   3.219 -22.898  0.00  0.00    +0.204 HD
ATOM     16  C   UNL     1       4.026   1.511 -22.391  0.00  0.00    +0.137 C 
ATOM     17  C   UNL     1       5.209   5.203 -22.822  0.00  0.00    +0.058 A 
ATOM     18  C   UNL     1       5.283   1.812 -22.251  0.00  0.00    +0.086 C 
ATOM     19  C   UNL     1       6.466   5.503 -22.682  0.00  0.00    +0.162 A 
ENDROOT
BRANCH   1  21
ATOM     20  C   UNL     1       9.062   5.146 -21.079  0.00  0.00    +0.277 C 
ATOM     21  O   UNL     1       8.586   4.873 -22.258  0.00  0.00    -0.491 OA
ENDBRANCH   1  21
BRANCH  11  22
ATOM     22  O   UNL     1      -0.607   1.541 -23.096  0.00  0.00    -0.491 OA
ATOM     23  C   UNL     1      -0.951   1.101 -21.922  0.00  0.00    +0.277 C 
ENDBRANCH  11  22
BRANCH  10  24
ATOM     24  O   UNL     1      -2.333   3.401 -23.664  0.00  0.00    -0.491 OA
ATOM     25  C   UNL     1      -3.059   4.034 -24.537  0.00  0.00    +0.277 C 
ENDBRANCH  10  24
BRANCH  19  26
ATOM     26  O   UNL     1       6.861   6.734 -22.826  0.00  0.00    -0.491 OA
ATOM     27  C   UNL     1       6.483   7.641 -21.975  0.00  0.00    +0.277 C 
ENDBRANCH  19  26
TORSDOF 4
ENDMDL
MODEL 5
REMARK VINA RESULT:    -9.745      1.365      3.053
REMARK INTER + INTRA:          -9.491
REMARK INTER:                  -9.752
REMARK INTRA:                   0.262
REMARK UNBOUND:                 2.533
REMARK  Name = ZINC000019535046
REMARK  8 active torsions:
REMARK  status: ('A' for Active; 'I' for Inactive)
REMARK    1  A    between atoms: C_1  and  O_2
REMARK    2  A    between atoms: O_2  and  C_3
REMARK    3  A    between atoms: C_8  and  O_9
REMARK    4  A    between atoms: O_9  and  C_10
REMARK    5  A    between atoms: C_16  and  O_17
REMARK    6  A    between atoms: O_17  and  C_18
REMARK    7  A    between atoms: C_19  and  O_20
REMARK    8  A    between atoms: O_20  and  C_21
REMARK                            x       y       z     vdW  Elec       q    Type
REMARK                         _______ _______ _______ _____ _____    ______ ____
ROOT
ATOM      1  C   UNL     1       4.250   2.154 -21.858  0.00  0.00    +0.162 A 
ATOM      2  C   UNL     1       3.369   1.677 -21.030  0.00  0.00    +0.053 A 
ATOM      3  C   UNL     1       2.100   1.833 -21.270  0.00  0.00    -0.030 A 
ATOM      4  C   UNL     1       1.714   2.466 -22.338  0.00  0.00    +0.008 A 
ATOM      5  C   UNL     1       0.445   2.622 -22.578  0.00  0.00    +0.100 C 
ATOM      6  C   UNL     1       0.059   3.254 -23.646  0.00  0.00    +0.095 C 
ATOM      7  C   UNL     1      -1.209   3.410 -23.886  0.00  0.00    -0.030 A 
ATOM      8  C   UNL     1      -1.595   4.042 -24.954  0.00  0.00    +0.008 A 
ATOM      9  C   UNL     1      -2.863   4.198 -25.195  0.00  0.00    +0.050 A 
ATOM     10  C   UNL     1      -3.746   3.721 -24.366  0.00  0.00    +0.162 A 
ATOM     11  C   UNL     1      -3.358   3.089 -23.299  0.00  0.00    +0.170 A 
ATOM     12  C   UNL     1      -2.091   2.933 -23.058  0.00  0.00    +0.046 A 
ATOM     13  C   UNL     1      -1.704   2.301 -21.991  0.00  0.00    +0.172 C 
ATOM     14  N   UNL     1      -0.436   2.145 -21.750  0.00  0.00    +0.244 N 
ATOM     15  H   UNL     1      -0.670   2.650 -22.605  0.00  0.00    +0.204 HD
ATOM     16  C   UNL     1      -0.050   1.512 -20.682  0.00  0.00    +0.137 C 
ATOM     17  C   UNL     1       2.595   2.942 -23.166  0.00  0.00    +0.058 A 
ATOM     18  C   UNL     1       1.218   1.357 -20.442  0.00  0.00    +0.086 C 
ATOM     19  C   UNL     1       3.863   2.787 -22.926  0.00  0.00    +0.162 A 
ENDROOT
BRANCH   1  21
ATOM     20  C   UNL     1       6.081   2.651 -20.644  0.00  0.00    +0.277 C 
ATOM     21  O   UNL     1       5.518   1.998 -21.618  0.00  0.00    -0.491 OA
ENDBRANCH   1  21
BRANCH  11  22
ATOM     22  O   UNL     1      -4.240   2.612 -22.471  0.00  0.00    -0.491 OA
ATOM     23  C   UNL     1      -4.828   3.401 -21.621  0.00  0.00    +0.277 C 
ENDBRANCH  11  22
BRANCH  10  24
ATOM     24  O   UNL     1      -5.013   3.877 -24.607  0.00  0.00    -0.491 OA
ATOM     25  C   UNL     1      -5.528   3.412 -25.706  0.00  0.00    +0.277 C 
ENDBRANCH  10  24
BRANCH  19  26
ATOM     26  O   UNL     1       4.745   3.263 -23.754  0.00  0.00    -0.491 OA
ATOM     27  C   UNL     1       5.233   4.454 -23.570  0.00  0.00    +0.277 C 
ENDBRANCH  19  26
TORSDOF 4
ENDMDL
