MODEL 1
REMARK VINA RESULT:    -9.206      0.000      0.000
REMARK INTER + INTRA:          -4.958
REMARK INTER:                 -12.307
REMARK INTRA:                   7.348
REMARK UNBOUND:                 7.746
REMARK  Name = CCCC[C@@H](O)[C@]12Oc3c(OC)ccc4c3[C@]13CCN(C)[C@H](C4)C3=CC=C2OC     ZINC000100393888
REMARK  11 active torsions:
REMARK  status: ('A' for Active; 'I' for Inactive)
REMARK    1  A    between atoms: C_1  and  C_2
REMARK    2  A    between atoms: C_2  and  C_3
REMARK    3  A    between atoms: C_3  and  C_4
REMARK    4  A    between atoms: C_4  and  C_5
REMARK    5  A    between atoms: C_5  and  O_6
REMARK    6  A    between atoms: C_5  and  C_7
REMARK    7  A    between atoms: C_10  and  O_11
REMARK    8  A    between atoms: O_11  and  C_12
REMARK    9  A    between atoms: N_20  and  C_21
REMARK   10  A    between atoms: C_27  and  O_28
REMARK   11  A    between atoms: O_28  and  C_29
REMARK                            x       y       z     vdW  Elec       q    Type
REMARK                         _______ _______ _______ _____ _____    ______ ____
ROOT
ATOM      1  C   UNL     1      -1.532   3.237 -23.782  0.00  0.00    +0.206 C 
ATOM      2  O   UNL     1      -1.886   3.116 -22.318  0.00  0.00    -0.470 OA
ATOM      3  C   UNL     1      -3.358   3.176 -22.046  0.00  0.00    +0.168 A 
ATOM      4  C   UNL     1      -4.276   3.146 -21.173  0.00  0.00    +0.162 A 
ATOM      5  C   UNL     1      -5.486   3.252 -21.528  0.00  0.00    +0.050 A 
ATOM      6  C   UNL     1      -5.776   3.386 -22.740  0.00  0.00    +0.008 A 
ATOM      7  C   UNL     1      -4.871   3.416 -23.602  0.00  0.00    -0.034 A 
ATOM      8  C   UNL     1      -5.162   3.553 -24.832  0.00  0.00    +0.094 C 
ATOM      9  C   UNL     1      -4.259   3.583 -25.696  0.00  0.00    +0.096 C 
ATOM     10  C   UNL     1      -3.051   3.477 -25.337  0.00  0.00    -0.007 C 
ATOM     11  C   UNL     1      -2.135   3.508 -26.208  0.00  0.00    +0.009 C 
ATOM     12  C   UNL     1      -0.935   3.404 -25.868  0.00  0.00    +0.045 C 
ATOM     13  N   UNL     1      -3.304   3.629 -26.750  0.00  0.00    +0.239 N 
ATOM     14  H   UNL     1      -3.601   3.741 -27.719  0.00  0.00    +0.204 HD
ATOM     15  C   UNL     1      -3.656   3.766 -27.944  0.00  0.00    +0.191 C 
ATOM     16  C   UNL     1      -1.944   3.514 -26.393  0.00  0.00    +0.133 C 
ATOM     17  C   UNL     1      -1.648   3.364 -25.021  0.00  0.00    +0.071 C 
ATOM     18  C   UNL     1      -3.662   3.313 -23.267  0.00  0.00    +0.016 A 
ATOM     19  C   UNL     1      -0.627   3.268 -24.652  0.00  0.00    +0.144 C 
ATOM     20  C   UNL     1      -2.755   3.343 -24.128  0.00  0.00    +0.080 C 
ENDROOT
BRANCH   4  21
ATOM     21  O   UNL     1      -3.987   3.011 -19.961  0.00  0.00    -0.491 OA
ATOM     22  C   UNL     1      -3.135   3.760 -19.433  0.00  0.00    +0.277 C 
ENDBRANCH   4  21
BRANCH  19  23
ATOM     23  O   UNL     1       0.715   3.174 -24.503  0.00  0.00    -0.495 OA
ATOM     24  C   UNL     1       1.469   3.040 -25.540  0.00  0.00    +0.276 C 
ENDBRANCH  19  23
BRANCH   1  25
ATOM     25  C   UNL     1      -0.384   3.100 -23.072  0.00  0.00    +0.167 C 
BRANCH  25  26
ATOM     26  O   UNL     1       0.264   4.114 -22.745  0.00  0.00    -0.387 OA
ATOM     27  H   UNL     1       0.874   4.353 -23.460  0.00  0.00    +0.210 HD
ENDBRANCH  25  26
BRANCH  25  28
ATOM     28  C   UNL     1       0.052   1.966 -22.728  0.00  0.00    +0.036 C 
BRANCH  28  29
ATOM     29  C   UNL     1       0.746   1.793 -21.688  0.00  0.00    +0.002 C 
BRANCH  29  31
ATOM     30  C   UNL     1       2.946   1.965 -21.775  0.00  0.00    +0.004 C 
ATOM     31  C   UNL     1       1.905   1.264 -21.813  0.00  0.00    -0.003 C 
ENDBRANCH  29  31
ENDBRANCH  28  29
ENDBRANCH  25  28
ENDBRANCH   1  25
TORSDOF 7
ENDMDL
MODEL 2
REMARK VINA RESULT:    -8.591      1.980      4.281
REMARK INTER + INTRA:          -4.109
REMARK INTER:                 -11.686
REMARK INTRA:                   7.577
REMARK UNBOUND:                 7.746
REMARK  Name = CCCC[C@@H](O)[C@]12Oc3c(OC)ccc4c3[C@]13CCN(C)[C@H](C4)C3=CC=C2OC     ZINC000100393888
REMARK  11 active torsions:
REMARK  status: ('A' for Active; 'I' for Inactive)
REMARK    1  A    between atoms: C_1  and  C_2
REMARK    2  A    between atoms: C_2  and  C_3
REMARK    3  A    between atoms: C_3  and  C_4
REMARK    4  A    between atoms: C_4  and  C_5
REMARK    5  A    between atoms: C_5  and  O_6
REMARK    6  A    between atoms: C_5  and  C_7
REMARK    7  A    between atoms: C_10  and  O_11
REMARK    8  A    between atoms: O_11  and  C_12
REMARK    9  A    between atoms: N_20  and  C_21
REMARK   10  A    between atoms: C_27  and  O_28
REMARK   11  A    between atoms: O_28  and  C_29
REMARK                            x       y       z     vdW  Elec       q    Type
REMARK                         _______ _______ _______ _____ _____    ______ ____
ROOT
ATOM      1  C   UNL     1      -1.218   2.891 -23.278  0.00  0.00    +0.206 C 
ATOM      2  O   UNL     1      -1.270   3.115 -24.772  0.00  0.00    -0.470 OA
ATOM      3  C   UNL     1      -2.644   3.410 -25.291  0.00  0.00    +0.168 A 
ATOM      4  C   UNL     1      -3.361   3.671 -26.303  0.00  0.00    +0.162 A 
ATOM      5  C   UNL     1      -4.606   3.851 -26.163  0.00  0.00    +0.050 A 
ATOM      6  C   UNL     1      -5.128   3.771 -25.027  0.00  0.00    +0.008 A 
ATOM      7  C   UNL     1      -4.422   3.514 -24.028  0.00  0.00    -0.034 A 
ATOM      8  C   UNL     1      -4.949   3.432 -22.873  0.00  0.00    +0.094 C 
ATOM      9  C   UNL     1      -4.245   3.175 -21.873  0.00  0.00    +0.096 C 
ATOM     10  C   UNL     1      -3.001   2.996 -22.017  0.00  0.00    -0.007 C 
ATOM     11  C   UNL     1      -2.286   2.736 -21.007  0.00  0.00    +0.009 C 
ATOM     12  C   UNL     1      -1.054   2.556 -21.134  0.00  0.00    +0.045 C 
ATOM     13  N   UNL     1      -3.529   2.888 -20.678  0.00  0.00    +0.239 N 
ATOM     14  H   UNL     1      -4.010   2.836 -19.780  0.00  0.00    +0.204 HD
ATOM     15  C   UNL     1      -4.108   2.822 -19.569  0.00  0.00    +0.191 C 
ATOM     16  C   UNL     1      -2.138   2.682 -20.794  0.00  0.00    +0.133 C 
ATOM     17  C   UNL     1      -1.577   2.777 -22.086  0.00  0.00    +0.071 C 
ATOM     18  C   UNL     1      -3.182   3.332 -24.148  0.00  0.00    +0.016 A 
ATOM     19  C   UNL     1      -0.514   2.633 -22.272  0.00  0.00    +0.144 C 
ATOM     20  C   UNL     1      -2.473   3.074 -23.150  0.00  0.00    +0.080 C 
ENDROOT
BRANCH   4  21
ATOM     21  O   UNL     1      -2.839   3.751 -27.439  0.00  0.00    -0.491 OA
ATOM     22  C   UNL     1      -3.473   3.374 -28.448  0.00  0.00    +0.277 C 
ENDBRANCH   4  21
BRANCH  19  23
ATOM     23  O   UNL     1       0.819   2.407 -22.187  0.00  0.00    -0.495 OA
ATOM     24  C   UNL     1       1.287   1.678 -21.234  0.00  0.00    +0.276 C 
ENDBRANCH  19  23
BRANCH   1  25
ATOM     25  C   UNL     1       0.037   2.762 -23.777  0.00  0.00    +0.167 C 
BRANCH  25  26
ATOM     26  O   UNL     1       0.483   1.627 -24.040  0.00  0.00    -0.387 OA
ATOM     27  H   UNL     1      -0.230   1.074 -24.395  0.00  0.00    +0.210 HD
ENDBRANCH  25  26
BRANCH  25  28
ATOM     28  C   UNL     1       0.775   3.765 -23.985  0.00  0.00    +0.036 C 
BRANCH  28  29
ATOM     29  C   UNL     1       1.923   3.667 -24.501  0.00  0.00    +0.002 C 
BRANCH  29  31
ATOM     30  C   UNL     1       2.796   5.191 -23.163  0.00  0.00    +0.004 C 
ATOM     31  C   UNL     1       2.919   4.157 -23.865  0.00  0.00    -0.003 C 
ENDBRANCH  29  31
ENDBRANCH  28  29
ENDBRANCH  25  28
ENDBRANCH   1  25
TORSDOF 7
ENDMDL
MODEL 3
REMARK VINA RESULT:    -7.105      5.714      8.690
REMARK INTER + INTRA:          -2.059
REMARK INTER:                  -9.429
REMARK INTRA:                   7.370
REMARK UNBOUND:                 7.746
REMARK  Name = CCCC[C@@H](O)[C@]12Oc3c(OC)ccc4c3[C@]13CCN(C)[C@H](C4)C3=CC=C2OC     ZINC000100393888
REMARK  11 active torsions:
REMARK  status: ('A' for Active; 'I' for Inactive)
REMARK    1  A    between atoms: C_1  and  C_2
REMARK    2  A    between atoms: C_2  and  C_3
REMARK    3  A    between atoms: C_3  and  C_4
REMARK    4  A    between atoms: C_4  and  C_5
REMARK    5  A    between atoms: C_5  and  O_6
REMARK    6  A    between atoms: C_5  and  C_7
REMARK    7  A    between atoms: C_10  and  O_11
REMARK    8  A    between atoms: O_11  and  C_12
REMARK    9  A    between atoms: N_20  and  C_21
REMARK   10  A    between atoms: C_27  and  O_28
REMARK   11  A    between atoms: O_28  and  C_29
REMARK                            x       y       z     vdW  Elec       q    Type
REMARK                         _______ _______ _______ _____ _____    ______ ____
ROOT
ATOM      1  C   UNL     1       4.935   6.557 -22.186  0.00  0.00    +0.206 C 
ATOM      2  O   UNL     1       3.436   6.699 -22.318  0.00  0.00    -0.470 OA
ATOM      3  C   UNL     1       2.773   5.523 -22.965  0.00  0.00    +0.168 A 
ATOM      4  C   UNL     1       1.685   5.002 -23.358  0.00  0.00    +0.162 A 
ATOM      5  C   UNL     1       1.694   3.859 -23.900  0.00  0.00    +0.050 A 
ATOM      6  C   UNL     1       2.774   3.242 -24.048  0.00  0.00    +0.008 A 
ATOM      7  C   UNL     1       3.848   3.754 -23.662  0.00  0.00    -0.034 A 
ATOM      8  C   UNL     1       4.946   3.130 -23.812  0.00  0.00    +0.094 C 
ATOM      9  C   UNL     1       6.020   3.640 -23.426  0.00  0.00    +0.096 C 
ATOM     10  C   UNL     1       6.007   4.783 -22.885  0.00  0.00    -0.007 C 
ATOM     11  C   UNL     1       7.092   5.302 -22.494  0.00  0.00    +0.009 C 
ATOM     12  C   UNL     1       7.095   6.432 -21.956  0.00  0.00    +0.045 C 
ATOM     13  N   UNL     1       7.291   4.136 -23.021  0.00  0.00    +0.239 N 
ATOM     14  H   UNL     1       8.137   3.587 -23.169  0.00  0.00    +0.204 HD
ATOM     15  C   UNL     1       8.337   3.471 -23.197  0.00  0.00    +0.191 C 
ATOM     16  C   UNL     1       7.321   5.409 -22.412  0.00  0.00    +0.133 C 
ATOM     17  C   UNL     1       6.089   6.080 -22.258  0.00  0.00    +0.071 C 
ATOM     18  C   UNL     1       3.858   4.891 -23.121  0.00  0.00    +0.016 A 
ATOM     19  C   UNL     1       6.015   7.066 -21.800  0.00  0.00    +0.144 C 
ATOM     20  C   UNL     1       4.931   5.405 -22.733  0.00  0.00    +0.080 C 
ENDROOT
BRANCH   4  21
ATOM     21  O   UNL     1       0.605   5.619 -23.209  0.00  0.00    -0.491 OA
ATOM     22  C   UNL     1      -0.483   5.026 -23.378  0.00  0.00    +0.277 C 
ENDBRANCH   4  21
BRANCH  19  23
ATOM     23  O   UNL     1       6.241   8.260 -21.202  0.00  0.00    -0.495 OA
ATOM     24  C   UNL     1       7.441   8.601 -20.880  0.00  0.00    +0.276 C 
ENDBRANCH  19  23
BRANCH   1  25
ATOM     25  C   UNL     1       4.569   7.755 -21.665  0.00  0.00    +0.167 C 
BRANCH  25  26
ATOM     26  O   UNL     1       4.351   7.856 -20.442  0.00  0.00    -0.387 OA
ATOM     27  H   UNL     1       3.395   7.894 -20.286  0.00  0.00    +0.210 HD
ENDBRANCH  25  26
BRANCH  25  28
ATOM     28  C   UNL     1       4.441   8.781 -22.390  0.00  0.00    +0.036 C 
BRANCH  28  29
ATOM     29  C   UNL     1       3.828   9.813 -22.001  0.00  0.00    +0.002 C 
BRANCH  29  31
ATOM     30  C   UNL     1       3.383  11.944 -22.371  0.00  0.00    +0.004 C 
ATOM     31  C   UNL     1       3.799  10.831 -22.776  0.00  0.00    -0.003 C 
ENDBRANCH  29  31
ENDBRANCH  28  29
ENDBRANCH  25  28
ENDBRANCH   1  25
TORSDOF 7
ENDMDL
MODEL 4
REMARK VINA RESULT:    -6.946      3.130      5.930
REMARK INTER + INTRA:          -1.839
REMARK INTER:                  -9.935
REMARK INTRA:                   8.096
REMARK UNBOUND:                 7.746
REMARK  Name = CCCC[C@@H](O)[C@]12Oc3c(OC)ccc4c3[C@]13CCN(C)[C@H](C4)C3=CC=C2OC     ZINC000100393888
REMARK  11 active torsions:
REMARK  status: ('A' for Active; 'I' for Inactive)
REMARK    1  A    between atoms: C_1  and  C_2
REMARK    2  A    between atoms: C_2  and  C_3
REMARK    3  A    between atoms: C_3  and  C_4
REMARK    4  A    between atoms: C_4  and  C_5
REMARK    5  A    between atoms: C_5  and  O_6
REMARK    6  A    between atoms: C_5  and  C_7
REMARK    7  A    between atoms: C_10  and  O_11
REMARK    8  A    between atoms: O_11  and  C_12
REMARK    9  A    between atoms: N_20  and  C_21
REMARK   10  A    between atoms: C_27  and  O_28
REMARK   11  A    between atoms: O_28  and  C_29
REMARK                            x       y       z     vdW  Elec       q    Type
REMARK                         _______ _______ _______ _____ _____    ______ ____
ROOT
ATOM      1  C   UNL     1       3.190   2.475 -23.435  0.00  0.00    +0.206 C 
ATOM      2  O   UNL     1       1.841   1.881 -23.772  0.00  0.00    -0.470 OA
ATOM      3  C   UNL     1       0.732   2.886 -23.817  0.00  0.00    +0.168 A 
ATOM      4  C   UNL     1      -0.503   3.094 -24.009  0.00  0.00    +0.162 A 
ATOM      5  C   UNL     1      -0.968   4.266 -23.911  0.00  0.00    +0.050 A 
ATOM      6  C   UNL     1      -0.209   5.221 -23.625  0.00  0.00    +0.008 A 
ATOM      7  C   UNL     1       1.010   5.018 -23.435  0.00  0.00    -0.034 A 
ATOM      8  C   UNL     1       1.784   5.985 -23.144  0.00  0.00    +0.094 C 
ATOM      9  C   UNL     1       3.003   5.785 -22.954  0.00  0.00    +0.096 C 
ATOM     10  C   UNL     1       3.463   4.611 -23.053  0.00  0.00    -0.007 C 
ATOM     11  C   UNL     1       4.696   4.405 -22.861  0.00  0.00    +0.009 C 
ATOM     12  C   UNL     1       5.166   3.249 -22.955  0.00  0.00    +0.045 C 
ATOM     13  N   UNL     1       4.400   5.657 -22.720  0.00  0.00    +0.239 N 
ATOM     14  H   UNL     1       4.968   6.473 -22.490  0.00  0.00    +0.204 HD
ATOM     15  C   UNL     1       5.108   6.651 -22.437  0.00  0.00    +0.191 C 
ATOM     16  C   UNL     1       4.955   4.364 -22.820  0.00  0.00    +0.133 C 
ATOM     17  C   UNL     1       4.076   3.308 -23.144  0.00  0.00    +0.071 C 
ATOM     18  C   UNL     1       1.490   3.858 -23.528  0.00  0.00    +0.016 A 
ATOM     19  C   UNL     1       4.413   2.277 -23.243  0.00  0.00    +0.144 C 
ATOM     20  C   UNL     1       2.709   3.653 -23.339  0.00  0.00    +0.080 C 
ENDROOT
BRANCH   4  21
ATOM     21  O   UNL     1      -1.263   2.139 -24.296  0.00  0.00    -0.491 OA
ATOM     22  C   UNL     1      -2.468   2.352 -24.553  0.00  0.00    +0.277 C 
ENDBRANCH   4  21
BRANCH  19  23
ATOM     23  O   UNL     1       5.119   1.123 -23.294  0.00  0.00    -0.495 OA
ATOM     24  C   UNL     1       6.097   0.930 -22.478  0.00  0.00    +0.276 C 
ENDBRANCH  19  23
BRANCH   1  25
ATOM     25  C   UNL     1       3.341   1.139 -23.615  0.00  0.00    +0.167 C 
BRANCH  25  26
ATOM     26  O   UNL     1       3.600   0.695 -24.751  0.00  0.00    -0.387 OA
ATOM     27  H   UNL     1       4.546   0.801 -24.932  0.00  0.00    +0.210 HD
ENDBRANCH  25  26
BRANCH  25  28
ATOM     28  C   UNL     1       3.227   0.324 -22.657  0.00  0.00    +0.036 C 
BRANCH  28  29
ATOM     29  C   UNL     1       2.281   0.385 -21.824  0.00  0.00    +0.002 C 
BRANCH  29  31
ATOM     30  C   UNL     1       1.669   1.715 -20.171  0.00  0.00    +0.004 C 
ATOM     31  C   UNL     1       2.504   0.934 -20.690  0.00  0.00    -0.003 C 
ENDBRANCH  29  31
ENDBRANCH  28  29
ENDBRANCH  25  28
ENDBRANCH   1  25
TORSDOF 7
ENDMDL
MODEL 5
REMARK VINA RESULT:    -6.927      4.361      7.993
REMARK INTER + INTRA:          -1.813
REMARK INTER:                  -9.225
REMARK INTRA:                   7.413
REMARK UNBOUND:                 7.746
REMARK  Name = CCCC[C@@H](O)[C@]12Oc3c(OC)ccc4c3[C@]13CCN(C)[C@H](C4)C3=CC=C2OC     ZINC000100393888
REMARK  11 active torsions:
REMARK  status: ('A' for Active; 'I' for Inactive)
REMARK    1  A    between atoms: C_1  and  C_2
REMARK    2  A    between atoms: C_2  and  C_3
REMARK    3  A    between atoms: C_3  and  C_4
REMARK    4  A    between atoms: C_4  and  C_5
REMARK    5  A    between atoms: C_5  and  O_6
REMARK    6  A    between atoms: C_5  and  C_7
REMARK    7  A    between atoms: C_10  and  O_11
REMARK    8  A    between atoms: O_11  and  C_12
REMARK    9  A    between atoms: N_20  and  C_21
REMARK   10  A    between atoms: C_27  and  O_28
REMARK   11  A    between atoms: O_28  and  C_29
REMARK                            x       y       z     vdW  Elec       q    Type
REMARK                         _______ _______ _______ _____ _____    ______ ____
ROOT
ATOM      1  C   UNL     1       3.162   4.706 -23.319  0.00  0.00    +0.206 C 
ATOM      2  O   UNL     1       2.835   6.154 -23.033  0.00  0.00    -0.470 OA
ATOM      3  C   UNL     1       3.974   6.926 -22.442  0.00  0.00    +0.168 A 
ATOM      4  C   UNL     1       4.384   8.041 -22.001  0.00  0.00    +0.162 A 
ATOM      5  C   UNL     1       5.570   8.153 -21.574  0.00  0.00    +0.050 A 
ATOM      6  C   UNL     1       6.338   7.164 -21.587  0.00  0.00    +0.008 A 
ATOM      7  C   UNL     1       5.936   6.063 -22.022  0.00  0.00    -0.034 A 
ATOM      8  C   UNL     1       6.714   5.056 -22.036  0.00  0.00    +0.094 C 
ATOM      9  C   UNL     1       6.314   3.954 -22.470  0.00  0.00    +0.096 C 
ATOM     10  C   UNL     1       5.127   3.847 -22.896  0.00  0.00    -0.007 C 
ATOM     11  C   UNL     1       4.720   2.733 -23.336  0.00  0.00    +0.009 C 
ATOM     12  C   UNL     1       3.549   2.611 -23.760  0.00  0.00    +0.045 C 
ATOM     13  N   UNL     1       5.952   2.662 -22.944  0.00  0.00    +0.239 N 
ATOM     14  H   UNL     1       6.622   1.894 -22.929  0.00  0.00    +0.204 HD
ATOM     15  C   UNL     1       6.766   1.711 -22.931  0.00  0.00    +0.191 C 
ATOM     16  C   UNL     1       4.637   2.499 -23.427  0.00  0.00    +0.133 C 
ATOM     17  C   UNL     1       3.793   3.630 -23.401  0.00  0.00    +0.071 C 
ATOM     18  C   UNL     1       4.759   5.932 -22.450  0.00  0.00    +0.016 A 
ATOM     19  C   UNL     1       2.763   3.599 -23.753  0.00  0.00    +0.144 C 
ATOM     20  C   UNL     1       4.355   4.832 -22.886  0.00  0.00    +0.080 C 
ENDROOT
BRANCH   4  21
ATOM     21  O   UNL     1       3.616   9.031 -21.988  0.00  0.00    -0.491 OA
ATOM     22  C   UNL     1       4.014  10.139 -22.409  0.00  0.00    +0.277 C 
ENDBRANCH   4  21
BRANCH  19  23
ATOM     23  O   UNL     1       1.553   3.254 -24.252  0.00  0.00    -0.495 OA
ATOM     24  C   UNL     1       1.468   2.347 -25.164  0.00  0.00    +0.276 C 
ENDBRANCH  19  23
BRANCH   1  25
ATOM     25  C   UNL     1       1.876   4.938 -23.685  0.00  0.00    +0.167 C 
BRANCH  25  26
ATOM     26  O   UNL     1       1.617   5.246 -24.865  0.00  0.00    -0.387 OA
ATOM     27  H   UNL     1       0.726   4.937 -25.091  0.00  0.00    +0.210 HD
ENDBRANCH  25  26
BRANCH  25  28
ATOM     28  C   UNL     1       0.925   4.850 -22.859  0.00  0.00    +0.036 C 
BRANCH  28  29
ATOM     29  C   UNL     1      -0.223   5.317 -23.095  0.00  0.00    +0.002 C 
BRANCH  29  31
ATOM     30  C   UNL     1      -2.078   4.206 -23.547  0.00  0.00    +0.004 C 
ATOM     31  C   UNL     1      -1.243   4.643 -22.716  0.00  0.00    -0.003 C 
ENDBRANCH  29  31
ENDBRANCH  28  29
ENDBRANCH  25  28
ENDBRANCH   1  25
TORSDOF 7
ENDMDL
MODEL 6
REMARK VINA RESULT:    -6.908      5.298      8.985
REMARK INTER + INTRA:          -1.787
REMARK INTER:                  -9.171
REMARK INTRA:                   7.384
REMARK UNBOUND:                 7.746
REMARK  Name = CCCC[C@@H](O)[C@]12Oc3c(OC)ccc4c3[C@]13CCN(C)[C@H](C4)C3=CC=C2OC     ZINC000100393888
REMARK  11 active torsions:
REMARK  status: ('A' for Active; 'I' for Inactive)
REMARK    1  A    between atoms: C_1  and  C_2
REMARK    2  A    between atoms: C_2  and  C_3
REMARK    3  A    between atoms: C_3  and  C_4
REMARK    4  A    between atoms: C_4  and  C_5
REMARK    5  A    between atoms: C_5  and  O_6
REMARK    6  A    between atoms: C_5  and  C_7
REMARK    7  A    between atoms: C_10  and  O_11
REMARK    8  A    between atoms: O_11  and  C_12
REMARK    9  A    between atoms: N_20  and  C_21
REMARK   10  A    between atoms: C_27  and  O_28
REMARK   11  A    between atoms: O_28  and  C_29
REMARK                            x       y       z     vdW  Elec       q    Type
REMARK                         _______ _______ _______ _____ _____    ______ ____
ROOT
ATOM      1  C   UNL     1       4.755   4.563 -22.972  0.00  0.00    +0.206 C 
ATOM      2  O   UNL     1       4.071   5.726 -22.291  0.00  0.00    -0.470 OA
ATOM      3  C   UNL     1       5.005   6.829 -21.897  0.00  0.00    +0.168 A 
ATOM      4  C   UNL     1       5.131   7.969 -21.357  0.00  0.00    +0.162 A 
ATOM      5  C   UNL     1       6.274   8.504 -21.275  0.00  0.00    +0.050 A 
ATOM      6  C   UNL     1       7.280   7.909 -21.727  0.00  0.00    +0.008 A 
ATOM      7  C   UNL     1       7.157   6.785 -22.260  0.00  0.00    -0.034 A 
ATOM      8  C   UNL     1       8.177   6.178 -22.719  0.00  0.00    +0.094 C 
ATOM      9  C   UNL     1       8.056   5.054 -23.253  0.00  0.00    +0.096 C 
ATOM     10  C   UNL     1       6.911   4.523 -23.333  0.00  0.00    -0.007 C 
ATOM     11  C   UNL     1       6.786   3.386 -23.872  0.00  0.00    +0.009 C 
ATOM     12  C   UNL     1       5.660   2.848 -23.959  0.00  0.00    +0.045 C 
ATOM     13  N   UNL     1       8.021   3.776 -23.876  0.00  0.00    +0.239 N 
ATOM     14  H   UNL     1       8.875   3.341 -24.225  0.00  0.00    +0.204 HD
ATOM     15  C   UNL     1       9.062   3.231 -24.309  0.00  0.00    +0.191 C 
ATOM     16  C   UNL     1       6.763   3.148 -23.986  0.00  0.00    +0.133 C 
ATOM     17  C   UNL     1       5.647   3.841 -23.468  0.00  0.00    +0.071 C 
ATOM     18  C   UNL     1       6.028   6.237 -22.350  0.00  0.00    +0.016 A 
ATOM     19  C   UNL     1       4.637   3.435 -23.508  0.00  0.00    +0.144 C 
ATOM     20  C   UNL     1       5.902   5.112 -22.883  0.00  0.00    +0.080 C 
ENDROOT
BRANCH   4  21
ATOM     21  O   UNL     1       4.125   8.564 -20.905  0.00  0.00    -0.491 OA
ATOM     22  C   UNL     1       4.182   9.787 -20.650  0.00  0.00    +0.277 C 
ENDBRANCH   4  21
BRANCH  19  23
ATOM     23  O   UNL     1       3.528   2.683 -23.702  0.00  0.00    -0.495 OA
ATOM     24  C   UNL     1       3.609   1.572 -24.349  0.00  0.00    +0.276 C 
ENDBRANCH  19  23
BRANCH   1  25
ATOM     25  C   UNL     1       3.427   4.296 -22.893  0.00  0.00    +0.167 C 
BRANCH  25  26
ATOM     26  O   UNL     1       3.009   3.490 -22.037  0.00  0.00    -0.387 OA
ATOM     27  H   UNL     1       2.993   2.597 -22.414  0.00  0.00    +0.210 HD
ENDBRANCH  25  26
BRANCH  25  28
ATOM     28  C   UNL     1       2.594   4.843 -23.668  0.00  0.00    +0.036 C 
BRANCH  28  29
ATOM     29  C   UNL     1       1.355   4.860 -23.427  0.00  0.00    +0.002 C 
BRANCH  29  31
ATOM     30  C   UNL     1       0.974   4.093 -25.463  0.00  0.00    +0.004 C 
ATOM     31  C   UNL     1       0.556   4.421 -24.325  0.00  0.00    -0.003 C 
ENDBRANCH  29  31
ENDBRANCH  28  29
ENDBRANCH  25  28
ENDBRANCH   1  25
TORSDOF 7
ENDMDL
MODEL 7
REMARK VINA RESULT:    -6.899      2.256      4.626
REMARK INTER + INTRA:          -1.775
REMARK INTER:                 -10.040
REMARK INTRA:                   8.265
REMARK UNBOUND:                 7.746
REMARK  Name = CCCC[C@@H](O)[C@]12Oc3c(OC)ccc4c3[C@]13CCN(C)[C@H](C4)C3=CC=C2OC     ZINC000100393888
REMARK  11 active torsions:
REMARK  status: ('A' for Active; 'I' for Inactive)
REMARK    1  A    between atoms: C_1  and  C_2
REMARK    2  A    between atoms: C_2  and  C_3
REMARK    3  A    between atoms: C_3  and  C_4
REMARK    4  A    between atoms: C_4  and  C_5
REMARK    5  A    between atoms: C_5  and  O_6
REMARK    6  A    between atoms: C_5  and  C_7
REMARK    7  A    between atoms: C_10  and  O_11
REMARK    8  A    between atoms: O_11  and  C_12
REMARK    9  A    between atoms: N_20  and  C_21
REMARK   10  A    between atoms: C_27  and  O_28
REMARK   11  A    between atoms: O_28  and  C_29
REMARK                            x       y       z     vdW  Elec       q    Type
REMARK                         _______ _______ _______ _____ _____    ______ ____
ROOT
ATOM      1  C   UNL     1       0.605   2.645 -24.024  0.00  0.00    +0.206 C 
ATOM      2  O   UNL     1      -0.450   3.234 -24.933  0.00  0.00    -0.470 OA
ATOM      3  C   UNL     1      -1.810   3.310 -24.310  0.00  0.00    +0.168 A 
ATOM      4  C   UNL     1      -3.024   3.644 -24.454  0.00  0.00    +0.162 A 
ATOM      5  C   UNL     1      -3.841   3.471 -23.503  0.00  0.00    +0.050 A 
ATOM      6  C   UNL     1      -3.451   2.971 -22.423  0.00  0.00    +0.008 A 
ATOM      7  C   UNL     1      -2.254   2.641 -22.280  0.00  0.00    -0.034 A 
ATOM      8  C   UNL     1      -1.855   2.133 -21.184  0.00  0.00    +0.094 C 
ATOM      9  C   UNL     1      -0.659   1.802 -21.038  0.00  0.00    +0.096 C 
ATOM     10  C   UNL     1       0.155   1.977 -21.991  0.00  0.00    -0.007 C 
ATOM     11  C   UNL     1       1.366   1.644 -21.847  0.00  0.00    +0.009 C 
ATOM     12  C   UNL     1       2.183   1.810 -22.781  0.00  0.00    +0.045 C 
ATOM     13  N   UNL     1       0.679   1.395 -20.778  0.00  0.00    +0.239 N 
ATOM     14  H   UNL     1       0.937   0.994 -19.877  0.00  0.00    +0.204 HD
ATOM     15  C   UNL     1       1.009   0.901 -19.675  0.00  0.00    +0.191 C 
ATOM     16  C   UNL     1       1.620   1.573 -21.814  0.00  0.00    +0.133 C 
ATOM     17  C   UNL     1       1.153   2.138 -23.020  0.00  0.00    +0.071 C 
ATOM     18  C   UNL     1      -1.427   2.806 -23.214  0.00  0.00    +0.016 A 
ATOM     19  C   UNL     1       1.805   2.313 -23.875  0.00  0.00    +0.144 C 
ATOM     20  C   UNL     1      -0.228   2.476 -23.073  0.00  0.00    +0.080 C 
ENDROOT
BRANCH   4  21
ATOM     21  O   UNL     1      -3.414   4.144 -25.534  0.00  0.00    -0.491 OA
ATOM     22  C   UNL     1      -3.535   3.426 -26.550  0.00  0.00    +0.277 C 
ENDBRANCH   4  21
BRANCH  19  23
ATOM     23  O   UNL     1       2.840   2.404 -24.743  0.00  0.00    -0.495 OA
ATOM     24  C   UNL     1       4.049   2.259 -24.321  0.00  0.00    +0.276 C 
ENDBRANCH  19  23
BRANCH   1  25
ATOM     25  C   UNL     1       1.186   2.962 -25.208  0.00  0.00    +0.167 C 
BRANCH  25  26
ATOM     26  O   UNL     1       1.358   2.075 -26.068  0.00  0.00    -0.387 OA
ATOM     27  H   UNL     1       1.796   2.457 -26.844  0.00  0.00    +0.210 HD
ENDBRANCH  25  26
BRANCH  25  28
ATOM     28  C   UNL     1       1.561   4.139 -25.469  0.00  0.00    +0.036 C 
BRANCH  28  29
ATOM     29  C   UNL     1       1.380   5.101 -24.672  0.00  0.00    +0.002 C 
BRANCH  29  31
ATOM     30  C   UNL     1       2.397   5.626 -22.784  0.00  0.00    +0.004 C 
ATOM     31  C   UNL     1       2.391   5.563 -24.038  0.00  0.00    -0.003 C 
ENDBRANCH  29  31
ENDBRANCH  28  29
ENDBRANCH  25  28
ENDBRANCH   1  25
TORSDOF 7
ENDMDL
MODEL 8
REMARK VINA RESULT:    -6.888      4.838      7.501
REMARK INTER + INTRA:          -1.759
REMARK INTER:                  -9.649
REMARK INTRA:                   7.890
REMARK UNBOUND:                 7.746
REMARK  Name = CCCC[C@@H](O)[C@]12Oc3c(OC)ccc4c3[C@]13CCN(C)[C@H](C4)C3=CC=C2OC     ZINC000100393888
REMARK  11 active torsions:
REMARK  status: ('A' for Active; 'I' for Inactive)
REMARK    1  A    between atoms: C_1  and  C_2
REMARK    2  A    between atoms: C_2  and  C_3
REMARK    3  A    between atoms: C_3  and  C_4
REMARK    4  A    between atoms: C_4  and  C_5
REMARK    5  A    between atoms: C_5  and  O_6
REMARK    6  A    between atoms: C_5  and  C_7
REMARK    7  A    between atoms: C_10  and  O_11
REMARK    8  A    between atoms: O_11  and  C_12
REMARK    9  A    between atoms: N_20  and  C_21
REMARK   10  A    between atoms: C_27  and  O_28
REMARK   11  A    between atoms: O_28  and  C_29
REMARK                            x       y       z     vdW  Elec       q    Type
REMARK                         _______ _______ _______ _____ _____    ______ ____
ROOT
ATOM      1  C   UNL     1       5.306   3.972 -23.174  0.00  0.00    +0.206 C 
ATOM      2  O   UNL     1       4.636   2.783 -23.824  0.00  0.00    -0.470 OA
ATOM      3  C   UNL     1       3.177   2.985 -24.094  0.00  0.00    +0.168 A 
ATOM      4  C   UNL     1       2.106   2.490 -24.556  0.00  0.00    +0.162 A 
ATOM      5  C   UNL     1       1.038   3.168 -24.536  0.00  0.00    +0.050 A 
ATOM      6  C   UNL     1       1.039   4.327 -24.061  0.00  0.00    +0.008 A 
ATOM      7  C   UNL     1       2.094   4.818 -23.604  0.00  0.00    -0.034 A 
ATOM      8  C   UNL     1       2.098   5.994 -23.121  0.00  0.00    +0.094 C 
ATOM      9  C   UNL     1       3.153   6.486 -22.664  0.00  0.00    +0.096 C 
ATOM     10  C   UNL     1       4.218   5.805 -22.686  0.00  0.00    -0.007 C 
ATOM     11  C   UNL     1       5.286   6.300 -22.224  0.00  0.00    +0.009 C 
ATOM     12  C   UNL     1       6.348   5.637 -22.239  0.00  0.00    +0.045 C 
ATOM     13  N   UNL     1       4.299   7.131 -22.122  0.00  0.00    +0.239 N 
ATOM     14  H   UNL     1       4.238   8.078 -21.748  0.00  0.00    +0.204 HD
ATOM     15  C   UNL     1       4.237   8.294 -21.660  0.00  0.00    +0.191 C 
ATOM     16  C   UNL     1       5.509   6.406 -22.127  0.00  0.00    +0.133 C 
ATOM     17  C   UNL     1       5.478   5.103 -22.669  0.00  0.00    +0.071 C 
ATOM     18  C   UNL     1       3.166   4.158 -23.616  0.00  0.00    +0.016 A 
ATOM     19  C   UNL     1       6.363   4.469 -22.715  0.00  0.00    +0.144 C 
ATOM     20  C   UNL     1       4.224   4.646 -23.159  0.00  0.00    +0.080 C 
ENDROOT
BRANCH   4  21
ATOM     21  O   UNL     1       2.105   1.331 -25.032  0.00  0.00    -0.491 OA
ATOM     22  C   UNL     1       3.050   0.550 -24.784  0.00  0.00    +0.277 C 
ENDBRANCH   4  21
BRANCH  19  23
ATOM     23  O   UNL     1       7.604   3.933 -22.634  0.00  0.00    -0.495 OA
ATOM     24  C   UNL     1       8.621   4.696 -22.423  0.00  0.00    +0.276 C 
ENDBRANCH  19  23
BRANCH   1  25
ATOM     25  C   UNL     1       6.234   2.998 -23.349  0.00  0.00    +0.167 C 
BRANCH  25  26
ATOM     26  O   UNL     1       6.881   2.946 -24.414  0.00  0.00    -0.387 OA
ATOM     27  H   UNL     1       7.565   2.262 -24.343  0.00  0.00    +0.210 HD
ENDBRANCH  25  26
BRANCH  25  28
ATOM     28  C   UNL     1       6.463   2.133 -22.458  0.00  0.00    +0.036 C 
BRANCH  28  29
ATOM     29  C   UNL     1       5.726   1.123 -22.288  0.00  0.00    +0.002 C 
BRANCH  29  31
ATOM     30  C   UNL     1       3.961   0.677 -21.037  0.00  0.00    +0.004 C 
ATOM     31  C   UNL     1       5.182   0.954 -21.142  0.00  0.00    -0.003 C 
ENDBRANCH  29  31
ENDBRANCH  28  29
ENDBRANCH  25  28
ENDBRANCH   1  25
TORSDOF 7
ENDMDL
MODEL 9
REMARK VINA RESULT:    -6.348      5.536      8.508
REMARK INTER + INTRA:          -1.014
REMARK INTER:                  -8.761
REMARK INTRA:                   7.746
REMARK UNBOUND:                 7.746
REMARK  Name = CCCC[C@@H](O)[C@]12Oc3c(OC)ccc4c3[C@]13CCN(C)[C@H](C4)C3=CC=C2OC     ZINC000100393888
REMARK  11 active torsions:
REMARK  status: ('A' for Active; 'I' for Inactive)
REMARK    1  A    between atoms: C_1  and  C_2
REMARK    2  A    between atoms: C_2  and  C_3
REMARK    3  A    between atoms: C_3  and  C_4
REMARK    4  A    between atoms: C_4  and  C_5
REMARK    5  A    between atoms: C_5  and  O_6
REMARK    6  A    between atoms: C_5  and  C_7
REMARK    7  A    between atoms: C_10  and  O_11
REMARK    8  A    between atoms: O_11  and  C_12
REMARK    9  A    between atoms: N_20  and  C_21
REMARK   10  A    between atoms: C_27  and  O_28
REMARK   11  A    between atoms: O_28  and  C_29
REMARK                            x       y       z     vdW  Elec       q    Type
REMARK                         _______ _______ _______ _____ _____    ______ ____
ROOT
ATOM      1  C   UNL     1       6.114   4.663 -22.751  0.00  0.00    +0.206 C 
ATOM      2  O   UNL     1       5.700   3.327 -23.323  0.00  0.00    -0.470 OA
ATOM      3  C   UNL     1       4.237   3.228 -23.630  0.00  0.00    +0.168 A 
ATOM      4  C   UNL     1       3.293   2.507 -24.071  0.00  0.00    +0.162 A 
ATOM      5  C   UNL     1       2.116   2.969 -24.118  0.00  0.00    +0.050 A 
ATOM      6  C   UNL     1       1.884   4.137 -23.728  0.00  0.00    +0.008 A 
ATOM      7  C   UNL     1       2.814   4.850 -23.292  0.00  0.00    -0.034 A 
ATOM      8  C   UNL     1       2.582   6.036 -22.895  0.00  0.00    +0.094 C 
ATOM      9  C   UNL     1       3.510   6.750 -22.459  0.00  0.00    +0.096 C 
ATOM     10  C   UNL     1       4.685   6.284 -22.415  0.00  0.00    -0.007 C 
ATOM     11  C   UNL     1       5.627   7.004 -21.974  0.00  0.00    +0.009 C 
ATOM     12  C   UNL     1       6.795   6.557 -21.924  0.00  0.00    +0.045 C 
ATOM     13  N   UNL     1       4.498   7.637 -21.948  0.00  0.00    +0.239 N 
ATOM     14  H   UNL     1       4.248   8.579 -21.646  0.00  0.00    +0.204 HD
ATOM     15  C   UNL     1       4.203   8.796 -21.573  0.00  0.00    +0.191 C 
ATOM     16  C   UNL     1       5.822   7.157 -21.881  0.00  0.00    +0.133 C 
ATOM     17  C   UNL     1       6.055   5.838 -22.327  0.00  0.00    +0.071 C 
ATOM     18  C   UNL     1       3.991   4.407 -23.239  0.00  0.00    +0.016 A 
ATOM     19  C   UNL     1       7.044   5.383 -22.313  0.00  0.00    +0.144 C 
ATOM     20  C   UNL     1       4.924   5.118 -22.803  0.00  0.00    +0.080 C 
ENDROOT
BRANCH   4  21
ATOM     21  O   UNL     1       3.525   1.339 -24.461  0.00  0.00    -0.491 OA
ATOM     22  C   UNL     1       3.035   0.365 -23.849  0.00  0.00    +0.277 C 
ENDBRANCH   4  21
BRANCH  19  23
ATOM     23  O   UNL     1       8.361   5.100 -22.175  0.00  0.00    -0.495 OA
ATOM     24  C   UNL     1       9.047   5.673 -21.246  0.00  0.00    +0.276 C 
ENDBRANCH  19  23
BRANCH   1  25
ATOM     25  C   UNL     1       7.214   3.874 -22.841  0.00  0.00    +0.167 C 
BRANCH  25  26
ATOM     26  O   UNL     1       7.428   3.012 -21.966  0.00  0.00    -0.387 OA
ATOM     27  H   UNL     1       7.825   2.227 -22.375  0.00  0.00    +0.210 HD
ENDBRANCH  25  26
BRANCH  25  28
ATOM     28  C   UNL     1       8.036   3.988 -23.793  0.00  0.00    +0.036 C 
BRANCH  28  29
ATOM     29  C   UNL     1       8.078   3.170 -24.753  0.00  0.00    +0.002 C 
BRANCH  29  31
ATOM     30  C   UNL     1       8.974   3.883 -26.641  0.00  0.00    +0.004 C 
ATOM     31  C   UNL     1       9.062   3.239 -25.567  0.00  0.00    -0.003 C 
ENDBRANCH  29  31
ENDBRANCH  28  29
ENDBRANCH  25  28
ENDBRANCH   1  25
TORSDOF 7
ENDMDL
