MODEL 1
REMARK VINA RESULT:    -8.466      0.000      0.000
REMARK INTER + INTRA:         -12.645
REMARK INTER:                 -12.163
REMARK INTRA:                  -0.482
REMARK UNBOUND:                -0.467
REMARK  Name = ZINC000000105356
REMARK  8 active torsions:
REMARK  status: ('A' for Active; 'I' for Inactive)
REMARK    1  A    between atoms: C_2  and  O_16
REMARK    2  A    between atoms: N_3  and  CA_4
REMARK    3  A    between atoms: CA_4  and  CB_5
REMARK    4  A    between atoms: CA_4  and  C_13
REMARK    5  A    between atoms: CB_5  and  CG_6
REMARK    6  A    between atoms: CZ_9  and  OH_10
REMARK    7  A    between atoms: O_16  and  C_17
REMARK    8  A    between atoms: C_17  and  C_18
REMARK                            x       y       z     vdW  Elec       q    Type
REMARK                         _______ _______ _______ _____ _____    ______ ____
ROOT
ATOM      1  CA  TYR A   1       1.420   3.026 -23.476  0.00  0.00    +0.126 C 
ENDROOT
BRANCH   1   4
ATOM      2  O   UNK A   0      -0.882   1.885 -23.877  0.00  0.00    -0.226 OA
ATOM      3  C   UNK A   0      -0.577   2.338 -22.696  0.00  0.00    +0.401 C 
ATOM      4  N   TYR A   1       0.574   2.909 -22.497  0.00  0.00    -0.273 N 
ATOM      5  H   TYR A   1       0.804   3.252 -21.603  0.00  0.00    +0.153 HD
BRANCH   3   6
ATOM      6  O   UNK A   0      -1.423   2.221 -21.717  0.00  0.00    -0.446 OA
BRANCH   6   7
ATOM      7  C   UNK A   0      -2.195   3.218 -21.401  0.00  0.00    +0.269 C 
BRANCH   7   8
ATOM      8  C   UNK A   0      -3.446   3.211 -21.755  0.00  0.00    -0.010 A 
ATOM      9  C   UNK A   0      -4.338   2.660 -20.986  0.00  0.00    +0.007 A 
ATOM     10  C   UNK A   0      -5.587   2.654 -21.341  0.00  0.00    +0.000 A 
ATOM     11  C   UNK A   0      -5.946   3.198 -22.466  0.00  0.00    +0.000 A 
ATOM     12  C   UNK A   0      -5.055   3.749 -23.236  0.00  0.00    +0.000 A 
ATOM     13  C   UNK A   0      -3.804   3.755 -22.880  0.00  0.00    +0.007 A 
ENDBRANCH   7   8
ENDBRANCH   6   7
ENDBRANCH   3   6
ENDBRANCH   1   4
BRANCH   1  14
ATOM     14  C   TYR A   1       1.352   4.050 -24.274  0.00  0.00    +0.062 C 
ATOM     15  OXT TYR A   1       1.327   3.872 -25.561  0.00  0.00    -0.548 OA
ATOM     16  O   TYR A   1       1.309   5.254 -23.785  0.00  0.00    -0.548 OA
ENDBRANCH   1  14
BRANCH   1  17
ATOM     17  CB  TYR A   1       2.334   2.120 -23.658  0.00  0.00    +0.063 C 
BRANCH  17  18
ATOM     18  CG  TYR A   1       3.169   1.838 -22.704  0.00  0.00    -0.045 A 
ATOM     19  CD2 TYR A   1       4.174   2.626 -22.465  0.00  0.00    +0.007 A 
ATOM     20  CE2 TYR A   1       5.011   2.345 -21.510  0.00  0.00    +0.045 A 
ATOM     21  CZ  TYR A   1       4.841   1.273 -20.794  0.00  0.00    +0.117 A 
ATOM     22  CE1 TYR A   1       3.836   0.484 -21.032  0.00  0.00    +0.045 A 
ATOM     23  CD1 TYR A   1       2.999   0.766 -21.988  0.00  0.00    +0.007 A 
BRANCH  21  24
ATOM     24  OH  TYR A   1       5.676   0.990 -19.839  0.00  0.00    -0.507 OA
ATOM     25  HH  TYR A   1       5.851   0.096 -19.619  0.00  0.00    +0.292 HD
ENDBRANCH  21  24
ENDBRANCH  17  18
ENDBRANCH   1  17
TORSDOF 8
ENDMDL
MODEL 2
REMARK VINA RESULT:    -8.423      1.883      2.811
REMARK INTER + INTRA:         -12.583
REMARK INTER:                 -12.262
REMARK INTRA:                  -0.321
REMARK UNBOUND:                -0.467
REMARK  Name = ZINC000000105356
REMARK  8 active torsions:
REMARK  status: ('A' for Active; 'I' for Inactive)
REMARK    1  A    between atoms: C_2  and  O_16
REMARK    2  A    between atoms: N_3  and  CA_4
REMARK    3  A    between atoms: CA_4  and  CB_5
REMARK    4  A    between atoms: CA_4  and  C_13
REMARK    5  A    between atoms: CB_5  and  CG_6
REMARK    6  A    between atoms: CZ_9  and  OH_10
REMARK    7  A    between atoms: O_16  and  C_17
REMARK    8  A    between atoms: C_17  and  C_18
REMARK                            x       y       z     vdW  Elec       q    Type
REMARK                         _______ _______ _______ _____ _____    ______ ____
ROOT
ATOM      1  CA  TYR A   1       1.799   1.693 -22.413  0.00  0.00    +0.126 C 
ENDROOT
BRANCH   1   4
ATOM      2  O   UNK A   0      -0.640   1.513 -23.295  0.00  0.00    -0.226 OA
ATOM      3  C   UNK A   0      -0.414   1.959 -22.094  0.00  0.00    +0.401 C 
ATOM      4  N   TYR A   1       0.806   2.049 -21.654  0.00  0.00    -0.273 N 
ATOM      5  H   TYR A   1       0.977   2.388 -20.745  0.00  0.00    +0.153 HD
BRANCH   3   6
ATOM      6  O   UNK A   0      -1.407   2.315 -21.336  0.00  0.00    -0.446 OA
BRANCH   6   7
ATOM      7  C   UNK A   0      -2.019   3.442 -21.551  0.00  0.00    +0.269 C 
BRANCH   7   8
ATOM      8  C   UNK A   0      -3.232   3.445 -22.017  0.00  0.00    -0.010 A 
ATOM      9  C   UNK A   0      -4.223   3.087 -21.255  0.00  0.00    +0.007 A 
ATOM     10  C   UNK A   0      -5.436   3.090 -21.721  0.00  0.00    +0.000 A 
ATOM     11  C   UNK A   0      -5.659   3.452 -22.950  0.00  0.00    +0.000 A 
ATOM     12  C   UNK A   0      -4.669   3.810 -23.712  0.00  0.00    +0.000 A 
ATOM     13  C   UNK A   0      -3.455   3.806 -23.245  0.00  0.00    +0.007 A 
ENDBRANCH   7   8
ENDBRANCH   6   7
ENDBRANCH   3   6
ENDBRANCH   1   4
BRANCH   1  14
ATOM     14  C   TYR A   1       2.440   0.589 -22.169  0.00  0.00    +0.062 C 
ATOM     15  OXT TYR A   1       2.446  -0.368 -23.049  0.00  0.00    -0.548 OA
ATOM     16  O   TYR A   1       3.076   0.441 -21.044  0.00  0.00    -0.548 OA
ENDBRANCH   1  14
BRANCH   1  17
ATOM     17  CB  TYR A   1       2.152   2.441 -23.416  0.00  0.00    +0.063 C 
BRANCH  17  18
ATOM     18  CG  TYR A   1       3.145   3.270 -23.292  0.00  0.00    -0.045 A 
ATOM     19  CD2 TYR A   1       2.918   4.524 -23.039  0.00  0.00    +0.007 A 
ATOM     20  CE2 TYR A   1       3.911   5.354 -22.915  0.00  0.00    +0.045 A 
ATOM     21  CZ  TYR A   1       5.133   4.928 -23.043  0.00  0.00    +0.117 A 
ATOM     22  CE1 TYR A   1       5.361   3.673 -23.296  0.00  0.00    +0.045 A 
ATOM     23  CD1 TYR A   1       4.367   2.844 -23.421  0.00  0.00    +0.007 A 
BRANCH  21  24
ATOM     24  OH  TYR A   1       6.127   5.757 -22.919  0.00  0.00    -0.507 OA
ATOM     25  HH  TYR A   1       6.235   6.242 -22.125  0.00  0.00    +0.292 HD
ENDBRANCH  21  24
ENDBRANCH  17  18
ENDBRANCH   1  17
TORSDOF 8
ENDMDL
MODEL 3
REMARK VINA RESULT:    -8.417      1.208      1.878
REMARK INTER + INTRA:         -12.575
REMARK INTER:                 -12.402
REMARK INTRA:                  -0.173
REMARK UNBOUND:                -0.467
REMARK  Name = ZINC000000105356
REMARK  8 active torsions:
REMARK  status: ('A' for Active; 'I' for Inactive)
REMARK    1  A    between atoms: C_2  and  O_16
REMARK    2  A    between atoms: N_3  and  CA_4
REMARK    3  A    between atoms: CA_4  and  CB_5
REMARK    4  A    between atoms: CA_4  and  C_13
REMARK    5  A    between atoms: CB_5  and  CG_6
REMARK    6  A    between atoms: CZ_9  and  OH_10
REMARK    7  A    between atoms: O_16  and  C_17
REMARK    8  A    between atoms: C_17  and  C_18
REMARK                            x       y       z     vdW  Elec       q    Type
REMARK                         _______ _______ _______ _____ _____    ______ ____
ROOT
ATOM      1  CA  TYR A   1       1.670   2.870 -23.642  0.00  0.00    +0.126 C 
ENDROOT
BRANCH   1   4
ATOM      2  O   UNK A   0       0.549   5.216 -23.703  0.00  0.00    -0.226 OA
ATOM      3  C   UNK A   0      -0.111   4.191 -23.251  0.00  0.00    +0.401 C 
ATOM      4  N   TYR A   1       0.450   3.018 -23.221  0.00  0.00    -0.273 N 
ATOM      5  H   TYR A   1      -0.051   2.243 -22.878  0.00  0.00    +0.153 HD
BRANCH   3   6
ATOM      6  O   UNK A   0      -1.332   4.339 -22.830  0.00  0.00    -0.446 OA
BRANCH   6   7
ATOM      7  C   UNK A   0      -2.302   3.693 -23.406  0.00  0.00    +0.269 C 
BRANCH   7   8
ATOM      8  C   UNK A   0      -3.350   3.345 -22.721  0.00  0.00    -0.010 A 
ATOM      9  C   UNK A   0      -3.214   2.653 -21.629  0.00  0.00    +0.007 A 
ATOM     10  C   UNK A   0      -4.263   2.306 -20.945  0.00  0.00    +0.000 A 
ATOM     11  C   UNK A   0      -5.448   2.651 -21.352  0.00  0.00    +0.000 A 
ATOM     12  C   UNK A   0      -5.585   3.343 -22.444  0.00  0.00    +0.000 A 
ATOM     13  C   UNK A   0      -4.536   3.690 -23.129  0.00  0.00    +0.007 A 
ENDBRANCH   7   8
ENDBRANCH   6   7
ENDBRANCH   3   6
ENDBRANCH   1   4
BRANCH   1  14
ATOM     14  C   TYR A   1       1.895   2.345 -24.809  0.00  0.00    +0.062 C 
ATOM     15  OXT TYR A   1       2.298   1.112 -24.901  0.00  0.00    -0.548 OA
ATOM     16  O   TYR A   1       1.717   3.052 -25.886  0.00  0.00    -0.548 OA
ENDBRANCH   1  14
BRANCH   1  17
ATOM     17  CB  TYR A   1       2.666   3.248 -22.896  0.00  0.00    +0.063 C 
BRANCH  17  18
ATOM     18  CG  TYR A   1       3.372   2.363 -22.258  0.00  0.00    -0.045 A 
ATOM     19  CD2 TYR A   1       2.815   1.619 -21.349  0.00  0.00    +0.007 A 
ATOM     20  CE2 TYR A   1       3.521   0.734 -20.710  0.00  0.00    +0.045 A 
ATOM     21  CZ  TYR A   1       4.785   0.593 -20.981  0.00  0.00    +0.117 A 
ATOM     22  CE1 TYR A   1       5.342   1.336 -21.890  0.00  0.00    +0.045 A 
ATOM     23  CD1 TYR A   1       4.635   2.222 -22.529  0.00  0.00    +0.007 A 
BRANCH  21  24
ATOM     24  OH  TYR A   1       5.492  -0.292 -20.342  0.00  0.00    -0.507 OA
ATOM     25  HH  TYR A   1       6.247  -0.026 -19.856  0.00  0.00    +0.292 HD
ENDBRANCH  21  24
ENDBRANCH  17  18
ENDBRANCH   1  17
TORSDOF 8
ENDMDL
MODEL 4
REMARK VINA RESULT:    -8.272      1.870      2.770
REMARK INTER + INTRA:         -12.366
REMARK INTER:                 -12.428
REMARK INTRA:                   0.062
REMARK UNBOUND:                -0.467
REMARK  Name = ZINC000000105356
REMARK  8 active torsions:
REMARK  status: ('A' for Active; 'I' for Inactive)
REMARK    1  A    between atoms: C_2  and  O_16
REMARK    2  A    between atoms: N_3  and  CA_4
REMARK    3  A    between atoms: CA_4  and  CB_5
REMARK    4  A    between atoms: CA_4  and  C_13
REMARK    5  A    between atoms: CB_5  and  CG_6
REMARK    6  A    between atoms: CZ_9  and  OH_10
REMARK    7  A    between atoms: O_16  and  C_17
REMARK    8  A    between atoms: C_17  and  C_18
REMARK                            x       y       z     vdW  Elec       q    Type
REMARK                         _______ _______ _______ _____ _____    ______ ____
ROOT
ATOM      1  CA  TYR A   1       0.024   3.800 -24.282  0.00  0.00    +0.126 C 
ENDROOT
BRANCH   1   4
ATOM      2  O   UNK A   0      -2.019   3.324 -25.818  0.00  0.00    -0.226 OA
ATOM      3  C   UNK A   0      -2.126   4.172 -24.837  0.00  0.00    +0.401 C 
ATOM      4  N   TYR A   1      -1.104   4.409 -24.070  0.00  0.00    -0.273 N 
ATOM      5  H   TYR A   1      -1.185   5.052 -23.328  0.00  0.00    +0.153 HD
BRANCH   3   6
ATOM      6  O   UNK A   0      -3.254   4.782 -24.625  0.00  0.00    -0.446 OA
BRANCH   6   7
ATOM      7  C   UNK A   0      -4.335   4.093 -24.408  0.00  0.00    +0.269 C 
BRANCH   7   8
ATOM      8  C   UNK A   0      -4.544   3.561 -23.241  0.00  0.00    -0.010 A 
ATOM      9  C   UNK A   0      -5.757   3.426 -22.794  0.00  0.00    +0.007 A 
ATOM     10  C   UNK A   0      -5.965   2.894 -21.627  0.00  0.00    +0.000 A 
ATOM     11  C   UNK A   0      -4.960   2.495 -20.906  0.00  0.00    +0.000 A 
ATOM     12  C   UNK A   0      -3.746   2.629 -21.352  0.00  0.00    +0.000 A 
ATOM     13  C   UNK A   0      -3.538   3.162 -22.520  0.00  0.00    +0.007 A 
ENDBRANCH   7   8
ENDBRANCH   6   7
ENDBRANCH   3   6
ENDBRANCH   1   4
BRANCH   1  14
ATOM     14  C   TYR A   1       1.029   4.450 -24.787  0.00  0.00    +0.062 C 
ATOM     15  OXT TYR A   1       1.593   5.406 -24.109  0.00  0.00    -0.548 OA
ATOM     16  O   TYR A   1       1.472   4.146 -25.971  0.00  0.00    -0.548 OA
ENDBRANCH   1  14
BRANCH   1  17
ATOM     17  CB  TYR A   1       0.147   2.539 -23.988  0.00  0.00    +0.063 C 
BRANCH  17  18
ATOM     18  CG  TYR A   1       0.654   2.184 -22.846  0.00  0.00    -0.045 A 
ATOM     19  CD2 TYR A   1      -0.129   1.872 -21.856  0.00  0.00    +0.007 A 
ATOM     20  CE2 TYR A   1       0.377   1.516 -20.712  0.00  0.00    +0.045 A 
ATOM     21  CZ  TYR A   1       1.667   1.473 -20.559  0.00  0.00    +0.117 A 
ATOM     22  CE1 TYR A   1       2.451   1.785 -21.549  0.00  0.00    +0.045 A 
ATOM     23  CD1 TYR A   1       1.944   2.141 -22.693  0.00  0.00    +0.007 A 
BRANCH  21  24
ATOM     24  OH  TYR A   1       2.175   1.118 -19.416  0.00  0.00    -0.507 OA
ATOM     25  HH  TYR A   1       2.479   0.240 -19.292  0.00  0.00    +0.292 HD
ENDBRANCH  21  24
ENDBRANCH  17  18
ENDBRANCH   1  17
TORSDOF 8
ENDMDL
MODEL 5
REMARK VINA RESULT:    -7.962      2.000      3.073
REMARK INTER + INTRA:         -11.920
REMARK INTER:                 -11.652
REMARK INTRA:                  -0.269
REMARK UNBOUND:                -0.467
REMARK  Name = ZINC000000105356
REMARK  8 active torsions:
REMARK  status: ('A' for Active; 'I' for Inactive)
REMARK    1  A    between atoms: C_2  and  O_16
REMARK    2  A    between atoms: N_3  and  CA_4
REMARK    3  A    between atoms: CA_4  and  CB_5
REMARK    4  A    between atoms: CA_4  and  C_13
REMARK    5  A    between atoms: CB_5  and  CG_6
REMARK    6  A    between atoms: CZ_9  and  OH_10
REMARK    7  A    between atoms: O_16  and  C_17
REMARK    8  A    between atoms: C_17  and  C_18
REMARK                            x       y       z     vdW  Elec       q    Type
REMARK                         _______ _______ _______ _____ _____    ______ ____
ROOT
ATOM      1  CA  TYR A   1       2.344   1.848 -22.718  0.00  0.00    +0.126 C 
ENDROOT
BRANCH   1   4
ATOM      2  O   UNK A   0       0.335   2.196 -24.331  0.00  0.00    -0.226 OA
ATOM      3  C   UNK A   0       0.308   2.714 -23.138  0.00  0.00    +0.401 C 
ATOM      4  N   TYR A   1       1.313   2.539 -22.332  0.00  0.00    -0.273 N 
ATOM      5  H   TYR A   1       1.293   2.932 -21.430  0.00  0.00    +0.153 HD
BRANCH   3   6
ATOM      6  O   UNK A   0      -0.722   3.405 -22.753  0.00  0.00    -0.446 OA
BRANCH   6   7
ATOM      7  C   UNK A   0      -1.842   3.324 -23.407  0.00  0.00    +0.269 C 
BRANCH   7   8
ATOM      8  C   UNK A   0      -2.962   3.172 -22.765  0.00  0.00    -0.010 A 
ATOM      9  C   UNK A   0      -4.073   3.605 -23.282  0.00  0.00    +0.007 A 
ATOM     10  C   UNK A   0      -5.192   3.453 -22.639  0.00  0.00    +0.000 A 
ATOM     11  C   UNK A   0      -5.201   2.867 -21.478  0.00  0.00    +0.000 A 
ATOM     12  C   UNK A   0      -4.090   2.433 -20.961  0.00  0.00    +0.000 A 
ATOM     13  C   UNK A   0      -2.970   2.585 -21.604  0.00  0.00    +0.007 A 
ENDBRANCH   7   8
ENDBRANCH   6   7
ENDBRANCH   3   6
ENDBRANCH   1   4
BRANCH   1  14
ATOM     14  C   TYR A   1       2.552   0.663 -22.226  0.00  0.00    +0.062 C 
ATOM     15  OXT TYR A   1       2.963   0.531 -20.999  0.00  0.00    -0.548 OA
ATOM     16  O   TYR A   1       2.349  -0.391 -22.960  0.00  0.00    -0.548 OA
ENDBRANCH   1  14
BRANCH   1  17
ATOM     17  CB  TYR A   1       3.166   2.340 -23.596  0.00  0.00    +0.063 C 
BRANCH  17  18
ATOM     18  CG  TYR A   1       4.113   3.146 -23.219  0.00  0.00    -0.045 A 
ATOM     19  CD2 TYR A   1       5.271   2.671 -22.869  0.00  0.00    +0.007 A 
ATOM     20  CE2 TYR A   1       6.219   3.477 -22.492  0.00  0.00    +0.045 A 
ATOM     21  CZ  TYR A   1       6.009   4.759 -22.466  0.00  0.00    +0.117 A 
ATOM     22  CE1 TYR A   1       4.851   5.236 -22.815  0.00  0.00    +0.045 A 
ATOM     23  CD1 TYR A   1       3.902   4.429 -23.192  0.00  0.00    +0.007 A 
BRANCH  21  24
ATOM     24  OH  TYR A   1       6.956   5.566 -22.089  0.00  0.00    -0.507 OA
ATOM     25  HH  TYR A   1       7.620   5.825 -22.697  0.00  0.00    +0.292 HD
ENDBRANCH  21  24
ENDBRANCH  17  18
ENDBRANCH   1  17
TORSDOF 8
ENDMDL
MODEL 6
REMARK VINA RESULT:    -7.680      1.769      7.413
REMARK INTER + INTRA:         -11.515
REMARK INTER:                 -11.399
REMARK INTRA:                  -0.115
REMARK UNBOUND:                -0.467
REMARK  Name = ZINC000000105356
REMARK  8 active torsions:
REMARK  status: ('A' for Active; 'I' for Inactive)
REMARK    1  A    between atoms: C_2  and  O_16
REMARK    2  A    between atoms: N_3  and  CA_4
REMARK    3  A    between atoms: CA_4  and  CB_5
REMARK    4  A    between atoms: CA_4  and  C_13
REMARK    5  A    between atoms: CB_5  and  CG_6
REMARK    6  A    between atoms: CZ_9  and  OH_10
REMARK    7  A    between atoms: O_16  and  C_17
REMARK    8  A    between atoms: C_17  and  C_18
REMARK                            x       y       z     vdW  Elec       q    Type
REMARK                         _______ _______ _______ _____ _____    ______ ____
ROOT
ATOM      1  CA  TYR A   1      -0.473   3.485 -23.333  0.00  0.00    +0.126 C 
ENDROOT
BRANCH   1   4
ATOM      2  O   UNK A   0       1.268   2.106 -24.684  0.00  0.00    -0.226 OA
ATOM      3  C   UNK A   0       1.136   1.912 -23.404  0.00  0.00    +0.401 C 
ATOM      4  N   TYR A   1       0.264   2.602 -22.729  0.00  0.00    -0.273 N 
ATOM      5  H   TYR A   1       0.165   2.454 -21.761  0.00  0.00    +0.153 HD
BRANCH   3   6
ATOM      6  O   UNK A   0       1.874   1.029 -22.801  0.00  0.00    -0.446 OA
BRANCH   6   7
ATOM      7  C   UNK A   0       3.099   0.832 -23.187  0.00  0.00    +0.269 C 
BRANCH   7   8
ATOM      8  C   UNK A   0       4.058   1.572 -22.714  0.00  0.00    -0.010 A 
ATOM      9  C   UNK A   0       4.404   1.470 -21.465  0.00  0.00    +0.007 A 
ATOM     10  C   UNK A   0       5.362   2.210 -20.993  0.00  0.00    +0.000 A 
ATOM     11  C   UNK A   0       5.974   3.053 -21.771  0.00  0.00    +0.000 A 
ATOM     12  C   UNK A   0       5.629   3.156 -23.020  0.00  0.00    +0.000 A 
ATOM     13  C   UNK A   0       4.670   2.415 -23.491  0.00  0.00    +0.007 A 
ENDBRANCH   7   8
ENDBRANCH   6   7
ENDBRANCH   3   6
ENDBRANCH   1   4
BRANCH   1  14
ATOM     14  C   TYR A   1      -0.196   4.750 -23.220  0.00  0.00    +0.062 C 
ATOM     15  OXT TYR A   1       0.746   5.277 -23.944  0.00  0.00    -0.548 OA
ATOM     16  O   TYR A   1      -0.860   5.489 -22.381  0.00  0.00    -0.548 OA
ENDBRANCH   1  14
BRANCH   1  17
ATOM     17  CB  TYR A   1      -1.489   3.104 -24.049  0.00  0.00    +0.063 C 
BRANCH  17  18
ATOM     18  CG  TYR A   1      -2.695   3.210 -23.575  0.00  0.00    -0.045 A 
ATOM     19  CD2 TYR A   1      -3.628   3.765 -24.290  0.00  0.00    +0.007 A 
ATOM     20  CE2 TYR A   1      -4.834   3.871 -23.817  0.00  0.00    +0.045 A 
ATOM     21  CZ  TYR A   1      -5.107   3.420 -22.628  0.00  0.00    +0.117 A 
ATOM     22  CE1 TYR A   1      -4.174   2.865 -21.913  0.00  0.00    +0.045 A 
ATOM     23  CD1 TYR A   1      -2.968   2.759 -22.387  0.00  0.00    +0.007 A 
BRANCH  21  24
ATOM     24  OH  TYR A   1      -6.313   3.525 -22.154  0.00  0.00    -0.507 OA
ATOM     25  HH  TYR A   1      -6.960   2.883 -22.372  0.00  0.00    +0.292 HD
ENDBRANCH  21  24
ENDBRANCH  17  18
ENDBRANCH   1  17
TORSDOF 8
ENDMDL
MODEL 7
REMARK VINA RESULT:    -7.597      1.512      2.159
REMARK INTER + INTRA:         -11.395
REMARK INTER:                 -11.131
REMARK INTRA:                  -0.265
REMARK UNBOUND:                -0.467
REMARK  Name = ZINC000000105356
REMARK  8 active torsions:
REMARK  status: ('A' for Active; 'I' for Inactive)
REMARK    1  A    between atoms: C_2  and  O_16
REMARK    2  A    between atoms: N_3  and  CA_4
REMARK    3  A    between atoms: CA_4  and  CB_5
REMARK    4  A    between atoms: CA_4  and  C_13
REMARK    5  A    between atoms: CB_5  and  CG_6
REMARK    6  A    between atoms: CZ_9  and  OH_10
REMARK    7  A    between atoms: O_16  and  C_17
REMARK    8  A    between atoms: C_17  and  C_18
REMARK                            x       y       z     vdW  Elec       q    Type
REMARK                         _______ _______ _______ _____ _____    ______ ____
ROOT
ATOM      1  CA  TYR A   1       1.281   3.519 -23.563  0.00  0.00    +0.126 C 
ENDROOT
BRANCH   1   4
ATOM      2  O   UNK A   0      -0.580   5.175 -22.818  0.00  0.00    -0.226 OA
ATOM      3  C   UNK A   0      -0.701   3.904 -22.568  0.00  0.00    +0.401 C 
ATOM      4  N   TYR A   1       0.229   3.077 -22.940  0.00  0.00    -0.273 N 
ATOM      5  H   TYR A   1       0.137   2.115 -22.750  0.00  0.00    +0.153 HD
BRANCH   3   6
ATOM      6  O   UNK A   0      -1.753   3.463 -21.945  0.00  0.00    -0.446 OA
BRANCH   6   7
ATOM      7  C   UNK A   0      -2.544   2.611 -22.528  0.00  0.00    +0.269 C 
BRANCH   7   8
ATOM      8  C   UNK A   0      -3.313   2.997 -23.502  0.00  0.00    -0.010 A 
ATOM      9  C   UNK A   0      -4.401   3.662 -23.248  0.00  0.00    +0.007 A 
ATOM     10  C   UNK A   0      -5.169   4.048 -24.222  0.00  0.00    +0.000 A 
ATOM     11  C   UNK A   0      -4.851   3.768 -25.451  0.00  0.00    +0.000 A 
ATOM     12  C   UNK A   0      -3.764   3.102 -25.706  0.00  0.00    +0.000 A 
ATOM     13  C   UNK A   0      -2.995   2.717 -24.731  0.00  0.00    +0.007 A 
ENDBRANCH   7   8
ENDBRANCH   6   7
ENDBRANCH   3   6
ENDBRANCH   1   4
BRANCH   1  14
ATOM     14  C   TYR A   1       1.272   3.626 -24.858  0.00  0.00    +0.062 C 
ATOM     15  OXT TYR A   1       1.229   2.558 -25.599  0.00  0.00    -0.548 OA
ATOM     16  O   TYR A   1       1.306   4.801 -25.414  0.00  0.00    -0.548 OA
ENDBRANCH   1  14
BRANCH   1  17
ATOM     17  CB  TYR A   1       2.342   3.854 -22.890  0.00  0.00    +0.063 C 
BRANCH  17  18
ATOM     18  CG  TYR A   1       3.312   3.003 -22.740  0.00  0.00    -0.045 A 
ATOM     19  CD2 TYR A   1       3.049   1.755 -22.485  0.00  0.00    +0.007 A 
ATOM     20  CE2 TYR A   1       4.019   0.903 -22.334  0.00  0.00    +0.045 A 
ATOM     21  CZ  TYR A   1       5.253   1.299 -22.438  0.00  0.00    +0.117 A 
ATOM     22  CE1 TYR A   1       5.517   2.546 -22.692  0.00  0.00    +0.045 A 
ATOM     23  CD1 TYR A   1       4.546   3.398 -22.843  0.00  0.00    +0.007 A 
BRANCH  21  24
ATOM     24  OH  TYR A   1       6.224   0.447 -22.287  0.00  0.00    -0.507 OA
ATOM     25  HH  TYR A   1       6.039  -0.470 -22.241  0.00  0.00    +0.292 HD
ENDBRANCH  21  24
ENDBRANCH  17  18
ENDBRANCH   1  17
TORSDOF 8
ENDMDL
MODEL 8
REMARK VINA RESULT:    -7.558      2.410      4.220
REMARK INTER + INTRA:         -11.340
REMARK INTER:                 -10.764
REMARK INTRA:                  -0.576
REMARK UNBOUND:                -0.467
REMARK  Name = ZINC000000105356
REMARK  8 active torsions:
REMARK  status: ('A' for Active; 'I' for Inactive)
REMARK    1  A    between atoms: C_2  and  O_16
REMARK    2  A    between atoms: N_3  and  CA_4
REMARK    3  A    between atoms: CA_4  and  CB_5
REMARK    4  A    between atoms: CA_4  and  C_13
REMARK    5  A    between atoms: CB_5  and  CG_6
REMARK    6  A    between atoms: CZ_9  and  OH_10
REMARK    7  A    between atoms: O_16  and  C_17
REMARK    8  A    between atoms: C_17  and  C_18
REMARK                            x       y       z     vdW  Elec       q    Type
REMARK                         _______ _______ _______ _____ _____    ______ ____
ROOT
ATOM      1  CA  TYR A   1       3.959   1.572 -21.948  0.00  0.00    +0.126 C 
ENDROOT
BRANCH   1   4
ATOM      2  O   UNK A   0       1.851   0.328 -22.826  0.00  0.00    -0.226 OA
ATOM      3  C   UNK A   0       1.780   1.045 -21.743  0.00  0.00    +0.401 C 
ATOM      4  N   TYR A   1       2.834   1.667 -21.305  0.00  0.00    -0.273 N 
ATOM      5  H   TYR A   1       2.779   2.210 -20.485  0.00  0.00    +0.153 HD
BRANCH   3   6
ATOM      6  O   UNK A   0       0.654   1.141 -21.100  0.00  0.00    -0.446 OA
BRANCH   6   7
ATOM      7  C   UNK A   0      -0.468   1.170 -21.754  0.00  0.00    +0.269 C 
BRANCH   7   8
ATOM      8  C   UNK A   0      -0.908   2.291 -22.244  0.00  0.00    -0.010 A 
ATOM      9  C   UNK A   0      -1.598   3.101 -21.497  0.00  0.00    +0.007 A 
ATOM     10  C   UNK A   0      -2.037   4.222 -21.987  0.00  0.00    +0.000 A 
ATOM     11  C   UNK A   0      -1.786   4.533 -23.224  0.00  0.00    +0.000 A 
ATOM     12  C   UNK A   0      -1.096   3.724 -23.971  0.00  0.00    +0.000 A 
ATOM     13  C   UNK A   0      -0.657   2.602 -23.481  0.00  0.00    +0.007 A 
ENDBRANCH   7   8
ENDBRANCH   6   7
ENDBRANCH   3   6
ENDBRANCH   1   4
BRANCH   1  14
ATOM     14  C   TYR A   1       4.869   0.735 -21.545  0.00  0.00    +0.062 C 
ATOM     15  OXT TYR A   1       4.778   0.192 -20.368  0.00  0.00    -0.548 OA
ATOM     16  O   TYR A   1       5.870   0.441 -22.321  0.00  0.00    -0.548 OA
ENDBRANCH   1  14
BRANCH   1  17
ATOM     17  CB  TYR A   1       4.175   2.313 -22.994  0.00  0.00    +0.063 C 
BRANCH  17  18
ATOM     18  CG  TYR A   1       3.989   3.598 -22.930  0.00  0.00    -0.045 A 
ATOM     19  CD2 TYR A   1       4.986   4.387 -22.657  0.00  0.00    +0.007 A 
ATOM     20  CE2 TYR A   1       4.800   5.672 -22.594  0.00  0.00    +0.045 A 
ATOM     21  CZ  TYR A   1       3.617   6.168 -22.803  0.00  0.00    +0.117 A 
ATOM     22  CE1 TYR A   1       2.620   5.379 -23.075  0.00  0.00    +0.045 A 
ATOM     23  CD1 TYR A   1       2.806   4.094 -23.139  0.00  0.00    +0.007 A 
BRANCH  21  24
ATOM     24  OH  TYR A   1       3.430   7.453 -22.739  0.00  0.00    -0.507 OA
ATOM     25  HH  TYR A   1       3.190   7.930 -23.509  0.00  0.00    +0.292 HD
ENDBRANCH  21  24
ENDBRANCH  17  18
ENDBRANCH   1  17
TORSDOF 8
ENDMDL
MODEL 9
REMARK VINA RESULT:    -7.368      2.837      7.957
REMARK INTER + INTRA:         -11.066
REMARK INTER:                 -10.599
REMARK INTRA:                  -0.467
REMARK UNBOUND:                -0.467
REMARK  Name = ZINC000000105356
REMARK  8 active torsions:
REMARK  status: ('A' for Active; 'I' for Inactive)
REMARK    1  A    between atoms: C_2  and  O_16
REMARK    2  A    between atoms: N_3  and  CA_4
REMARK    3  A    between atoms: CA_4  and  CB_5
REMARK    4  A    between atoms: CA_4  and  C_13
REMARK    5  A    between atoms: CB_5  and  CG_6
REMARK    6  A    between atoms: CZ_9  and  OH_10
REMARK    7  A    between atoms: O_16  and  C_17
REMARK    8  A    between atoms: C_17  and  C_18
REMARK                            x       y       z     vdW  Elec       q    Type
REMARK                         _______ _______ _______ _____ _____    ______ ____
ROOT
ATOM      1  CA  TYR A   1       2.074   2.094 -22.446  0.00  0.00    +0.126 C 
ENDROOT
BRANCH   1   4
ATOM      2  O   UNK A   0       3.993   2.855 -24.026  0.00  0.00    -0.226 OA
ATOM      3  C   UNK A   0       3.702   3.557 -22.971  0.00  0.00    +0.401 C 
ATOM      4  N   TYR A   1       2.742   3.176 -22.181  0.00  0.00    -0.273 N 
ATOM      5  H   TYR A   1       2.522   3.709 -21.382  0.00  0.00    +0.153 HD
BRANCH   3   6
ATOM      6  O   UNK A   0       4.371   4.640 -22.706  0.00  0.00    -0.446 OA
BRANCH   6   7
ATOM      7  C   UNK A   0       5.661   4.661 -22.861  0.00  0.00    +0.269 C 
BRANCH   7   8
ATOM      8  C   UNK A   0       6.419   5.190 -21.946  0.00  0.00    -0.010 A 
ATOM      9  C   UNK A   0       7.194   4.434 -21.226  0.00  0.00    +0.007 A 
ATOM     10  C   UNK A   0       7.950   4.963 -20.311  0.00  0.00    +0.000 A 
ATOM     11  C   UNK A   0       7.932   6.248 -20.116  0.00  0.00    +0.000 A 
ATOM     12  C   UNK A   0       7.157   7.005 -20.836  0.00  0.00    +0.000 A 
ATOM     13  C   UNK A   0       6.400   6.475 -21.751  0.00  0.00    +0.007 A 
ENDBRANCH   7   8
ENDBRANCH   6   7
ENDBRANCH   3   6
ENDBRANCH   1   4
BRANCH   1  14
ATOM     14  C   TYR A   1       2.502   0.944 -22.017  0.00  0.00    +0.062 C 
ATOM     15  OXT TYR A   1       2.869   0.808 -20.777  0.00  0.00    -0.548 OA
ATOM     16  O   TYR A   1       2.564  -0.070 -22.827  0.00  0.00    -0.548 OA
ENDBRANCH   1  14
BRANCH   1  17
ATOM     17  CB  TYR A   1       0.976   2.161 -23.139  0.00  0.00    +0.063 C 
BRANCH  17  18
ATOM     18  CG  TYR A   1      -0.107   2.632 -22.599  0.00  0.00    -0.045 A 
ATOM     19  CD2 TYR A   1      -0.785   1.907 -21.759  0.00  0.00    +0.007 A 
ATOM     20  CE2 TYR A   1      -1.868   2.378 -21.218  0.00  0.00    +0.045 A 
ATOM     21  CZ  TYR A   1      -2.275   3.576 -21.517  0.00  0.00    +0.117 A 
ATOM     22  CE1 TYR A   1      -1.599   4.302 -22.356  0.00  0.00    +0.045 A 
ATOM     23  CD1 TYR A   1      -0.514   3.830 -22.898  0.00  0.00    +0.007 A 
BRANCH  21  24
ATOM     24  OH  TYR A   1      -3.359   4.048 -20.976  0.00  0.00    -0.507 OA
ATOM     25  HH  TYR A   1      -3.653   3.718 -20.150  0.00  0.00    +0.292 HD
ENDBRANCH  21  24
ENDBRANCH  17  18
ENDBRANCH   1  17
TORSDOF 8
ENDMDL
