MODEL 1
REMARK VINA RESULT:   -10.010      0.000      0.000
REMARK INTER + INTRA:          -9.050
REMARK INTER:                 -10.878
REMARK INTRA:                   1.828
REMARK UNBOUND:                 1.838
REMARK  Name = C[C@@H]1CC[C@H](O)[C@]2(CO)CC[C@@H]3[C@@H]([C@H]12)C3(C)C            ZINC000225364252
REMARK  6 active torsions:
REMARK  status: ('A' for Active; 'I' for Inactive)
REMARK    1  A    between atoms: C_1  and  C_2
REMARK    2  A    between atoms: C_5  and  O_6
REMARK    3  A    between atoms: C_7  and  C_8
REMARK    4  A    between atoms: C_8  and  O_9
REMARK    5  A    between atoms: C_15  and  C_16
REMARK    6  A    between atoms: C_15  and  C_17
REMARK                            x       y       z     vdW  Elec       q    Type
REMARK                         _______ _______ _______ _____ _____    ______ ____
ROOT
ATOM      1  C   UNL     1      -3.707   2.499 -21.007  0.00  0.00    +0.008 C 
ATOM      2  C   UNL     1      -3.985   3.002 -22.173  0.00  0.00    -0.010 C 
ATOM      3  C   UNL     1      -5.200   3.374 -22.447  0.00  0.00    +0.006 C 
ATOM      4  C   UNL     1      -5.478   3.877 -23.614  0.00  0.00    +0.032 C 
ATOM      5  C   UNL     1      -4.541   4.008 -24.505  0.00  0.00    +0.123 C 
ATOM      6  C   UNL     1      -3.326   3.636 -24.231  0.00  0.00    +0.023 C 
ATOM      7  C   UNL     1      -2.388   3.767 -25.122  0.00  0.00    +0.012 C 
ATOM      8  C   UNL     1      -1.173   3.396 -24.848  0.00  0.00    +0.005 C 
ATOM      9  C   UNL     1      -0.895   2.893 -23.682  0.00  0.00    -0.001 C 
ATOM     10  C   UNL     1      -1.832   2.762 -22.790  0.00  0.00    +0.003 C 
ATOM     11  C   UNL     1      -0.617   2.390 -22.515  0.00  0.00    -0.028 C 
ATOM     12  C   UNL     1       0.655   2.166 -22.664  0.00  0.00    +0.011 C 
ATOM     13  C   UNL     1      -0.781   1.965 -21.298  0.00  0.00    +0.011 C 
ATOM     14  C   UNL     1      -3.048   3.133 -23.064  0.00  0.00    +0.007 C 
ENDROOT
BRANCH   5  15
ATOM     15  O   UNL     1      -4.819   4.511 -25.672  0.00  0.00    -0.391 OA
ATOM     16  H   UNL     1      -4.692   5.472 -25.647  0.00  0.00    +0.210 HD
ENDBRANCH   5  15
BRANCH   6  17
ATOM     17  C   UNL     1      -3.604   4.139 -25.397  0.00  0.00    +0.165 C 
BRANCH  17  18
ATOM     18  O   UNL     1      -4.078   5.346 -25.488  0.00  0.00    -0.394 OA
ATOM     19  H   UNL     1      -4.692   5.509 -24.754  0.00  0.00    +0.209 HD
ENDBRANCH  17  18
ENDBRANCH   6  17
TORSDOF 3
ENDMDL
MODEL 2
REMARK VINA RESULT:    -9.336      1.408      2.817
REMARK INTER + INTRA:          -8.317
REMARK INTER:                 -10.604
REMARK INTRA:                   2.288
REMARK UNBOUND:                 1.838
REMARK  Name = C[C@@H]1CC[C@H](O)[C@]2(CO)CC[C@@H]3[C@@H]([C@H]12)C3(C)C            ZINC000225364252
REMARK  6 active torsions:
REMARK  status: ('A' for Active; 'I' for Inactive)
REMARK    1  A    between atoms: C_1  and  C_2
REMARK    2  A    between atoms: C_5  and  O_6
REMARK    3  A    between atoms: C_7  and  C_8
REMARK    4  A    between atoms: C_8  and  O_9
REMARK    5  A    between atoms: C_15  and  C_16
REMARK    6  A    between atoms: C_15  and  C_17
REMARK                            x       y       z     vdW  Elec       q    Type
REMARK                         _______ _______ _______ _____ _____    ______ ____
ROOT
ATOM      1  C   UNL     1      -1.691   3.614 -25.494  0.00  0.00    +0.008 C 
ATOM      2  C   UNL     1      -2.757   3.648 -24.751  0.00  0.00    -0.010 C 
ATOM      3  C   UNL     1      -3.874   4.102 -25.238  0.00  0.00    +0.006 C 
ATOM      4  C   UNL     1      -4.940   4.137 -24.494  0.00  0.00    +0.032 C 
ATOM      5  C   UNL     1      -4.889   3.717 -23.265  0.00  0.00    +0.123 C 
ATOM      6  C   UNL     1      -3.773   3.263 -22.778  0.00  0.00    +0.023 C 
ATOM      7  C   UNL     1      -3.722   2.844 -21.549  0.00  0.00    +0.012 C 
ATOM      8  C   UNL     1      -2.605   2.390 -21.062  0.00  0.00    +0.005 C 
ATOM      9  C   UNL     1      -1.539   2.356 -21.806  0.00  0.00    -0.001 C 
ATOM     10  C   UNL     1      -1.589   2.775 -23.035  0.00  0.00    +0.003 C 
ATOM     11  C   UNL     1      -0.473   2.321 -22.549  0.00  0.00    -0.028 C 
ATOM     12  C   UNL     1       0.377   1.818 -21.702  0.00  0.00    +0.011 C 
ATOM     13  C   UNL     1       0.299   2.461 -23.586  0.00  0.00    +0.011 C 
ATOM     14  C   UNL     1      -2.706   3.229 -23.522  0.00  0.00    +0.007 C 
ENDROOT
BRANCH   5  15
ATOM     15  O   UNL     1      -5.956   3.752 -22.522  0.00  0.00    -0.391 OA
ATOM     16  H   UNL     1      -6.732   3.542 -23.062  0.00  0.00    +0.210 HD
ENDBRANCH   5  15
BRANCH   6  17
ATOM     17  C   UNL     1      -4.839   3.298 -22.035  0.00  0.00    +0.165 C 
BRANCH  17  18
ATOM     18  O   UNL     1      -5.956   3.752 -22.521  0.00  0.00    -0.394 OA
ATOM     19  H   UNL     1      -6.702   3.315 -22.081  0.00  0.00    +0.209 HD
ENDBRANCH  17  18
ENDBRANCH   6  17
TORSDOF 3
ENDMDL
MODEL 3
REMARK VINA RESULT:    -9.224      1.845      3.361
REMARK INTER + INTRA:          -8.195
REMARK INTER:                 -10.369
REMARK INTRA:                   2.173
REMARK UNBOUND:                 1.838
REMARK  Name = C[C@@H]1CC[C@H](O)[C@]2(CO)CC[C@@H]3[C@@H]([C@H]12)C3(C)C            ZINC000225364252
REMARK  6 active torsions:
REMARK  status: ('A' for Active; 'I' for Inactive)
REMARK    1  A    between atoms: C_1  and  C_2
REMARK    2  A    between atoms: C_5  and  O_6
REMARK    3  A    between atoms: C_7  and  C_8
REMARK    4  A    between atoms: C_8  and  O_9
REMARK    5  A    between atoms: C_15  and  C_16
REMARK    6  A    between atoms: C_15  and  C_17
REMARK                            x       y       z     vdW  Elec       q    Type
REMARK                         _______ _______ _______ _____ _____    ______ ____
ROOT
ATOM      1  C   UNL     1      -5.173   3.758 -24.224  0.00  0.00    +0.008 C 
ATOM      2  C   UNL     1      -3.954   3.675 -24.669  0.00  0.00    -0.010 C 
ATOM      3  C   UNL     1      -3.727   3.684 -25.948  0.00  0.00    +0.006 C 
ATOM      4  C   UNL     1      -2.508   3.600 -26.393  0.00  0.00    +0.032 C 
ATOM      5  C   UNL     1      -1.516   3.509 -25.557  0.00  0.00    +0.123 C 
ATOM      6  C   UNL     1      -1.744   3.500 -24.277  0.00  0.00    +0.023 C 
ATOM      7  C   UNL     1      -0.752   3.408 -23.442  0.00  0.00    +0.012 C 
ATOM      8  C   UNL     1      -0.979   3.399 -22.162  0.00  0.00    +0.005 C 
ATOM      9  C   UNL     1      -2.198   3.483 -21.717  0.00  0.00    -0.001 C 
ATOM     10  C   UNL     1      -3.190   3.574 -22.553  0.00  0.00    +0.003 C 
ATOM     11  C   UNL     1      -3.417   3.566 -21.273  0.00  0.00    -0.028 C 
ATOM     12  C   UNL     1      -3.194   3.523 -19.993  0.00  0.00    +0.011 C 
ATOM     13  C   UNL     1      -4.713   3.664 -21.273  0.00  0.00    +0.011 C 
ATOM     14  C   UNL     1      -2.963   3.583 -23.833  0.00  0.00    +0.007 C 
ENDROOT
BRANCH   5  15
ATOM     15  O   UNL     1      -0.297   3.425 -26.002  0.00  0.00    -0.391 OA
ATOM     16  H   UNL     1       0.215   2.834 -25.429  0.00  0.00    +0.210 HD
ENDBRANCH   5  15
BRANCH   6  17
ATOM     17  C   UNL     1      -0.525   3.417 -24.722  0.00  0.00    +0.165 C 
BRANCH  17  18
ATOM     18  O   UNL     1      -0.302   3.021 -25.940  0.00  0.00    -0.394 OA
ATOM     19  H   UNL     1      -0.616   2.108 -26.046  0.00  0.00    +0.209 HD
ENDBRANCH  17  18
ENDBRANCH   6  17
TORSDOF 3
ENDMDL
MODEL 4
REMARK VINA RESULT:    -9.137      2.342      4.665
REMARK INTER + INTRA:          -8.100
REMARK INTER:                  -9.936
REMARK INTRA:                   1.836
REMARK UNBOUND:                 1.838
REMARK  Name = C[C@@H]1CC[C@H](O)[C@]2(CO)CC[C@@H]3[C@@H]([C@H]12)C3(C)C            ZINC000225364252
REMARK  6 active torsions:
REMARK  status: ('A' for Active; 'I' for Inactive)
REMARK    1  A    between atoms: C_1  and  C_2
REMARK    2  A    between atoms: C_5  and  O_6
REMARK    3  A    between atoms: C_7  and  C_8
REMARK    4  A    between atoms: C_8  and  O_9
REMARK    5  A    between atoms: C_15  and  C_16
REMARK    6  A    between atoms: C_15  and  C_17
REMARK                            x       y       z     vdW  Elec       q    Type
REMARK                         _______ _______ _______ _____ _____    ______ ____
ROOT
ATOM      1  C   UNL     1      -3.259   4.197 -25.434  0.00  0.00    +0.008 C 
ATOM      2  C   UNL     1      -2.273   3.716 -24.737  0.00  0.00    -0.010 C 
ATOM      3  C   UNL     1      -1.072   3.703 -25.234  0.00  0.00    +0.006 C 
ATOM      4  C   UNL     1      -0.085   3.222 -24.538  0.00  0.00    +0.032 C 
ATOM      5  C   UNL     1      -0.300   2.754 -23.344  0.00  0.00    +0.123 C 
ATOM      6  C   UNL     1      -1.501   2.767 -22.847  0.00  0.00    +0.023 C 
ATOM      7  C   UNL     1      -1.716   2.298 -21.653  0.00  0.00    +0.012 C 
ATOM      8  C   UNL     1      -2.917   2.312 -21.156  0.00  0.00    +0.005 C 
ATOM      9  C   UNL     1      -3.903   2.793 -21.853  0.00  0.00    -0.001 C 
ATOM     10  C   UNL     1      -3.689   3.261 -23.047  0.00  0.00    +0.003 C 
ATOM     11  C   UNL     1      -4.890   3.274 -22.550  0.00  0.00    -0.028 C 
ATOM     12  C   UNL     1      -5.866   3.099 -21.709  0.00  0.00    +0.011 C 
ATOM     13  C   UNL     1      -5.537   3.816 -23.538  0.00  0.00    +0.011 C 
ATOM     14  C   UNL     1      -2.487   3.248 -23.544  0.00  0.00    +0.007 C 
ENDROOT
BRANCH   5  15
ATOM     15  O   UNL     1       0.687   2.272 -22.647  0.00  0.00    -0.391 OA
ATOM     16  H   UNL     1       1.353   1.901 -23.245  0.00  0.00    +0.210 HD
ENDBRANCH   5  15
BRANCH   6  17
ATOM     17  C   UNL     1      -0.514   2.285 -22.150  0.00  0.00    +0.165 C 
BRANCH  17  18
ATOM     18  O   UNL     1       0.046   1.167 -22.503  0.00  0.00    -0.394 OA
ATOM     19  H   UNL     1       0.343   1.231 -23.425  0.00  0.00    +0.209 HD
ENDBRANCH  17  18
ENDBRANCH   6  17
TORSDOF 3
ENDMDL
MODEL 5
REMARK VINA RESULT:    -9.037      1.527      3.674
REMARK INTER + INTRA:          -7.992
REMARK INTER:                  -9.844
REMARK INTRA:                   1.853
REMARK UNBOUND:                 1.838
REMARK  Name = C[C@@H]1CC[C@H](O)[C@]2(CO)CC[C@@H]3[C@@H]([C@H]12)C3(C)C            ZINC000225364252
REMARK  6 active torsions:
REMARK  status: ('A' for Active; 'I' for Inactive)
REMARK    1  A    between atoms: C_1  and  C_2
REMARK    2  A    between atoms: C_5  and  O_6
REMARK    3  A    between atoms: C_7  and  C_8
REMARK    4  A    between atoms: C_8  and  O_9
REMARK    5  A    between atoms: C_15  and  C_16
REMARK    6  A    between atoms: C_15  and  C_17
REMARK                            x       y       z     vdW  Elec       q    Type
REMARK                         _______ _______ _______ _____ _____    ______ ____
ROOT
ATOM      1  C   UNL     1      -1.142   1.957 -21.093  0.00  0.00    +0.008 C 
ATOM      2  C   UNL     1      -0.965   2.430 -22.291  0.00  0.00    -0.010 C 
ATOM      3  C   UNL     1       0.223   2.436 -22.818  0.00  0.00    +0.006 C 
ATOM      4  C   UNL     1       0.400   2.908 -24.016  0.00  0.00    +0.032 C 
ATOM      5  C   UNL     1      -0.611   3.374 -24.688  0.00  0.00    +0.123 C 
ATOM      6  C   UNL     1      -1.799   3.368 -24.161  0.00  0.00    +0.023 C 
ATOM      7  C   UNL     1      -2.811   3.834 -24.832  0.00  0.00    +0.012 C 
ATOM      8  C   UNL     1      -3.999   3.828 -24.305  0.00  0.00    +0.005 C 
ATOM      9  C   UNL     1      -4.176   3.355 -23.107  0.00  0.00    -0.001 C 
ATOM     10  C   UNL     1      -3.165   2.889 -22.435  0.00  0.00    +0.003 C 
ATOM     11  C   UNL     1      -4.353   2.883 -21.908  0.00  0.00    -0.028 C 
ATOM     12  C   UNL     1      -5.635   3.062 -21.782  0.00  0.00    +0.011 C 
ATOM     13  C   UNL     1      -4.086   2.348 -20.754  0.00  0.00    +0.011 C 
ATOM     14  C   UNL     1      -1.976   2.896 -22.962  0.00  0.00    +0.007 C 
ENDROOT
BRANCH   5  15
ATOM     15  O   UNL     1      -0.434   3.847 -25.886  0.00  0.00    -0.391 OA
ATOM     16  H   UNL     1      -0.605   4.801 -25.885  0.00  0.00    +0.210 HD
ENDBRANCH   5  15
BRANCH   6  17
ATOM     17  C   UNL     1      -1.622   3.840 -25.359  0.00  0.00    +0.165 C 
BRANCH  17  18
ATOM     18  O   UNL     1      -1.054   3.107 -26.270  0.00  0.00    -0.394 OA
ATOM     19  H   UNL     1      -0.981   3.614 -27.094  0.00  0.00    +0.209 HD
ENDBRANCH  17  18
ENDBRANCH   6  17
TORSDOF 3
ENDMDL
MODEL 6
REMARK VINA RESULT:    -9.020      1.335      2.239
REMARK INTER + INTRA:          -7.973
REMARK INTER:                 -10.261
REMARK INTRA:                   2.288
REMARK UNBOUND:                 1.838
REMARK  Name = C[C@@H]1CC[C@H](O)[C@]2(CO)CC[C@@H]3[C@@H]([C@H]12)C3(C)C            ZINC000225364252
REMARK  6 active torsions:
REMARK  status: ('A' for Active; 'I' for Inactive)
REMARK    1  A    between atoms: C_1  and  C_2
REMARK    2  A    between atoms: C_5  and  O_6
REMARK    3  A    between atoms: C_7  and  C_8
REMARK    4  A    between atoms: C_8  and  O_9
REMARK    5  A    between atoms: C_15  and  C_16
REMARK    6  A    between atoms: C_15  and  C_17
REMARK                            x       y       z     vdW  Elec       q    Type
REMARK                         _______ _______ _______ _____ _____    ______ ____
ROOT
ATOM      1  C   UNL     1      -1.271   2.242 -21.286  0.00  0.00    +0.008 C 
ATOM      2  C   UNL     1      -2.440   2.615 -21.716  0.00  0.00    -0.010 C 
ATOM      3  C   UNL     1      -3.483   2.493 -20.950  0.00  0.00    +0.006 C 
ATOM      4  C   UNL     1      -4.652   2.867 -21.379  0.00  0.00    +0.032 C 
ATOM      5  C   UNL     1      -4.778   3.363 -22.574  0.00  0.00    +0.123 C 
ATOM      6  C   UNL     1      -3.734   3.485 -23.340  0.00  0.00    +0.023 C 
ATOM      7  C   UNL     1      -3.860   3.982 -24.535  0.00  0.00    +0.012 C 
ATOM      8  C   UNL     1      -2.817   4.104 -25.301  0.00  0.00    +0.005 C 
ATOM      9  C   UNL     1      -1.648   3.731 -24.872  0.00  0.00    -0.001 C 
ATOM     10  C   UNL     1      -1.522   3.234 -23.677  0.00  0.00    +0.003 C 
ATOM     11  C   UNL     1      -0.479   3.357 -24.443  0.00  0.00    -0.028 C 
ATOM     12  C   UNL     1       0.246   3.644 -25.484  0.00  0.00    +0.011 C 
ATOM     13  C   UNL     1       0.438   2.884 -23.653  0.00  0.00    +0.011 C 
ATOM     14  C   UNL     1      -2.565   3.112 -22.911  0.00  0.00    +0.007 C 
ENDROOT
BRANCH   5  15
ATOM     15  O   UNL     1      -5.947   3.737 -23.003  0.00  0.00    -0.391 OA
ATOM     16  H   UNL     1      -6.346   3.018 -23.516  0.00  0.00    +0.210 HD
ENDBRANCH   5  15
BRANCH   6  17
ATOM     17  C   UNL     1      -4.903   3.859 -23.769  0.00  0.00    +0.165 C 
BRANCH  17  18
ATOM     18  O   UNL     1      -5.946   3.743 -23.000  0.00  0.00    -0.394 OA
ATOM     19  H   UNL     1      -6.722   4.113 -23.450  0.00  0.00    +0.209 HD
ENDBRANCH  17  18
ENDBRANCH   6  17
TORSDOF 3
ENDMDL
MODEL 7
REMARK VINA RESULT:    -8.582      3.495      5.746
REMARK INTER + INTRA:          -7.497
REMARK INTER:                  -9.334
REMARK INTRA:                   1.838
REMARK UNBOUND:                 1.838
REMARK  Name = C[C@@H]1CC[C@H](O)[C@]2(CO)CC[C@@H]3[C@@H]([C@H]12)C3(C)C            ZINC000225364252
REMARK  6 active torsions:
REMARK  status: ('A' for Active; 'I' for Inactive)
REMARK    1  A    between atoms: C_1  and  C_2
REMARK    2  A    between atoms: C_5  and  O_6
REMARK    3  A    between atoms: C_7  and  C_8
REMARK    4  A    between atoms: C_8  and  O_9
REMARK    5  A    between atoms: C_15  and  C_16
REMARK    6  A    between atoms: C_15  and  C_17
REMARK                            x       y       z     vdW  Elec       q    Type
REMARK                         _______ _______ _______ _____ _____    ______ ____
ROOT
ATOM      1  C   UNL     1      -0.544   3.852 -25.095  0.00  0.00    +0.008 C 
ATOM      2  C   UNL     1       0.419   3.103 -24.645  0.00  0.00    -0.010 C 
ATOM      3  C   UNL     1       1.472   2.889 -25.377  0.00  0.00    +0.006 C 
ATOM      4  C   UNL     1       2.435   2.141 -24.928  0.00  0.00    +0.032 C 
ATOM      5  C   UNL     1       2.345   1.606 -23.746  0.00  0.00    +0.123 C 
ATOM      6  C   UNL     1       1.292   1.820 -23.014  0.00  0.00    +0.023 C 
ATOM      7  C   UNL     1       1.202   1.285 -21.832  0.00  0.00    +0.012 C 
ATOM      8  C   UNL     1       0.149   1.499 -21.101  0.00  0.00    +0.005 C 
ATOM      9  C   UNL     1      -0.814   2.248 -21.550  0.00  0.00    -0.001 C 
ATOM     10  C   UNL     1      -0.724   2.782 -22.732  0.00  0.00    +0.003 C 
ATOM     11  C   UNL     1      -1.777   2.996 -22.000  0.00  0.00    -0.028 C 
ATOM     12  C   UNL     1      -2.594   2.944 -20.990  0.00  0.00    +0.011 C 
ATOM     13  C   UNL     1      -2.456   3.763 -22.800  0.00  0.00    +0.011 C 
ATOM     14  C   UNL     1       0.329   2.568 -23.464  0.00  0.00    +0.007 C 
ENDROOT
BRANCH   5  15
ATOM     15  O   UNL     1       3.308   0.857 -23.296  0.00  0.00    -0.391 OA
ATOM     16  H   UNL     1       4.159   1.285 -23.475  0.00  0.00    +0.210 HD
ENDBRANCH   5  15
BRANCH   6  17
ATOM     17  C   UNL     1       2.255   1.071 -22.564  0.00  0.00    +0.165 C 
BRANCH  17  18
ATOM     18  O   UNL     1       2.494  -0.082 -23.116  0.00  0.00    -0.394 OA
ATOM     19  H   UNL     1       3.424  -0.321 -22.975  0.00  0.00    +0.209 HD
ENDBRANCH  17  18
ENDBRANCH   6  17
TORSDOF 3
ENDMDL
MODEL 8
REMARK VINA RESULT:    -8.252      2.761      4.825
REMARK INTER + INTRA:          -7.138
REMARK INTER:                  -9.013
REMARK INTRA:                   1.876
REMARK UNBOUND:                 1.838
REMARK  Name = C[C@@H]1CC[C@H](O)[C@]2(CO)CC[C@@H]3[C@@H]([C@H]12)C3(C)C            ZINC000225364252
REMARK  6 active torsions:
REMARK  status: ('A' for Active; 'I' for Inactive)
REMARK    1  A    between atoms: C_1  and  C_2
REMARK    2  A    between atoms: C_5  and  O_6
REMARK    3  A    between atoms: C_7  and  C_8
REMARK    4  A    between atoms: C_8  and  O_9
REMARK    5  A    between atoms: C_15  and  C_16
REMARK    6  A    between atoms: C_15  and  C_17
REMARK                            x       y       z     vdW  Elec       q    Type
REMARK                         _______ _______ _______ _____ _____    ______ ____
ROOT
ATOM      1  C   UNL     1      -1.081   1.871 -21.239  0.00  0.00    +0.008 C 
ATOM      2  C   UNL     1      -0.115   1.961 -22.104  0.00  0.00    -0.010 C 
ATOM      3  C   UNL     1       1.057   1.472 -21.824  0.00  0.00    +0.006 C 
ATOM      4  C   UNL     1       2.023   1.562 -22.689  0.00  0.00    +0.032 C 
ATOM      5  C   UNL     1       1.818   2.142 -23.835  0.00  0.00    +0.123 C 
ATOM      6  C   UNL     1       0.646   2.631 -24.115  0.00  0.00    +0.023 C 
ATOM      7  C   UNL     1       0.441   3.211 -25.261  0.00  0.00    +0.012 C 
ATOM      8  C   UNL     1      -0.730   3.700 -25.541  0.00  0.00    +0.005 C 
ATOM      9  C   UNL     1      -1.697   3.610 -24.675  0.00  0.00    -0.001 C 
ATOM     10  C   UNL     1      -1.491   3.030 -23.530  0.00  0.00    +0.003 C 
ATOM     11  C   UNL     1      -2.663   3.520 -23.810  0.00  0.00    -0.028 C 
ATOM     12  C   UNL     1      -3.613   4.112 -24.471  0.00  0.00    +0.011 C 
ATOM     13  C   UNL     1      -3.299   3.224 -22.716  0.00  0.00    +0.011 C 
ATOM     14  C   UNL     1      -0.320   2.541 -23.250  0.00  0.00    +0.007 C 
ENDROOT
BRANCH   5  15
ATOM     15  O   UNL     1       2.784   2.232 -24.700  0.00  0.00    -0.391 OA
ATOM     16  H   UNL     1       2.480   2.737 -25.470  0.00  0.00    +0.210 HD
ENDBRANCH   5  15
BRANCH   6  17
ATOM     17  C   UNL     1       1.612   2.721 -24.980  0.00  0.00    +0.165 C 
BRANCH  17  18
ATOM     18  O   UNL     1       1.974   1.675 -25.663  0.00  0.00    -0.394 OA
ATOM     19  H   UNL     1       1.508   0.893 -25.327  0.00  0.00    +0.209 HD
ENDBRANCH  17  18
ENDBRANCH   6  17
TORSDOF 3
ENDMDL
MODEL 9
REMARK VINA RESULT:    -8.212      1.561      3.233
REMARK INTER + INTRA:          -7.094
REMARK INTER:                  -8.932
REMARK INTRA:                   1.838
REMARK UNBOUND:                 1.838
REMARK  Name = C[C@@H]1CC[C@H](O)[C@]2(CO)CC[C@@H]3[C@@H]([C@H]12)C3(C)C            ZINC000225364252
REMARK  6 active torsions:
REMARK  status: ('A' for Active; 'I' for Inactive)
REMARK    1  A    between atoms: C_1  and  C_2
REMARK    2  A    between atoms: C_5  and  O_6
REMARK    3  A    between atoms: C_7  and  C_8
REMARK    4  A    between atoms: C_8  and  O_9
REMARK    5  A    between atoms: C_15  and  C_16
REMARK    6  A    between atoms: C_15  and  C_17
REMARK                            x       y       z     vdW  Elec       q    Type
REMARK                         _______ _______ _______ _____ _____    ______ ____
ROOT
ATOM      1  C   UNL     1      -0.151   3.747 -25.302  0.00  0.00    +0.008 C 
ATOM      2  C   UNL     1      -1.238   3.606 -24.602  0.00  0.00    -0.010 C 
ATOM      3  C   UNL     1      -2.368   4.058 -25.059  0.00  0.00    +0.006 C 
ATOM      4  C   UNL     1      -3.455   3.917 -24.359  0.00  0.00    +0.032 C 
ATOM      5  C   UNL     1      -3.411   3.323 -23.204  0.00  0.00    +0.123 C 
ATOM      6  C   UNL     1      -2.281   2.871 -22.747  0.00  0.00    +0.023 C 
ATOM      7  C   UNL     1      -2.238   2.277 -21.591  0.00  0.00    +0.012 C 
ATOM      8  C   UNL     1      -1.108   1.825 -21.135  0.00  0.00    +0.005 C 
ATOM      9  C   UNL     1      -0.021   1.966 -21.834  0.00  0.00    -0.001 C 
ATOM     10  C   UNL     1      -0.064   2.560 -22.990  0.00  0.00    +0.003 C 
ATOM     11  C   UNL     1       1.066   2.107 -22.533  0.00  0.00    -0.028 C 
ATOM     12  C   UNL     1       1.922   1.537 -21.738  0.00  0.00    +0.011 C 
ATOM     13  C   UNL     1       1.855   2.446 -23.509  0.00  0.00    +0.011 C 
ATOM     14  C   UNL     1      -1.195   3.012 -23.446  0.00  0.00    +0.007 C 
ENDROOT
BRANCH   5  15
ATOM     15  O   UNL     1      -4.498   3.182 -22.504  0.00  0.00    -0.391 OA
ATOM     16  H   UNL     1      -4.337   3.477 -21.595  0.00  0.00    +0.210 HD
ENDBRANCH   5  15
BRANCH   6  17
ATOM     17  C   UNL     1      -3.368   2.729 -22.048  0.00  0.00    +0.165 C 
BRANCH  17  18
ATOM     18  O   UNL     1      -3.952   3.772 -21.535  0.00  0.00    -0.394 OA
ATOM     19  H   UNL     1      -3.595   4.576 -21.944  0.00  0.00    +0.209 HD
ENDBRANCH  17  18
ENDBRANCH   6  17
TORSDOF 3
ENDMDL
