MODEL 1
REMARK VINA RESULT:    -7.547      0.000      0.000
REMARK INTER + INTRA:         -11.445
REMARK INTER:                 -10.666
REMARK INTRA:                  -0.778
REMARK UNBOUND:                -0.809
REMARK  Name = ZINC000000347587
REMARK  9 active torsions:
REMARK  status: ('A' for Active; 'I' for Inactive)
REMARK    1  A    between atoms: C_1  and  O_2
REMARK    2  A    between atoms: O_2  and  C_3
REMARK    3  A    between atoms: C_3  and  C_5
REMARK    4  A    between atoms: C_5  and  C_6
REMARK    5  A    between atoms: C_6  and  C_7
REMARK    6  A    between atoms: N_9  and  C_10
REMARK    7  A    between atoms: C_15  and  C_16
REMARK    8  A    between atoms: C_16  and  O_18
REMARK    9  A    between atoms: O_18  and  C_19
REMARK                            x       y       z     vdW  Elec       q    Type
REMARK                         _______ _______ _______ _____ _____    ______ ____
ROOT
ATOM      1  C   UNL     1      -1.198   3.913 -23.379  0.00  0.00    +0.218 C 
ATOM      2  N   UNL     1      -2.112   3.051 -23.714  0.00  0.00    -0.285 N 
ATOM      3  H   UNL     1      -1.910   2.352 -24.377  0.00  0.00    +0.155 HD
ATOM      4  O   UNL     1      -1.466   4.835 -22.503  0.00  0.00    -0.275 OA
ENDROOT
BRANCH   2   5
ATOM      5  C   UNL     1      -3.293   3.112 -23.174  0.00  0.00    +0.047 A 
ATOM      6  C   UNL     1      -3.471   2.705 -21.952  0.00  0.00    +0.024 A 
ATOM      7  C   UNL     1      -4.652   2.766 -21.412  0.00  0.00    +0.002 A 
ATOM      8  C   UNL     1      -5.655   3.234 -22.093  0.00  0.00    +0.001 A 
ATOM      9  C   UNL     1      -5.477   3.641 -23.316  0.00  0.00    +0.017 A 
ATOM     10  C   UNL     1      -4.296   3.580 -23.856  0.00  0.00    +0.080 A 
BRANCH  10  11
ATOM     11  C   UNL     1      -4.118   3.987 -25.078  0.00  0.00    +0.341 C 
ATOM     12  O   UNL     1      -4.045   5.259 -25.335  0.00  0.00    -0.245 OA
BRANCH  11  13
ATOM     13  O   UNL     1      -4.013   3.121 -26.042  0.00  0.00    -0.464 OA
ATOM     14  C   UNL     1      -3.294   3.399 -27.088  0.00  0.00    +0.280 C 
ENDBRANCH  11  13
ENDBRANCH  10  11
ENDBRANCH   2   5
BRANCH   1  15
ATOM     15  C   UNL     1      -0.017   3.852 -23.919  0.00  0.00    +0.107 C 
BRANCH  15  16
ATOM     16  C   UNL     1       0.970   3.318 -23.263  0.00  0.00    +0.130 C 
BRANCH  16  17
ATOM     17  C   UNL     1       1.145   2.030 -23.288  0.00  0.00    +0.307 C 
ATOM     18  O   UNL     1       2.056   1.512 -24.056  0.00  0.00    -0.251 OA
BRANCH  17  20
ATOM     19  C   UNL     1       0.341   1.463 -21.262  0.00  0.00    +0.280 C 
ATOM     20  O   UNL     1       0.407   1.259 -22.544  0.00  0.00    -0.468 OA
ENDBRANCH  17  20
ENDBRANCH  16  17
ENDBRANCH  15  16
ENDBRANCH   1  15
TORSDOF 7
ENDMDL
MODEL 2
REMARK VINA RESULT:    -7.391      1.514      1.895
REMARK INTER + INTRA:         -11.226
REMARK INTER:                 -10.347
REMARK INTRA:                  -0.878
REMARK UNBOUND:                -0.809
REMARK  Name = ZINC000000347587
REMARK  9 active torsions:
REMARK  status: ('A' for Active; 'I' for Inactive)
REMARK    1  A    between atoms: C_1  and  O_2
REMARK    2  A    between atoms: O_2  and  C_3
REMARK    3  A    between atoms: C_3  and  C_5
REMARK    4  A    between atoms: C_5  and  C_6
REMARK    5  A    between atoms: C_6  and  C_7
REMARK    6  A    between atoms: N_9  and  C_10
REMARK    7  A    between atoms: C_15  and  C_16
REMARK    8  A    between atoms: C_16  and  O_18
REMARK    9  A    between atoms: O_18  and  C_19
REMARK                            x       y       z     vdW  Elec       q    Type
REMARK                         _______ _______ _______ _____ _____    ______ ____
ROOT
ATOM      1  C   UNL     1      -0.735   3.355 -24.049  0.00  0.00    +0.218 C 
ATOM      2  N   UNL     1      -1.657   4.212 -23.723  0.00  0.00    -0.285 N 
ATOM      3  H   UNL     1      -1.599   5.141 -24.043  0.00  0.00    +0.155 HD
ATOM      4  O   UNL     1      -0.812   2.128 -23.626  0.00  0.00    -0.275 OA
ENDROOT
BRANCH   2   5
ATOM      5  C   UNL     1      -2.654   3.842 -22.976  0.00  0.00    +0.047 A 
ATOM      6  C   UNL     1      -2.464   3.597 -21.714  0.00  0.00    +0.024 A 
ATOM      7  C   UNL     1      -3.462   3.227 -20.967  0.00  0.00    +0.002 A 
ATOM      8  C   UNL     1      -4.649   3.103 -21.481  0.00  0.00    +0.001 A 
ATOM      9  C   UNL     1      -4.839   3.348 -22.745  0.00  0.00    +0.017 A 
ATOM     10  C   UNL     1      -3.841   3.718 -23.492  0.00  0.00    +0.080 A 
BRANCH  10  11
ATOM     11  C   UNL     1      -4.030   3.964 -24.754  0.00  0.00    +0.341 C 
ATOM     12  O   UNL     1      -4.480   5.124 -25.130  0.00  0.00    -0.245 OA
BRANCH  11  13
ATOM     13  O   UNL     1      -3.770   3.048 -25.640  0.00  0.00    -0.464 OA
ATOM     14  C   UNL     1      -3.292   3.386 -26.801  0.00  0.00    +0.280 C 
ENDBRANCH  11  13
ENDBRANCH  10  11
ENDBRANCH   2   5
BRANCH   1  15
ATOM     15  C   UNL     1       0.262   3.724 -24.796  0.00  0.00    +0.107 C 
BRANCH  15  16
ATOM     16  C   UNL     1       1.483   3.508 -24.404  0.00  0.00    +0.130 C 
BRANCH  16  17
ATOM     17  C   UNL     1       2.076   4.364 -23.627  0.00  0.00    +0.307 C 
ATOM     18  O   UNL     1       1.838   5.635 -23.756  0.00  0.00    -0.251 OA
BRANCH  17  20
ATOM     19  C   UNL     1       2.881   2.709 -22.328  0.00  0.00    +0.280 C 
ATOM     20  O   UNL     1       2.910   3.949 -22.719  0.00  0.00    -0.468 OA
ENDBRANCH  17  20
ENDBRANCH  16  17
ENDBRANCH  15  16
ENDBRANCH   1  15
TORSDOF 7
ENDMDL
MODEL 3
REMARK VINA RESULT:    -6.934      1.788      3.255
REMARK INTER + INTRA:         -10.582
REMARK INTER:                  -9.949
REMARK INTRA:                  -0.633
REMARK UNBOUND:                -0.809
REMARK  Name = ZINC000000347587
REMARK  9 active torsions:
REMARK  status: ('A' for Active; 'I' for Inactive)
REMARK    1  A    between atoms: C_1  and  O_2
REMARK    2  A    between atoms: O_2  and  C_3
REMARK    3  A    between atoms: C_3  and  C_5
REMARK    4  A    between atoms: C_5  and  C_6
REMARK    5  A    between atoms: C_6  and  C_7
REMARK    6  A    between atoms: N_9  and  C_10
REMARK    7  A    between atoms: C_15  and  C_16
REMARK    8  A    between atoms: C_16  and  O_18
REMARK    9  A    between atoms: O_18  and  C_19
REMARK                            x       y       z     vdW  Elec       q    Type
REMARK                         _______ _______ _______ _____ _____    ______ ____
ROOT
ATOM      1  C   UNL     1      -0.378   3.119 -24.034  0.00  0.00    +0.218 C 
ATOM      2  N   UNL     1      -1.429   2.353 -24.056  0.00  0.00    -0.285 N 
ATOM      3  H   UNL     1      -1.343   1.394 -23.854  0.00  0.00    +0.155 HD
ATOM      4  O   UNL     1      -0.493   4.386 -24.302  0.00  0.00    -0.275 OA
ENDROOT
BRANCH   2   5
ATOM      5  C   UNL     1      -2.593   2.854 -24.345  0.00  0.00    +0.047 A 
ATOM      6  C   UNL     1      -2.936   3.027 -25.587  0.00  0.00    +0.024 A 
ATOM      7  C   UNL     1      -4.101   3.529 -25.875  0.00  0.00    +0.002 A 
ATOM      8  C   UNL     1      -4.922   3.857 -24.923  0.00  0.00    +0.001 A 
ATOM      9  C   UNL     1      -4.578   3.683 -23.680  0.00  0.00    +0.017 A 
ATOM     10  C   UNL     1      -3.414   3.182 -23.392  0.00  0.00    +0.080 A 
BRANCH  10  11
ATOM     11  C   UNL     1      -3.071   3.008 -22.150  0.00  0.00    +0.341 C 
ATOM     12  O   UNL     1      -3.039   1.811 -21.646  0.00  0.00    -0.245 OA
BRANCH  11  13
ATOM     13  O   UNL     1      -2.760   4.033 -21.413  0.00  0.00    -0.464 OA
ATOM     14  C   UNL     1      -3.082   4.049 -20.154  0.00  0.00    +0.280 C 
ENDBRANCH  11  13
ENDBRANCH  10  11
ENDBRANCH   2   5
BRANCH   1  15
ATOM     15  C   UNL     1       0.785   2.617 -23.746  0.00  0.00    +0.107 C 
BRANCH  15  16
ATOM     16  C   UNL     1       1.087   2.343 -22.511  0.00  0.00    +0.130 C 
BRANCH  16  17
ATOM     17  C   UNL     1       1.910   1.374 -22.243  0.00  0.00    +0.307 C 
ATOM     18  O   UNL     1       2.114   1.016 -21.011  0.00  0.00    -0.251 OA
BRANCH  17  20
ATOM     19  C   UNL     1       3.828   0.781 -23.264  0.00  0.00    +0.280 C 
ATOM     20  O   UNL     1       2.529   0.761 -23.209  0.00  0.00    -0.468 OA
ENDBRANCH  17  20
ENDBRANCH  16  17
ENDBRANCH  15  16
ENDBRANCH   1  15
TORSDOF 7
ENDMDL
MODEL 4
REMARK VINA RESULT:    -6.880      1.514      5.352
REMARK INTER + INTRA:         -10.505
REMARK INTER:                  -9.875
REMARK INTRA:                  -0.630
REMARK UNBOUND:                -0.809
REMARK  Name = ZINC000000347587
REMARK  9 active torsions:
REMARK  status: ('A' for Active; 'I' for Inactive)
REMARK    1  A    between atoms: C_1  and  O_2
REMARK    2  A    between atoms: O_2  and  C_3
REMARK    3  A    between atoms: C_3  and  C_5
REMARK    4  A    between atoms: C_5  and  C_6
REMARK    5  A    between atoms: C_6  and  C_7
REMARK    6  A    between atoms: N_9  and  C_10
REMARK    7  A    between atoms: C_15  and  C_16
REMARK    8  A    between atoms: C_16  and  O_18
REMARK    9  A    between atoms: O_18  and  C_19
REMARK                            x       y       z     vdW  Elec       q    Type
REMARK                         _______ _______ _______ _____ _____    ______ ____
ROOT
ATOM      1  C   UNL     1      -1.889   3.628 -24.110  0.00  0.00    +0.218 C 
ATOM      2  N   UNL     1      -1.231   2.506 -24.129  0.00  0.00    -0.285 N 
ATOM      3  H   UNL     1      -1.317   1.898 -24.898  0.00  0.00    +0.155 HD
ATOM      4  O   UNL     1      -1.775   4.431 -23.094  0.00  0.00    -0.275 OA
ENDROOT
BRANCH   2   5
ATOM      5  C   UNL     1      -0.460   2.189 -23.132  0.00  0.00    +0.047 A 
ATOM      6  C   UNL     1      -0.979   1.761 -22.019  0.00  0.00    +0.024 A 
ATOM      7  C   UNL     1      -0.208   1.444 -21.022  0.00  0.00    +0.002 A 
ATOM      8  C   UNL     1       1.082   1.553 -21.137  0.00  0.00    +0.001 A 
ATOM      9  C   UNL     1       1.601   1.981 -22.250  0.00  0.00    +0.017 A 
ATOM     10  C   UNL     1       0.830   2.298 -23.247  0.00  0.00    +0.080 A 
BRANCH  10  11
ATOM     11  C   UNL     1       1.349   2.726 -24.360  0.00  0.00    +0.341 C 
ATOM     12  O   UNL     1       1.921   1.890 -25.173  0.00  0.00    -0.245 OA
BRANCH  11  13
ATOM     13  O   UNL     1       1.294   3.990 -24.658  0.00  0.00    -0.464 OA
ATOM     14  C   UNL     1       1.962   4.853 -23.951  0.00  0.00    +0.280 C 
ENDBRANCH  11  13
ENDBRANCH  10  11
ENDBRANCH   2   5
BRANCH   1  15
ATOM     15  C   UNL     1      -2.660   3.946 -25.107  0.00  0.00    +0.107 C 
BRANCH  15  16
ATOM     16  C   UNL     1      -3.871   3.478 -25.167  0.00  0.00    +0.130 C 
BRANCH  16  17
ATOM     17  C   UNL     1      -4.843   4.114 -24.585  0.00  0.00    +0.307 C 
ATOM     18  O   UNL     1      -5.082   5.356 -24.888  0.00  0.00    -0.251 OA
BRANCH  17  20
ATOM     19  C   UNL     1      -5.245   3.548 -22.442  0.00  0.00    +0.280 C 
ATOM     20  O   UNL     1      -5.578   3.510 -23.698  0.00  0.00    -0.468 OA
ENDBRANCH  17  20
ENDBRANCH  16  17
ENDBRANCH  15  16
ENDBRANCH   1  15
TORSDOF 7
ENDMDL
MODEL 5
REMARK VINA RESULT:    -6.870      1.870      2.437
REMARK INTER + INTRA:         -10.491
REMARK INTER:                  -9.904
REMARK INTRA:                  -0.588
REMARK UNBOUND:                -0.809
REMARK  Name = ZINC000000347587
REMARK  9 active torsions:
REMARK  status: ('A' for Active; 'I' for Inactive)
REMARK    1  A    between atoms: C_1  and  O_2
REMARK    2  A    between atoms: O_2  and  C_3
REMARK    3  A    between atoms: C_3  and  C_5
REMARK    4  A    between atoms: C_5  and  C_6
REMARK    5  A    between atoms: C_6  and  C_7
REMARK    6  A    between atoms: N_9  and  C_10
REMARK    7  A    between atoms: C_15  and  C_16
REMARK    8  A    between atoms: C_16  and  O_18
REMARK    9  A    between atoms: O_18  and  C_19
REMARK                            x       y       z     vdW  Elec       q    Type
REMARK                         _______ _______ _______ _____ _____    ______ ____
ROOT
ATOM      1  C   UNL     1      -0.135   2.144 -22.419  0.00  0.00    +0.218 C 
ATOM      2  N   UNL     1      -0.845   3.228 -22.529  0.00  0.00    -0.285 N 
ATOM      3  H   UNL     1      -0.458   4.028 -22.952  0.00  0.00    +0.155 HD
ATOM      4  O   UNL     1      -0.646   1.087 -21.860  0.00  0.00    -0.275 OA
ENDROOT
BRANCH   2   5
ATOM      5  C   UNL     1      -2.064   3.254 -22.081  0.00  0.00    +0.047 A 
ATOM      6  C   UNL     1      -2.286   3.322 -20.802  0.00  0.00    +0.024 A 
ATOM      7  C   UNL     1      -3.506   3.349 -20.354  0.00  0.00    +0.002 A 
ATOM      8  C   UNL     1      -4.505   3.307 -21.185  0.00  0.00    +0.001 A 
ATOM      9  C   UNL     1      -4.283   3.239 -22.465  0.00  0.00    +0.017 A 
ATOM     10  C   UNL     1      -3.063   3.213 -22.913  0.00  0.00    +0.080 A 
BRANCH  10  11
ATOM     11  C   UNL     1      -2.841   3.145 -24.192  0.00  0.00    +0.341 C 
ATOM     12  O   UNL     1      -2.503   2.013 -24.733  0.00  0.00    -0.245 OA
BRANCH  11  13
ATOM     13  O   UNL     1      -2.959   4.209 -24.929  0.00  0.00    -0.464 OA
ATOM     14  C   UNL     1      -3.592   4.147 -26.063  0.00  0.00    +0.280 C 
ENDBRANCH  11  13
ENDBRANCH  10  11
ENDBRANCH   2   5
BRANCH   1  15
ATOM     15  C   UNL     1       1.085   2.117 -22.867  0.00  0.00    +0.107 C 
BRANCH  15  16
ATOM     16  C   UNL     1       2.068   1.853 -22.059  0.00  0.00    +0.130 C 
BRANCH  16  17
ATOM     17  C   UNL     1       2.847   0.839 -22.293  0.00  0.00    +0.307 C 
ATOM     18  O   UNL     1       2.383  -0.210 -22.906  0.00  0.00    -0.251 OA
BRANCH  17  20
ATOM     19  C   UNL     1       4.439   0.340 -20.781  0.00  0.00    +0.280 C 
ATOM     20  O   UNL     1       4.090   0.872 -21.914  0.00  0.00    -0.468 OA
ENDBRANCH  17  20
ENDBRANCH  16  17
ENDBRANCH  15  16
ENDBRANCH   1  15
TORSDOF 7
ENDMDL
MODEL 6
REMARK VINA RESULT:    -6.811      1.860      2.980
REMARK INTER + INTRA:         -10.407
REMARK INTER:                  -9.466
REMARK INTRA:                  -0.941
REMARK UNBOUND:                -0.809
REMARK  Name = ZINC000000347587
REMARK  9 active torsions:
REMARK  status: ('A' for Active; 'I' for Inactive)
REMARK    1  A    between atoms: C_1  and  O_2
REMARK    2  A    between atoms: O_2  and  C_3
REMARK    3  A    between atoms: C_3  and  C_5
REMARK    4  A    between atoms: C_5  and  C_6
REMARK    5  A    between atoms: C_6  and  C_7
REMARK    6  A    between atoms: N_9  and  C_10
REMARK    7  A    between atoms: C_15  and  C_16
REMARK    8  A    between atoms: C_16  and  O_18
REMARK    9  A    between atoms: O_18  and  C_19
REMARK                            x       y       z     vdW  Elec       q    Type
REMARK                         _______ _______ _______ _____ _____    ______ ____
ROOT
ATOM      1  C   UNL     1      -1.654   2.512 -21.639  0.00  0.00    +0.218 C 
ATOM      2  N   UNL     1      -1.963   2.355 -22.893  0.00  0.00    -0.285 N 
ATOM      3  H   UNL     1      -1.512   1.663 -23.428  0.00  0.00    +0.155 HD
ATOM      4  O   UNL     1      -2.251   3.426 -20.934  0.00  0.00    -0.275 OA
ENDROOT
BRANCH   2   5
ATOM      5  C   UNL     1      -2.868   3.111 -23.439  0.00  0.00    +0.047 A 
ATOM      6  C   UNL     1      -4.122   2.943 -23.141  0.00  0.00    +0.024 A 
ATOM      7  C   UNL     1      -5.028   3.700 -23.688  0.00  0.00    +0.002 A 
ATOM      8  C   UNL     1      -4.679   4.624 -24.532  0.00  0.00    +0.001 A 
ATOM      9  C   UNL     1      -3.424   4.792 -24.830  0.00  0.00    +0.017 A 
ATOM     10  C   UNL     1      -2.519   4.035 -24.283  0.00  0.00    +0.080 A 
BRANCH  10  11
ATOM     11  C   UNL     1      -1.265   4.204 -24.582  0.00  0.00    +0.341 C 
ATOM     12  O   UNL     1      -0.733   3.530 -25.558  0.00  0.00    -0.245 OA
BRANCH  11  13
ATOM     13  O   UNL     1      -0.544   5.045 -23.902  0.00  0.00    -0.464 OA
ATOM     14  C   UNL     1       0.690   4.757 -23.613  0.00  0.00    +0.280 C 
ENDBRANCH  11  13
ENDBRANCH  10  11
ENDBRANCH   2   5
BRANCH   1  15
ATOM     15  C   UNL     1      -0.750   1.756 -21.093  0.00  0.00    +0.107 C 
BRANCH  15  16
ATOM     16  C   UNL     1       0.342   1.478 -21.741  0.00  0.00    +0.130 C 
BRANCH  16  17
ATOM     17  C   UNL     1       1.485   1.481 -21.121  0.00  0.00    +0.307 C 
ATOM     18  O   UNL     1       1.524   1.344 -19.829  0.00  0.00    -0.251 OA
BRANCH  17  20
ATOM     19  C   UNL     1       2.607   1.387 -23.071  0.00  0.00    +0.280 C 
ATOM     20  O   UNL     1       2.589   1.622 -21.793  0.00  0.00    -0.468 OA
ENDBRANCH  17  20
ENDBRANCH  16  17
ENDBRANCH  15  16
ENDBRANCH   1  15
TORSDOF 7
ENDMDL
MODEL 7
REMARK VINA RESULT:    -6.733      1.854      2.769
REMARK INTER + INTRA:         -10.298
REMARK INTER:                  -9.617
REMARK INTRA:                  -0.681
REMARK UNBOUND:                -0.809
REMARK  Name = ZINC000000347587
REMARK  9 active torsions:
REMARK  status: ('A' for Active; 'I' for Inactive)
REMARK    1  A    between atoms: C_1  and  O_2
REMARK    2  A    between atoms: O_2  and  C_3
REMARK    3  A    between atoms: C_3  and  C_5
REMARK    4  A    between atoms: C_5  and  C_6
REMARK    5  A    between atoms: C_6  and  C_7
REMARK    6  A    between atoms: N_9  and  C_10
REMARK    7  A    between atoms: C_15  and  C_16
REMARK    8  A    between atoms: C_16  and  O_18
REMARK    9  A    between atoms: O_18  and  C_19
REMARK                            x       y       z     vdW  Elec       q    Type
REMARK                         _______ _______ _______ _____ _____    ______ ____
ROOT
ATOM      1  C   UNL     1      -0.145   1.856 -21.821  0.00  0.00    +0.218 C 
ATOM      2  N   UNL     1      -0.693   3.009 -22.073  0.00  0.00    -0.285 N 
ATOM      3  H   UNL     1      -0.136   3.762 -22.376  0.00  0.00    +0.155 HD
ATOM      4  O   UNL     1      -0.881   0.862 -21.422  0.00  0.00    -0.275 OA
ENDROOT
BRANCH   2   5
ATOM      5  C   UNL     1      -1.975   3.166 -21.926  0.00  0.00    +0.047 A 
ATOM      6  C   UNL     1      -2.487   3.247 -20.734  0.00  0.00    +0.024 A 
ATOM      7  C   UNL     1      -3.769   3.404 -20.587  0.00  0.00    +0.002 A 
ATOM      8  C   UNL     1      -4.539   3.480 -21.631  0.00  0.00    +0.001 A 
ATOM      9  C   UNL     1      -4.027   3.399 -22.824  0.00  0.00    +0.017 A 
ATOM     10  C   UNL     1      -2.744   3.242 -22.971  0.00  0.00    +0.080 A 
BRANCH  10  11
ATOM     11  C   UNL     1      -2.232   3.162 -24.163  0.00  0.00    +0.341 C 
ATOM     12  O   UNL     1      -2.611   2.217 -24.971  0.00  0.00    -0.245 OA
BRANCH  11  13
ATOM     13  O   UNL     1      -1.340   4.027 -24.546  0.00  0.00    -0.464 OA
ATOM     14  C   UNL     1      -0.498   3.718 -25.488  0.00  0.00    +0.280 C 
ENDBRANCH  11  13
ENDBRANCH  10  11
ENDBRANCH   2   5
BRANCH   1  15
ATOM     15  C   UNL     1       1.136   1.700 -21.969  0.00  0.00    +0.107 C 
BRANCH  15  16
ATOM     16  C   UNL     1       1.778   2.394 -22.861  0.00  0.00    +0.130 C 
BRANCH  16  17
ATOM     17  C   UNL     1       2.852   3.044 -22.528  0.00  0.00    +0.307 C 
ATOM     18  O   UNL     1       3.591   2.622 -21.545  0.00  0.00    -0.251 OA
BRANCH  17  20
ATOM     19  C   UNL     1       2.332   5.082 -23.334  0.00  0.00    +0.280 C 
ATOM     20  O   UNL     1       3.190   4.119 -23.179  0.00  0.00    -0.468 OA
ENDBRANCH  17  20
ENDBRANCH  16  17
ENDBRANCH  15  16
ENDBRANCH   1  15
TORSDOF 7
ENDMDL
MODEL 8
REMARK VINA RESULT:    -6.643      2.076      3.054
REMARK INTER + INTRA:         -10.171
REMARK INTER:                  -9.391
REMARK INTRA:                  -0.780
REMARK UNBOUND:                -0.809
REMARK  Name = ZINC000000347587
REMARK  9 active torsions:
REMARK  status: ('A' for Active; 'I' for Inactive)
REMARK    1  A    between atoms: C_1  and  O_2
REMARK    2  A    between atoms: O_2  and  C_3
REMARK    3  A    between atoms: C_3  and  C_5
REMARK    4  A    between atoms: C_5  and  C_6
REMARK    5  A    between atoms: C_6  and  C_7
REMARK    6  A    between atoms: N_9  and  C_10
REMARK    7  A    between atoms: C_15  and  C_16
REMARK    8  A    between atoms: C_16  and  O_18
REMARK    9  A    between atoms: O_18  and  C_19
REMARK                            x       y       z     vdW  Elec       q    Type
REMARK                         _______ _______ _______ _____ _____    ______ ____
ROOT
ATOM      1  C   UNL     1      -0.200   1.708 -21.847  0.00  0.00    +0.218 C 
ATOM      2  N   UNL     1      -0.782   2.857 -21.670  0.00  0.00    -0.285 N 
ATOM      3  H   UNL     1      -0.317   3.574 -21.181  0.00  0.00    +0.155 HD
ATOM      4  O   UNL     1      -0.814   0.762 -22.493  0.00  0.00    -0.275 OA
ENDROOT
BRANCH   2   5
ATOM      5  C   UNL     1      -1.978   3.060 -22.138  0.00  0.00    +0.047 A 
ATOM      6  C   UNL     1      -3.013   2.614 -21.490  0.00  0.00    +0.024 A 
ATOM      7  C   UNL     1      -4.209   2.816 -21.959  0.00  0.00    +0.002 A 
ATOM      8  C   UNL     1      -4.370   3.464 -23.074  0.00  0.00    +0.001 A 
ATOM      9  C   UNL     1      -3.334   3.909 -23.722  0.00  0.00    +0.017 A 
ATOM     10  C   UNL     1      -2.138   3.707 -23.253  0.00  0.00    +0.080 A 
BRANCH  10  11
ATOM     11  C   UNL     1      -1.102   4.153 -23.901  0.00  0.00    +0.341 C 
ATOM     12  O   UNL     1      -0.554   5.279 -23.554  0.00  0.00    -0.245 OA
BRANCH  11  13
ATOM     13  O   UNL     1      -0.615   3.470 -24.895  0.00  0.00    -0.464 OA
ATOM     14  C   UNL     1       0.621   3.644 -25.257  0.00  0.00    +0.280 C 
ENDBRANCH  11  13
ENDBRANCH  10  11
ENDBRANCH   2   5
BRANCH   1  15
ATOM     15  C   UNL     1       0.996   1.506 -21.379  0.00  0.00    +0.107 C 
BRANCH  15  16
ATOM     16  C   UNL     1       2.033   1.714 -22.135  0.00  0.00    +0.130 C 
BRANCH  16  17
ATOM     17  C   UNL     1       3.230   1.604 -21.640  0.00  0.00    +0.307 C 
ATOM     18  O   UNL     1       3.907   2.671 -21.332  0.00  0.00    -0.251 OA
BRANCH  17  20
ATOM     19  C   UNL     1       4.816   0.298 -20.719  0.00  0.00    +0.280 C 
ATOM     20  O   UNL     1       3.751   0.428 -21.452  0.00  0.00    -0.468 OA
ENDBRANCH  17  20
ENDBRANCH  16  17
ENDBRANCH  15  16
ENDBRANCH   1  15
TORSDOF 7
ENDMDL
MODEL 9
REMARK VINA RESULT:    -6.570      2.153      5.566
REMARK INTER + INTRA:         -10.068
REMARK INTER:                  -9.259
REMARK INTRA:                  -0.809
REMARK UNBOUND:                -0.809
REMARK  Name = ZINC000000347587
REMARK  9 active torsions:
REMARK  status: ('A' for Active; 'I' for Inactive)
REMARK    1  A    between atoms: C_1  and  O_2
REMARK    2  A    between atoms: O_2  and  C_3
REMARK    3  A    between atoms: C_3  and  C_5
REMARK    4  A    between atoms: C_5  and  C_6
REMARK    5  A    between atoms: C_6  and  C_7
REMARK    6  A    between atoms: N_9  and  C_10
REMARK    7  A    between atoms: C_15  and  C_16
REMARK    8  A    between atoms: C_16  and  O_18
REMARK    9  A    between atoms: O_18  and  C_19
REMARK                            x       y       z     vdW  Elec       q    Type
REMARK                         _______ _______ _______ _____ _____    ______ ____
ROOT
ATOM      1  C   UNL     1      -0.652   1.867 -21.978  0.00  0.00    +0.218 C 
ATOM      2  N   UNL     1       0.184   2.853 -22.127  0.00  0.00    -0.285 N 
ATOM      3  H   UNL     1      -0.041   3.745 -21.779  0.00  0.00    +0.155 HD
ATOM      4  O   UNL     1      -0.354   0.688 -22.438  0.00  0.00    -0.275 OA
ENDROOT
BRANCH   2   5
ATOM      5  C   UNL     1       1.316   2.659 -22.736  0.00  0.00    +0.047 A 
ATOM      6  C   UNL     1       2.231   1.918 -22.185  0.00  0.00    +0.024 A 
ATOM      7  C   UNL     1       3.364   1.724 -22.794  0.00  0.00    +0.002 A 
ATOM      8  C   UNL     1       3.581   2.270 -23.953  0.00  0.00    +0.001 A 
ATOM      9  C   UNL     1       2.664   3.012 -24.504  0.00  0.00    +0.017 A 
ATOM     10  C   UNL     1       1.532   3.205 -23.895  0.00  0.00    +0.080 A 
BRANCH  10  11
ATOM     11  C   UNL     1       0.616   3.946 -24.445  0.00  0.00    +0.341 C 
ATOM     12  O   UNL     1       0.479   5.186 -24.083  0.00  0.00    -0.245 OA
BRANCH  11  13
ATOM     13  O   UNL     1      -0.161   3.445 -25.359  0.00  0.00    -0.464 OA
ATOM     14  C   UNL     1      -1.449   3.591 -25.266  0.00  0.00    +0.280 C 
ENDBRANCH  11  13
ENDBRANCH  10  11
ENDBRANCH   2   5
BRANCH   1  15
ATOM     15  C   UNL     1      -1.784   2.061 -21.370  0.00  0.00    +0.107 C 
BRANCH  15  16
ATOM     16  C   UNL     1      -2.614   2.957 -21.813  0.00  0.00    +0.130 C 
BRANCH  16  17
ATOM     17  C   UNL     1      -3.470   3.506 -21.003  0.00  0.00    +0.307 C 
ATOM     18  O   UNL     1      -3.103   3.852 -19.805  0.00  0.00    -0.251 OA
BRANCH  17  20
ATOM     19  C   UNL     1      -5.025   3.509 -22.633  0.00  0.00    +0.280 C 
ATOM     20  O   UNL     1      -4.695   3.710 -21.392  0.00  0.00    -0.468 OA
ENDBRANCH  17  20
ENDBRANCH  16  17
ENDBRANCH  15  16
ENDBRANCH   1  15
TORSDOF 7
ENDMDL
