MODEL 1
REMARK VINA RESULT:    -9.460      0.000      0.000
REMARK INTER + INTRA:          -9.736
REMARK INTER:                  -9.736
REMARK INTRA:                   0.000
REMARK UNBOUND:                 0.000
REMARK  Name = ZINC000019800969
REMARK  4 active torsions:
REMARK  status: ('A' for Active; 'I' for Inactive)
REMARK    1  A    between atoms: C_1  and  C_2
REMARK    2  A    between atoms: C_2  and  C_3
REMARK    3  A    between atoms: C_12  and  C_13
REMARK    4  A    between atoms: C_12  and  O_14
REMARK                            x       y       z     vdW  Elec       q    Type
REMARK                         _______ _______ _______ _____ _____    ______ ____
ROOT
ATOM      1  C   UNL     1      -3.681   3.970 -25.576  0.00  0.00    +0.012 C 
ATOM      2  C   UNL     1      -2.591   3.474 -25.069  0.00  0.00    -0.021 C 
ATOM      3  C   UNL     1      -1.775   2.948 -24.203  0.00  0.00    +0.065 C 
ATOM      4  C   UNL     1      -0.826   2.428 -23.482  0.00  0.00    +0.137 C 
ATOM      5  C   UNL     1      -0.870   2.048 -22.240  0.00  0.00    +0.075 C 
ATOM      6  C   UNL     1      -1.872   2.094 -21.412  0.00  0.00    +0.011 C 
ATOM      7  C   UNL     1      -3.077   2.532 -21.623  0.00  0.00    -0.004 C 
ATOM      8  C   UNL     1      -4.008   2.531 -20.715  0.00  0.00    +0.007 C 
ATOM      9  C   UNL     1      -5.085   3.030 -21.244  0.00  0.00    +0.035 C 
ATOM     10  C   UNL     1      -4.821   3.340 -22.478  0.00  0.00    +0.067 C 
ATOM     11  C   UNL     1      -4.814   3.730 -23.718  0.00  0.00    +0.041 C 
ATOM     12  C   UNL     1      -3.579   3.032 -22.713  0.00  0.00    +0.028 C 
ATOM     13  O   UNL     1       0.315   2.266 -24.082  0.00  0.00    -0.297 OA
ATOM     14  C   UNL     1      -1.804   3.558 -26.100  0.00  0.00    +0.012 C 
ATOM     15  C   UNL     1      -3.000   3.217 -23.862  0.00  0.00    +0.012 C 
ENDROOT
BRANCH  10  16
ATOM     16  O   UNL     1      -6.060   3.729 -22.504  0.00  0.00    -0.389 OA
ATOM     17  H   UNL     1      -6.270   4.081 -23.384  0.00  0.00    +0.210 HD
ENDBRANCH  10  16
TORSDOF 1
ENDMDL
MODEL 2
REMARK VINA RESULT:    -9.268      0.733      3.690
REMARK INTER + INTRA:          -9.539
REMARK INTER:                  -9.539
REMARK INTRA:                   0.000
REMARK UNBOUND:                 0.000
REMARK  Name = ZINC000019800969
REMARK  4 active torsions:
REMARK  status: ('A' for Active; 'I' for Inactive)
REMARK    1  A    between atoms: C_1  and  C_2
REMARK    2  A    between atoms: C_2  and  C_3
REMARK    3  A    between atoms: C_12  and  C_13
REMARK    4  A    between atoms: C_12  and  O_14
REMARK                            x       y       z     vdW  Elec       q    Type
REMARK                         _______ _______ _______ _____ _____    ______ ____
ROOT
ATOM      1  C   UNL     1      -2.952   3.650 -25.657  0.00  0.00    +0.012 C 
ATOM      2  C   UNL     1      -3.721   3.594 -24.610  0.00  0.00    -0.021 C 
ATOM      3  C   UNL     1      -4.106   3.379 -23.387  0.00  0.00    +0.065 C 
ATOM      4  C   UNL     1      -4.665   3.230 -22.223  0.00  0.00    +0.137 C 
ATOM      5  C   UNL     1      -4.137   2.784 -21.122  0.00  0.00    +0.075 C 
ATOM      6  C   UNL     1      -2.920   2.376 -20.913  0.00  0.00    +0.011 C 
ATOM      7  C   UNL     1      -1.931   2.315 -21.755  0.00  0.00    -0.004 C 
ATOM      8  C   UNL     1      -0.745   1.887 -21.435  0.00  0.00    +0.007 C 
ATOM      9  C   UNL     1       0.004   1.954 -22.495  0.00  0.00    +0.035 C 
ATOM     10  C   UNL     1      -0.717   2.422 -23.469  0.00  0.00    +0.067 C 
ATOM     11  C   UNL     1      -1.212   2.863 -24.588  0.00  0.00    +0.041 C 
ATOM     12  C   UNL     1      -1.914   2.645 -23.011  0.00  0.00    +0.028 C 
ATOM     13  O   UNL     1      -5.917   3.572 -22.150  0.00  0.00    -0.297 OA
ATOM     14  C   UNL     1      -4.827   4.049 -25.119  0.00  0.00    +0.012 C 
ATOM     15  C   UNL     1      -2.882   3.119 -23.739  0.00  0.00    +0.012 C 
ENDROOT
BRANCH  10  16
ATOM     16  O   UNL     1       0.375   2.291 -24.161  0.00  0.00    -0.389 OA
ATOM     17  H   UNL     1       0.162   1.929 -25.036  0.00  0.00    +0.210 HD
ENDBRANCH  10  16
TORSDOF 1
ENDMDL
MODEL 3
REMARK VINA RESULT:    -9.168      1.419      4.089
REMARK INTER + INTRA:          -9.436
REMARK INTER:                  -9.436
REMARK INTRA:                   0.000
REMARK UNBOUND:                 0.000
REMARK  Name = ZINC000019800969
REMARK  4 active torsions:
REMARK  status: ('A' for Active; 'I' for Inactive)
REMARK    1  A    between atoms: C_1  and  C_2
REMARK    2  A    between atoms: C_2  and  C_3
REMARK    3  A    between atoms: C_12  and  C_13
REMARK    4  A    between atoms: C_12  and  O_14
REMARK                            x       y       z     vdW  Elec       q    Type
REMARK                         _______ _______ _______ _____ _____    ______ ____
ROOT
ATOM      1  C   UNL     1      -0.445   2.394 -23.178  0.00  0.00    +0.012 C 
ATOM      2  C   UNL     1      -1.477   2.533 -22.399  0.00  0.00    -0.021 C 
ATOM      3  C   UNL     1      -2.692   2.791 -22.015  0.00  0.00    +0.065 C 
ATOM      4  C   UNL     1      -3.846   3.000 -21.452  0.00  0.00    +0.137 C 
ATOM      5  C   UNL     1      -4.955   3.393 -22.003  0.00  0.00    +0.075 C 
ATOM      6  C   UNL     1      -5.187   3.673 -23.251  0.00  0.00    +0.011 C 
ATOM      7  C   UNL     1      -4.365   3.629 -24.257  0.00  0.00    -0.004 C 
ATOM      8  C   UNL     1      -4.706   3.933 -25.474  0.00  0.00    +0.007 C 
ATOM      9  C   UNL     1      -3.661   3.786 -26.232  0.00  0.00    +0.035 C 
ATOM     10  C   UNL     1      -2.674   3.392 -25.485  0.00  0.00    +0.067 C 
ATOM     11  C   UNL     1      -1.547   3.001 -24.969  0.00  0.00    +0.041 C 
ATOM     12  C   UNL     1      -3.109   3.295 -24.264  0.00  0.00    +0.028 C 
ATOM     13  O   UNL     1      -3.895   2.790 -20.171  0.00  0.00    -0.297 OA
ATOM     14  C   UNL     1      -0.948   2.193 -21.261  0.00  0.00    +0.012 C 
ATOM     15  C   UNL     1      -2.364   2.922 -23.266  0.00  0.00    +0.012 C 
ENDROOT
BRANCH  10  16
ATOM     16  O   UNL     1      -2.003   3.407 -26.598  0.00  0.00    -0.389 OA
ATOM     17  H   UNL     1      -1.674   2.515 -26.790  0.00  0.00    +0.210 HD
ENDBRANCH  10  16
TORSDOF 1
ENDMDL
MODEL 4
REMARK VINA RESULT:    -9.098      1.470      2.513
REMARK INTER + INTRA:          -9.364
REMARK INTER:                  -9.364
REMARK INTRA:                   0.000
REMARK UNBOUND:                 0.000
REMARK  Name = ZINC000019800969
REMARK  4 active torsions:
REMARK  status: ('A' for Active; 'I' for Inactive)
REMARK    1  A    between atoms: C_1  and  C_2
REMARK    2  A    between atoms: C_2  and  C_3
REMARK    3  A    between atoms: C_12  and  C_13
REMARK    4  A    between atoms: C_12  and  O_14
REMARK                            x       y       z     vdW  Elec       q    Type
REMARK                         _______ _______ _______ _____ _____    ______ ____
ROOT
ATOM      1  C   UNL     1      -0.751   3.488 -25.337  0.00  0.00    +0.012 C 
ATOM      2  C   UNL     1      -0.789   3.076 -24.104  0.00  0.00    -0.021 C 
ATOM      3  C   UNL     1      -1.261   2.775 -22.931  0.00  0.00    +0.065 C 
ATOM      4  C   UNL     1      -1.551   2.421 -21.714  0.00  0.00    +0.137 C 
ATOM      5  C   UNL     1      -2.703   2.455 -21.113  0.00  0.00    +0.075 C 
ATOM      6  C   UNL     1      -3.850   2.851 -21.580  0.00  0.00    +0.011 C 
ATOM      7  C   UNL     1      -4.127   3.311 -22.763  0.00  0.00    -0.004 C 
ATOM      8  C   UNL     1      -5.319   3.681 -23.126  0.00  0.00    +0.007 C 
ATOM      9  C   UNL     1      -5.256   4.088 -24.359  0.00  0.00    +0.035 C 
ATOM     10  C   UNL     1      -4.026   3.969 -24.759  0.00  0.00    +0.067 C 
ATOM     11  C   UNL     1      -2.890   3.949 -25.391  0.00  0.00    +0.041 C 
ATOM     12  C   UNL     1      -3.327   3.489 -23.772  0.00  0.00    +0.028 C 
ATOM     13  O   UNL     1      -0.557   1.974 -21.005  0.00  0.00    -0.297 OA
ATOM     14  C   UNL     1       0.460   2.760 -23.934  0.00  0.00    +0.012 C 
ATOM     15  C   UNL     1      -2.051   3.250 -23.847  0.00  0.00    +0.012 C 
ENDROOT
BRANCH  10  16
ATOM     16  O   UNL     1      -4.485   4.445 -25.877  0.00  0.00    -0.389 OA
ATOM     17  H   UNL     1      -4.260   5.386 -25.945  0.00  0.00    +0.210 HD
ENDBRANCH  10  16
TORSDOF 1
ENDMDL
MODEL 5
REMARK VINA RESULT:    -9.057      0.845      3.050
REMARK INTER + INTRA:          -9.322
REMARK INTER:                  -9.322
REMARK INTRA:                   0.000
REMARK UNBOUND:                 0.000
REMARK  Name = ZINC000019800969
REMARK  4 active torsions:
REMARK  status: ('A' for Active; 'I' for Inactive)
REMARK    1  A    between atoms: C_1  and  C_2
REMARK    2  A    between atoms: C_2  and  C_3
REMARK    3  A    between atoms: C_12  and  C_13
REMARK    4  A    between atoms: C_12  and  O_14
REMARK                            x       y       z     vdW  Elec       q    Type
REMARK                         _______ _______ _______ _____ _____    ______ ____
ROOT
ATOM      1  C   UNL     1      -2.574   2.554 -20.859  0.00  0.00    +0.012 C 
ATOM      2  C   UNL     1      -1.777   2.619 -21.884  0.00  0.00    -0.021 C 
ATOM      3  C   UNL     1      -1.365   2.827 -23.100  0.00  0.00    +0.065 C 
ATOM      4  C   UNL     1      -0.778   2.976 -24.251  0.00  0.00    +0.137 C 
ATOM      5  C   UNL     1      -1.290   3.385 -25.373  0.00  0.00    +0.075 C 
ATOM      6  C   UNL     1      -2.513   3.746 -25.624  0.00  0.00    +0.011 C 
ATOM      7  C   UNL     1      -3.527   3.787 -24.812  0.00  0.00    -0.004 C 
ATOM      8  C   UNL     1      -4.717   4.168 -25.171  0.00  0.00    +0.007 C 
ATOM      9  C   UNL     1      -5.494   4.094 -24.132  0.00  0.00    +0.035 C 
ATOM     10  C   UNL     1      -4.785   3.668 -23.130  0.00  0.00    +0.067 C 
ATOM     11  C   UNL     1      -4.308   3.262 -21.991  0.00  0.00    +0.041 C 
ATOM     12  C   UNL     1      -3.569   3.478 -23.550  0.00  0.00    +0.028 C 
ATOM     13  O   UNL     1       0.486   2.676 -24.282  0.00  0.00    -0.297 OA
ATOM     14  C   UNL     1      -0.671   2.212 -21.337  0.00  0.00    +0.012 C 
ATOM     15  C   UNL     1      -2.607   3.050 -22.788  0.00  0.00    +0.012 C 
ENDROOT
BRANCH  10  16
ATOM     16  O   UNL     1      -5.901   3.772 -22.472  0.00  0.00    -0.389 OA
ATOM     17  H   UNL     1      -6.128   2.913 -22.081  0.00  0.00    +0.210 HD
ENDBRANCH  10  16
TORSDOF 1
ENDMDL
MODEL 6
REMARK VINA RESULT:    -9.044      1.291      4.284
REMARK INTER + INTRA:          -9.308
REMARK INTER:                  -9.308
REMARK INTRA:                   0.000
REMARK UNBOUND:                 0.000
REMARK  Name = ZINC000019800969
REMARK  4 active torsions:
REMARK  status: ('A' for Active; 'I' for Inactive)
REMARK    1  A    between atoms: C_1  and  C_2
REMARK    2  A    between atoms: C_2  and  C_3
REMARK    3  A    between atoms: C_12  and  C_13
REMARK    4  A    between atoms: C_12  and  O_14
REMARK                            x       y       z     vdW  Elec       q    Type
REMARK                         _______ _______ _______ _____ _____    ______ ____
ROOT
ATOM      1  C   UNL     1      -4.110   2.579 -21.023  0.00  0.00    +0.012 C 
ATOM      2  C   UNL     1      -4.278   3.061 -22.219  0.00  0.00    -0.021 C 
ATOM      3  C   UNL     1      -4.005   3.446 -23.431  0.00  0.00    +0.065 C 
ATOM      4  C   UNL     1      -3.921   3.878 -24.654  0.00  0.00    +0.137 C 
ATOM      5  C   UNL     1      -2.877   3.922 -25.427  0.00  0.00    +0.075 C 
ATOM      6  C   UNL     1      -1.660   3.545 -25.169  0.00  0.00    +0.011 C 
ATOM      7  C   UNL     1      -1.187   3.030 -24.074  0.00  0.00    -0.004 C 
ATOM      8  C   UNL     1       0.058   2.686 -23.924  0.00  0.00    +0.007 C 
ATOM      9  C   UNL     1       0.201   2.208 -22.723  0.00  0.00    +0.035 C 
ATOM     10  C   UNL     1      -0.955   2.257 -22.131  0.00  0.00    +0.067 C 
ATOM     11  C   UNL     1      -1.977   2.198 -21.330  0.00  0.00    +0.041 C 
ATOM     12  C   UNL     1      -1.813   2.765 -22.966  0.00  0.00    +0.028 C 
ATOM     13  O   UNL     1      -5.026   4.326 -25.172  0.00  0.00    -0.297 OA
ATOM     14  C   UNL     1      -5.547   3.338 -22.175  0.00  0.00    +0.012 C 
ATOM     15  C   UNL     1      -3.067   2.950 -22.679  0.00  0.00    +0.012 C 
ENDROOT
BRANCH  10  16
ATOM     16  O   UNL     1      -0.311   1.737 -21.129  0.00  0.00    -0.389 OA
ATOM     17  H   UNL     1      -0.807   1.894 -20.310  0.00  0.00    +0.210 HD
ENDBRANCH  10  16
TORSDOF 1
ENDMDL
MODEL 7
REMARK VINA RESULT:    -8.975      0.765      4.729
REMARK INTER + INTRA:          -9.238
REMARK INTER:                  -9.238
REMARK INTRA:                   0.000
REMARK UNBOUND:                 0.000
REMARK  Name = ZINC000019800969
REMARK  4 active torsions:
REMARK  status: ('A' for Active; 'I' for Inactive)
REMARK    1  A    between atoms: C_1  and  C_2
REMARK    2  A    between atoms: C_2  and  C_3
REMARK    3  A    between atoms: C_12  and  C_13
REMARK    4  A    between atoms: C_12  and  O_14
REMARK                            x       y       z     vdW  Elec       q    Type
REMARK                         _______ _______ _______ _____ _____    ______ ____
ROOT
ATOM      1  C   UNL     1      -1.747   2.363 -21.375  0.00  0.00    +0.012 C 
ATOM      2  C   UNL     1      -2.986   2.690 -21.595  0.00  0.00    -0.021 C 
ATOM      3  C   UNL     1      -4.052   3.082 -22.229  0.00  0.00    +0.065 C 
ATOM      4  C   UNL     1      -5.210   3.451 -22.690  0.00  0.00    +0.137 C 
ATOM      5  C   UNL     1      -5.520   3.820 -23.898  0.00  0.00    +0.075 C 
ATOM      6  C   UNL     1      -4.750   3.911 -24.941  0.00  0.00    +0.011 C 
ATOM      7  C   UNL     1      -3.479   3.655 -25.034  0.00  0.00    -0.004 C 
ATOM      8  C   UNL     1      -2.802   3.782 -26.137  0.00  0.00    +0.007 C 
ATOM      9  C   UNL     1      -1.570   3.450 -25.891  0.00  0.00    +0.035 C 
ATOM     10  C   UNL     1      -1.484   3.119 -24.638  0.00  0.00    +0.067 C 
ATOM     11  C   UNL     1      -1.137   2.745 -23.442  0.00  0.00    +0.041 C 
ATOM     12  C   UNL     1      -2.664   3.245 -24.107  0.00  0.00    +0.028 C 
ATOM     13  O   UNL     1      -6.186   3.451 -21.832  0.00  0.00    -0.297 OA
ATOM     14  C   UNL     1      -3.483   2.503 -20.409  0.00  0.00    +0.012 C 
ATOM     15  C   UNL     1      -2.919   2.990 -22.859  0.00  0.00    +0.012 C 
ENDROOT
BRANCH  10  16
ATOM     16  O   UNL     1      -0.232   2.914 -24.918  0.00  0.00    -0.389 OA
ATOM     17  H   UNL     1      -0.031   3.280 -25.794  0.00  0.00    +0.210 HD
ENDBRANCH  10  16
TORSDOF 1
ENDMDL
MODEL 8
REMARK VINA RESULT:    -8.935      1.775      3.038
REMARK INTER + INTRA:          -9.196
REMARK INTER:                  -9.196
REMARK INTRA:                   0.000
REMARK UNBOUND:                 0.000
REMARK  Name = ZINC000019800969
REMARK  4 active torsions:
REMARK  status: ('A' for Active; 'I' for Inactive)
REMARK    1  A    between atoms: C_1  and  C_2
REMARK    2  A    between atoms: C_2  and  C_3
REMARK    3  A    between atoms: C_12  and  C_13
REMARK    4  A    between atoms: C_12  and  O_14
REMARK                            x       y       z     vdW  Elec       q    Type
REMARK                         _______ _______ _______ _____ _____    ______ ____
ROOT
ATOM      1  C   UNL     1      -0.348   3.628 -23.245  0.00  0.00    +0.012 C 
ATOM      2  C   UNL     1      -1.130   3.634 -24.284  0.00  0.00    -0.021 C 
ATOM      3  C   UNL     1      -2.221   3.626 -24.992  0.00  0.00    +0.065 C 
ATOM      4  C   UNL     1      -3.192   3.624 -25.856  0.00  0.00    +0.137 C 
ATOM      5  C   UNL     1      -4.473   3.591 -25.634  0.00  0.00    +0.075 C 
ATOM      6  C   UNL     1      -5.098   3.551 -24.494  0.00  0.00    +0.011 C 
ATOM      7  C   UNL     1      -4.595   3.535 -23.296  0.00  0.00    -0.004 C 
ATOM      8  C   UNL     1      -5.320   3.494 -22.217  0.00  0.00    +0.007 C 
ATOM      9  C   UNL     1      -4.517   3.489 -21.195  0.00  0.00    +0.035 C 
ATOM     10  C   UNL     1      -3.298   3.526 -21.641  0.00  0.00    +0.067 C 
ATOM     11  C   UNL     1      -2.011   3.559 -21.825  0.00  0.00    +0.041 C 
ATOM     12  C   UNL     1      -3.346   3.554 -22.940  0.00  0.00    +0.028 C 
ATOM     13  O   UNL     1      -2.837   3.661 -27.106  0.00  0.00    -0.297 OA
ATOM     14  C   UNL     1      -0.244   3.676 -25.234  0.00  0.00    +0.012 C 
ATOM     15  C   UNL     1      -2.288   3.595 -23.695  0.00  0.00    +0.012 C 
ENDROOT
BRANCH  10  16
ATOM     16  O   UNL     1      -2.980   3.504 -20.381  0.00  0.00    -0.389 OA
ATOM     17  H   UNL     1      -2.536   2.667 -20.173  0.00  0.00    +0.210 HD
ENDBRANCH  10  16
TORSDOF 1
ENDMDL
MODEL 9
REMARK VINA RESULT:    -8.904      1.031      3.825
REMARK INTER + INTRA:          -9.165
REMARK INTER:                  -9.165
REMARK INTRA:                   0.000
REMARK UNBOUND:                 0.000
REMARK  Name = ZINC000019800969
REMARK  4 active torsions:
REMARK  status: ('A' for Active; 'I' for Inactive)
REMARK    1  A    between atoms: C_1  and  C_2
REMARK    2  A    between atoms: C_2  and  C_3
REMARK    3  A    between atoms: C_12  and  C_13
REMARK    4  A    between atoms: C_12  and  O_14
REMARK                            x       y       z     vdW  Elec       q    Type
REMARK                         _______ _______ _______ _____ _____    ______ ____
ROOT
ATOM      1  C   UNL     1      -3.714   4.113 -25.658  0.00  0.00    +0.012 C 
ATOM      2  C   UNL     1      -3.982   3.762 -24.435  0.00  0.00    -0.021 C 
ATOM      3  C   UNL     1      -3.808   3.319 -23.225  0.00  0.00    +0.065 C 
ATOM      4  C   UNL     1      -3.825   2.910 -21.991  0.00  0.00    +0.137 C 
ATOM      5  C   UNL     1      -2.839   2.457 -21.275  0.00  0.00    +0.075 C 
ATOM      6  C   UNL     1      -1.594   2.301 -21.615  0.00  0.00    +0.011 C 
ATOM      7  C   UNL     1      -1.027   2.560 -22.756  0.00  0.00    -0.004 C 
ATOM      8  C   UNL     1       0.237   2.364 -22.988  0.00  0.00    +0.007 C 
ATOM      9  C   UNL     1       0.479   2.721 -24.214  0.00  0.00    +0.035 C 
ATOM     10  C   UNL     1      -0.633   3.138 -24.739  0.00  0.00    +0.067 C 
ATOM     11  C   UNL     1      -1.595   3.596 -25.485  0.00  0.00    +0.041 C 
ATOM     12  C   UNL     1      -1.565   3.038 -23.838  0.00  0.00    +0.028 C 
ATOM     13  O   UNL     1      -4.979   2.961 -21.395  0.00  0.00    -0.297 OA
ATOM     14  C   UNL     1      -5.254   4.025 -24.398  0.00  0.00    +0.012 C 
ATOM     15  C   UNL     1      -2.803   3.376 -24.047  0.00  0.00    +0.012 C 
ENDROOT
BRANCH  10  16
ATOM     16  O   UNL     1       0.097   3.333 -25.797  0.00  0.00    -0.389 OA
ATOM     17  H   UNL     1       0.717   2.595 -25.903  0.00  0.00    +0.210 HD
ENDBRANCH  10  16
TORSDOF 1
ENDMDL
