MODEL 1
REMARK VINA RESULT:   -10.285      0.000      0.000
REMARK INTER + INTRA:         -10.285
REMARK INTER:                 -10.285
REMARK INTRA:                   0.000
REMARK UNBOUND:                 0.000
REMARK  Name = ZINC000000338147
REMARK  0 active torsions:
REMARK  status: ('A' for Active; 'I' for Inactive)
REMARK                            x       y       z     vdW  Elec       q    Type
REMARK                         _______ _______ _______ _____ _____    ______ ____
ROOT
ATOM      1  C   UNL     1       0.130   1.948 -21.434  0.00  0.00    +0.008 A 
ATOM      2  C   UNL     1       1.152   1.962 -22.236  0.00  0.00    +0.050 A 
ATOM      3  C   UNL     1       1.000   2.316 -23.477  0.00  0.00    +0.167 A 
ATOM      4  C   UNL     1      -0.175   2.657 -23.917  0.00  0.00    +0.174 A 
ATOM      5  O   UNL     1      -0.061   2.965 -25.174  0.00  0.00    -0.452 OA
ATOM      6  C   UNL     1       1.185   2.814 -25.513  0.00  0.00    +0.466 C 
ATOM      7  C   UNL     1      -1.198   2.643 -23.114  0.00  0.00    +0.035 A 
ATOM      8  C   UNL     1      -2.374   2.984 -23.553  0.00  0.00    +0.040 A 
ATOM      9  C   UNL     1      -3.396   2.970 -22.750  0.00  0.00    +0.015 A 
ATOM     10  C   UNL     1      -4.572   3.311 -23.190  0.00  0.00    -0.030 A 
ATOM     11  C   UNL     1      -4.724   3.665 -24.431  0.00  0.00    +0.054 A 
ATOM     12  C   UNL     1      -3.701   3.679 -25.233  0.00  0.00    +0.167 A 
ATOM     13  O   UNL     1      -3.587   3.986 -26.491  0.00  0.00    -0.453 OA
ATOM     14  C   UNL     1      -2.341   3.836 -26.830  0.00  0.00    +0.466 C 
ATOM     15  O   UNL     1      -1.685   3.435 -25.781  0.00  0.00    -0.452 OA
ATOM     16  C   UNL     1      -5.595   3.297 -22.387  0.00  0.00    +0.086 C 
ATOM     17  C   UNL     1      -5.442   2.942 -21.145  0.00  0.00    +0.134 C 
ATOM     18  N   UNL     1      -4.266   2.602 -20.707  0.00  0.00    +0.233 N 
ATOM     19  H   UNL     1      -4.376   1.612 -20.485  0.00  0.00    +0.202 HD
ATOM     20  H   UNL     1      -4.045   3.234 -19.937  0.00  0.00    +0.202 HD
ATOM     21  C   UNL     1      -3.243   2.616 -21.509  0.00  0.00    +0.099 C 
ATOM     22  C   UNL     1      -2.068   2.275 -21.070  0.00  0.00    +0.095 C 
ATOM     23  C   UNL     1      -2.527   3.339 -24.795  0.00  0.00    +0.174 A 
ATOM     24  O   UNL     1       1.841   2.414 -24.465  0.00  0.00    -0.453 OA
ATOM     25  C   UNL     1      -1.045   2.289 -21.872  0.00  0.00    -0.030 A 
ENDROOT
TORSDOF 0
ENDMDL
MODEL 2
REMARK VINA RESULT:    -9.863      1.884      4.519
REMARK INTER + INTRA:          -9.863
REMARK INTER:                  -9.863
REMARK INTRA:                   0.000
REMARK UNBOUND:                 0.000
REMARK  Name = ZINC000000338147
REMARK  0 active torsions:
REMARK  status: ('A' for Active; 'I' for Inactive)
REMARK                            x       y       z     vdW  Elec       q    Type
REMARK                         _______ _______ _______ _____ _____    ______ ____
ROOT
ATOM      1  C   UNL     1      -3.117   2.569 -20.362  0.00  0.00    +0.008 A 
ATOM      2  C   UNL     1      -4.372   2.839 -20.565  0.00  0.00    +0.050 A 
ATOM      3  C   UNL     1      -4.783   3.168 -21.754  0.00  0.00    +0.167 A 
ATOM      4  C   UNL     1      -3.937   3.227 -22.740  0.00  0.00    +0.174 A 
ATOM      5  O   UNL     1      -4.590   3.574 -23.809  0.00  0.00    -0.452 OA
ATOM      6  C   UNL     1      -5.840   3.730 -23.484  0.00  0.00    +0.466 C 
ATOM      7  C   UNL     1      -2.682   2.957 -22.537  0.00  0.00    +0.035 A 
ATOM      8  C   UNL     1      -1.836   3.016 -23.523  0.00  0.00    +0.040 A 
ATOM      9  C   UNL     1      -0.581   2.745 -23.320  0.00  0.00    +0.015 A 
ATOM     10  C   UNL     1       0.265   2.804 -24.306  0.00  0.00    -0.030 A 
ATOM     11  C   UNL     1      -0.146   3.133 -25.495  0.00  0.00    +0.054 A 
ATOM     12  C   UNL     1      -1.401   3.403 -25.698  0.00  0.00    +0.167 A 
ATOM     13  O   UNL     1      -2.054   3.750 -26.767  0.00  0.00    -0.453 OA
ATOM     14  C   UNL     1      -3.304   3.906 -26.442  0.00  0.00    +0.466 C 
ATOM     15  O   UNL     1      -3.422   3.655 -25.172  0.00  0.00    -0.452 OA
ATOM     16  C   UNL     1       1.520   2.534 -24.103  0.00  0.00    +0.086 C 
ATOM     17  C   UNL     1       1.930   2.205 -22.914  0.00  0.00    +0.134 C 
ATOM     18  N   UNL     1       1.084   2.146 -21.928  0.00  0.00    +0.233 N 
ATOM     19  H   UNL     1       1.389   2.900 -21.312  0.00  0.00    +0.202 HD
ATOM     20  H   UNL     1       1.125   1.195 -21.561  0.00  0.00    +0.202 HD
ATOM     21  C   UNL     1      -0.171   2.416 -22.131  0.00  0.00    +0.099 C 
ATOM     22  C   UNL     1      -1.017   2.358 -21.145  0.00  0.00    +0.095 C 
ATOM     23  C   UNL     1      -2.246   3.344 -24.712  0.00  0.00    +0.174 A 
ATOM     24  O   UNL     1      -5.958   3.479 -22.214  0.00  0.00    -0.453 OA
ATOM     25  C   UNL     1      -2.272   2.628 -21.348  0.00  0.00    -0.030 A 
ENDROOT
TORSDOF 0
ENDMDL
MODEL 3
REMARK VINA RESULT:    -9.666      1.828      4.857
REMARK INTER + INTRA:          -9.666
REMARK INTER:                  -9.666
REMARK INTRA:                   0.000
REMARK UNBOUND:                 0.000
REMARK  Name = ZINC000000338147
REMARK  0 active torsions:
REMARK  status: ('A' for Active; 'I' for Inactive)
REMARK                            x       y       z     vdW  Elec       q    Type
REMARK                         _______ _______ _______ _____ _____    ______ ____
ROOT
ATOM      1  C   UNL     1      -2.533   2.107 -21.059  0.00  0.00    +0.008 A 
ATOM      2  C   UNL     1      -3.492   2.604 -21.781  0.00  0.00    +0.050 A 
ATOM      3  C   UNL     1      -3.229   3.125 -22.943  0.00  0.00    +0.167 A 
ATOM      4  C   UNL     1      -2.006   3.147 -23.383  0.00  0.00    +0.174 A 
ATOM      5  O   UNL     1      -2.009   3.712 -24.553  0.00  0.00    -0.452 OA
ATOM      6  C   UNL     1      -3.235   4.040 -24.837  0.00  0.00    +0.466 C 
ATOM      7  C   UNL     1      -1.046   2.648 -22.660  0.00  0.00    +0.035 A 
ATOM      8  C   UNL     1       0.177   2.671 -23.100  0.00  0.00    +0.040 A 
ATOM      9  C   UNL     1       1.137   2.172 -22.378  0.00  0.00    +0.015 A 
ATOM     10  C   UNL     1       2.360   2.194 -22.818  0.00  0.00    -0.030 A 
ATOM     11  C   UNL     1       2.623   2.715 -23.980  0.00  0.00    +0.054 A 
ATOM     12  C   UNL     1       1.664   3.212 -24.702  0.00  0.00    +0.167 A 
ATOM     13  O   UNL     1       1.660   3.778 -25.872  0.00  0.00    -0.453 OA
ATOM     14  C   UNL     1       0.434   4.106 -26.156  0.00  0.00    +0.466 C 
ATOM     15  O   UNL     1      -0.319   3.743 -25.161  0.00  0.00    -0.452 OA
ATOM     16  C   UNL     1       3.319   1.696 -22.095  0.00  0.00    +0.086 C 
ATOM     17  C   UNL     1       3.055   1.176 -20.934  0.00  0.00    +0.134 C 
ATOM     18  N   UNL     1       1.832   1.154 -20.494  0.00  0.00    +0.233 N 
ATOM     19  H   UNL     1       1.862   1.775 -19.685  0.00  0.00    +0.202 HD
ATOM     20  H   UNL     1       1.597   0.176 -20.327  0.00  0.00    +0.202 HD
ATOM     21  C   UNL     1       0.872   1.652 -21.216  0.00  0.00    +0.099 C 
ATOM     22  C   UNL     1      -0.351   1.631 -20.777  0.00  0.00    +0.095 C 
ATOM     23  C   UNL     1       0.441   3.191 -24.262  0.00  0.00    +0.174 A 
ATOM     24  O   UNL     1      -3.989   3.677 -23.842  0.00  0.00    -0.453 OA
ATOM     25  C   UNL     1      -1.310   2.129 -21.499  0.00  0.00    -0.030 A 
ENDROOT
TORSDOF 0
ENDMDL
MODEL 4
REMARK VINA RESULT:    -8.973      2.514      3.859
REMARK INTER + INTRA:          -8.973
REMARK INTER:                  -8.973
REMARK INTRA:                   0.000
REMARK UNBOUND:                 0.000
REMARK  Name = ZINC000000338147
REMARK  0 active torsions:
REMARK  status: ('A' for Active; 'I' for Inactive)
REMARK                            x       y       z     vdW  Elec       q    Type
REMARK                         _______ _______ _______ _____ _____    ______ ____
ROOT
ATOM      1  C   UNL     1       1.435   2.401 -24.363  0.00  0.00    +0.008 A 
ATOM      2  C   UNL     1       1.969   2.000 -23.247  0.00  0.00    +0.050 A 
ATOM      3  C   UNL     1       1.236   1.892 -22.178  0.00  0.00    +0.167 A 
ATOM      4  C   UNL     1      -0.030   2.185 -22.225  0.00  0.00    +0.174 A 
ATOM      5  O   UNL     1      -0.531   1.997 -21.041  0.00  0.00    -0.452 OA
ATOM      6  C   UNL     1       0.425   1.586 -20.261  0.00  0.00    +0.466 C 
ATOM      7  C   UNL     1      -0.562   2.587 -23.342  0.00  0.00    +0.035 A 
ATOM      8  C   UNL     1      -1.829   2.880 -23.389  0.00  0.00    +0.040 A 
ATOM      9  C   UNL     1      -2.361   3.281 -24.505  0.00  0.00    +0.015 A 
ATOM     10  C   UNL     1      -3.627   3.575 -24.552  0.00  0.00    -0.030 A 
ATOM     11  C   UNL     1      -4.360   3.467 -23.484  0.00  0.00    +0.054 A 
ATOM     12  C   UNL     1      -3.826   3.065 -22.368  0.00  0.00    +0.167 A 
ATOM     13  O   UNL     1      -4.327   2.877 -21.184  0.00  0.00    -0.453 OA
ATOM     14  C   UNL     1      -3.371   2.466 -20.404  0.00  0.00    +0.466 C 
ATOM     15  O   UNL     1      -2.280   2.402 -21.106  0.00  0.00    -0.452 OA
ATOM     16  C   UNL     1      -4.160   3.976 -25.668  0.00  0.00    +0.086 C 
ATOM     17  C   UNL     1      -3.427   4.084 -26.737  0.00  0.00    +0.134 C 
ATOM     18  N   UNL     1      -2.161   3.790 -26.689  0.00  0.00    +0.233 N 
ATOM     19  H   UNL     1      -1.706   4.688 -26.856  0.00  0.00    +0.202 HD
ATOM     20  H   UNL     1      -2.005   3.050 -27.373  0.00  0.00    +0.202 HD
ATOM     21  C   UNL     1      -1.628   3.389 -25.573  0.00  0.00    +0.099 C 
ATOM     22  C   UNL     1      -0.363   3.096 -25.525  0.00  0.00    +0.095 C 
ATOM     23  C   UNL     1      -2.562   2.772 -22.321  0.00  0.00    +0.174 A 
ATOM     24  O   UNL     1       1.517   1.522 -20.964  0.00  0.00    -0.453 OA
ATOM     25  C   UNL     1       0.171   2.695 -24.410  0.00  0.00    -0.030 A 
ENDROOT
TORSDOF 0
ENDMDL
MODEL 5
REMARK VINA RESULT:    -8.890      2.475      5.354
REMARK INTER + INTRA:          -8.890
REMARK INTER:                  -8.890
REMARK INTRA:                   0.000
REMARK UNBOUND:                 0.000
REMARK  Name = ZINC000000338147
REMARK  0 active torsions:
REMARK  status: ('A' for Active; 'I' for Inactive)
REMARK                            x       y       z     vdW  Elec       q    Type
REMARK                         _______ _______ _______ _____ _____    ______ ____
ROOT
ATOM      1  C   UNL     1      -2.057   3.726 -26.634  0.00  0.00    +0.008 A 
ATOM      2  C   UNL     1      -3.318   4.035 -26.699  0.00  0.00    +0.050 A 
ATOM      3  C   UNL     1      -4.062   3.959 -25.636  0.00  0.00    +0.167 A 
ATOM      4  C   UNL     1      -3.544   3.573 -24.507  0.00  0.00    +0.174 A 
ATOM      5  O   UNL     1      -4.485   3.582 -23.610  0.00  0.00    -0.452 OA
ATOM      6  C   UNL     1      -5.584   3.973 -24.184  0.00  0.00    +0.466 C 
ATOM      7  C   UNL     1      -2.283   3.264 -24.442  0.00  0.00    +0.035 A 
ATOM      8  C   UNL     1      -1.766   2.879 -23.313  0.00  0.00    +0.040 A 
ATOM      9  C   UNL     1      -0.504   2.570 -23.249  0.00  0.00    +0.015 A 
ATOM     10  C   UNL     1       0.013   2.184 -22.119  0.00  0.00    -0.030 A 
ATOM     11  C   UNL     1      -0.731   2.108 -21.056  0.00  0.00    +0.054 A 
ATOM     12  C   UNL     1      -1.992   2.417 -21.122  0.00  0.00    +0.167 A 
ATOM     13  O   UNL     1      -2.932   2.425 -20.225  0.00  0.00    -0.453 OA
ATOM     14  C   UNL     1      -4.032   2.816 -20.799  0.00  0.00    +0.466 C 
ATOM     15  O   UNL     1      -3.770   3.049 -22.050  0.00  0.00    -0.452 OA
ATOM     16  C   UNL     1       1.274   1.875 -22.055  0.00  0.00    +0.086 C 
ATOM     17  C   UNL     1       2.018   1.951 -23.119  0.00  0.00    +0.134 C 
ATOM     18  N   UNL     1       1.500   2.337 -24.247  0.00  0.00    +0.233 N 
ATOM     19  H   UNL     1       1.567   1.504 -24.833  0.00  0.00    +0.202 HD
ATOM     20  H   UNL     1       2.021   3.162 -24.543  0.00  0.00    +0.202 HD
ATOM     21  C   UNL     1       0.239   2.646 -24.312  0.00  0.00    +0.099 C 
ATOM     22  C   UNL     1      -0.279   3.032 -25.441  0.00  0.00    +0.095 C 
ATOM     23  C   UNL     1      -2.509   2.802 -22.249  0.00  0.00    +0.174 A 
ATOM     24  O   UNL     1      -5.323   4.206 -25.436  0.00  0.00    -0.453 OA
ATOM     25  C   UNL     1      -1.540   3.341 -25.506  0.00  0.00    -0.030 A 
ENDROOT
TORSDOF 0
ENDMDL
MODEL 6
REMARK VINA RESULT:    -8.618      1.401      2.483
REMARK INTER + INTRA:          -8.618
REMARK INTER:                  -8.618
REMARK INTRA:                   0.000
REMARK UNBOUND:                 0.000
REMARK  Name = ZINC000000338147
REMARK  0 active torsions:
REMARK  status: ('A' for Active; 'I' for Inactive)
REMARK                            x       y       z     vdW  Elec       q    Type
REMARK                         _______ _______ _______ _____ _____    ______ ____
ROOT
ATOM      1  C   UNL     1       1.060   1.367 -20.266  0.00  0.00    +0.008 A 
ATOM      2  C   UNL     1       2.325   1.345 -20.565  0.00  0.00    +0.050 A 
ATOM      3  C   UNL     1       2.730   1.805 -21.711  0.00  0.00    +0.167 A 
ATOM      4  C   UNL     1       1.869   2.289 -22.558  0.00  0.00    +0.174 A 
ATOM      5  O   UNL     1       2.519   2.679 -23.614  0.00  0.00    -0.452 OA
ATOM      6  C   UNL     1       3.782   2.437 -23.420  0.00  0.00    +0.466 C 
ATOM      7  C   UNL     1       0.604   2.311 -22.258  0.00  0.00    +0.035 A 
ATOM      8  C   UNL     1      -0.256   2.794 -23.105  0.00  0.00    +0.040 A 
ATOM      9  C   UNL     1      -1.521   2.816 -22.805  0.00  0.00    +0.015 A 
ATOM     10  C   UNL     1      -2.382   3.300 -23.652  0.00  0.00    -0.030 A 
ATOM     11  C   UNL     1      -1.977   3.761 -24.798  0.00  0.00    +0.054 A 
ATOM     12  C   UNL     1      -0.712   3.738 -25.097  0.00  0.00    +0.167 A 
ATOM     13  O   UNL     1      -0.062   4.128 -26.153  0.00  0.00    -0.453 OA
ATOM     14  C   UNL     1       1.201   3.886 -25.959  0.00  0.00    +0.466 C 
ATOM     15  O   UNL     1       1.331   3.346 -24.784  0.00  0.00    -0.452 OA
ATOM     16  C   UNL     1      -3.646   3.322 -23.351  0.00  0.00    +0.086 C 
ATOM     17  C   UNL     1      -4.051   2.861 -22.205  0.00  0.00    +0.134 C 
ATOM     18  N   UNL     1      -3.190   2.378 -21.359  0.00  0.00    +0.233 N 
ATOM     19  H   UNL     1      -3.437   1.389 -21.311  0.00  0.00    +0.202 HD
ATOM     20  H   UNL     1      -3.280   2.926 -20.502  0.00  0.00    +0.202 HD
ATOM     21  C   UNL     1      -1.925   2.356 -21.658  0.00  0.00    +0.099 C 
ATOM     22  C   UNL     1      -1.064   1.873 -20.812  0.00  0.00    +0.095 C 
ATOM     23  C   UNL     1       0.148   3.255 -24.251  0.00  0.00    +0.174 A 
ATOM     24  O   UNL     1       3.912   1.897 -22.245  0.00  0.00    -0.453 OA
ATOM     25  C   UNL     1       0.200   1.850 -21.112  0.00  0.00    -0.030 A 
ENDROOT
TORSDOF 0
ENDMDL
MODEL 7
REMARK VINA RESULT:    -8.483      2.522      5.766
REMARK INTER + INTRA:          -8.483
REMARK INTER:                  -8.483
REMARK INTRA:                   0.000
REMARK UNBOUND:                 0.000
REMARK  Name = ZINC000000338147
REMARK  0 active torsions:
REMARK  status: ('A' for Active; 'I' for Inactive)
REMARK                            x       y       z     vdW  Elec       q    Type
REMARK                         _______ _______ _______ _____ _____    ______ ____
ROOT
ATOM      1  C   UNL     1      -3.627   4.330 -25.250  0.00  0.00    +0.008 A 
ATOM      2  C   UNL     1      -4.651   4.178 -24.465  0.00  0.00    +0.050 A 
ATOM      3  C   UNL     1      -4.515   3.555 -23.332  0.00  0.00    +0.167 A 
ATOM      4  C   UNL     1      -3.353   3.084 -22.985  0.00  0.00    +0.174 A 
ATOM      5  O   UNL     1      -3.480   2.513 -21.825  0.00  0.00    -0.452 OA
ATOM      6  C   UNL     1      -4.721   2.630 -21.453  0.00  0.00    +0.466 C 
ATOM      7  C   UNL     1      -2.329   3.237 -23.772  0.00  0.00    +0.035 A 
ATOM      8  C   UNL     1      -1.167   2.766 -23.425  0.00  0.00    +0.040 A 
ATOM      9  C   UNL     1      -0.143   2.919 -24.212  0.00  0.00    +0.015 A 
ATOM     10  C   UNL     1       1.018   2.449 -23.865  0.00  0.00    -0.030 A 
ATOM     11  C   UNL     1       1.155   1.826 -22.732  0.00  0.00    +0.054 A 
ATOM     12  C   UNL     1       0.131   1.673 -21.946  0.00  0.00    +0.167 A 
ATOM     13  O   UNL     1       0.004   1.102 -20.786  0.00  0.00    -0.453 OA
ATOM     14  C   UNL     1      -1.237   1.219 -20.414  0.00  0.00    +0.466 C 
ATOM     15  O   UNL     1      -1.876   1.863 -21.346  0.00  0.00    -0.452 OA
ATOM     16  C   UNL     1       2.042   2.602 -24.651  0.00  0.00    +0.086 C 
ATOM     17  C   UNL     1       1.905   3.225 -25.784  0.00  0.00    +0.134 C 
ATOM     18  N   UNL     1       0.743   3.695 -26.130  0.00  0.00    +0.233 N 
ATOM     19  H   UNL     1       0.497   3.135 -26.946  0.00  0.00    +0.202 HD
ATOM     20  H   UNL     1       0.861   4.699 -26.268  0.00  0.00    +0.202 HD
ATOM     21  C   UNL     1      -0.281   3.542 -25.344  0.00  0.00    +0.099 C 
ATOM     22  C   UNL     1      -1.443   4.013 -25.690  0.00  0.00    +0.095 C 
ATOM     23  C   UNL     1      -1.029   2.143 -22.292  0.00  0.00    +0.174 A 
ATOM     24  O   UNL     1      -5.360   3.274 -22.384  0.00  0.00    -0.453 OA
ATOM     25  C   UNL     1      -2.467   3.860 -24.904  0.00  0.00    -0.030 A 
ENDROOT
TORSDOF 0
ENDMDL
MODEL 8
REMARK VINA RESULT:    -8.357      3.648      6.882
REMARK INTER + INTRA:          -8.357
REMARK INTER:                  -8.357
REMARK INTRA:                   0.000
REMARK UNBOUND:                 0.000
REMARK  Name = ZINC000000338147
REMARK  0 active torsions:
REMARK  status: ('A' for Active; 'I' for Inactive)
REMARK                            x       y       z     vdW  Elec       q    Type
REMARK                         _______ _______ _______ _____ _____    ______ ____
ROOT
ATOM      1  C   UNL     1       0.243   5.631 -23.258  0.00  0.00    +0.008 A 
ATOM      2  C   UNL     1      -0.844   4.919 -23.295  0.00  0.00    +0.050 A 
ATOM      3  C   UNL     1      -0.778   3.626 -23.178  0.00  0.00    +0.167 A 
ATOM      4  C   UNL     1       0.375   3.045 -23.024  0.00  0.00    +0.174 A 
ATOM      5  O   UNL     1       0.171   1.765 -22.933  0.00  0.00    -0.452 OA
ATOM      6  C   UNL     1      -1.108   1.553 -23.029  0.00  0.00    +0.466 C 
ATOM      7  C   UNL     1       1.462   3.758 -22.988  0.00  0.00    +0.035 A 
ATOM      8  C   UNL     1       2.615   3.177 -22.835  0.00  0.00    +0.040 A 
ATOM      9  C   UNL     1       3.702   3.889 -22.799  0.00  0.00    +0.015 A 
ATOM     10  C   UNL     1       4.856   3.308 -22.646  0.00  0.00    -0.030 A 
ATOM     11  C   UNL     1       4.921   2.015 -22.529  0.00  0.00    +0.054 A 
ATOM     12  C   UNL     1       3.834   1.303 -22.565  0.00  0.00    +0.167 A 
ATOM     13  O   UNL     1       3.630   0.023 -22.473  0.00  0.00    -0.453 OA
ATOM     14  C   UNL     1       2.351  -0.188 -22.570  0.00  0.00    +0.466 C 
ATOM     15  O   UNL     1       1.764   0.962 -22.721  0.00  0.00    -0.452 OA
ATOM     16  C   UNL     1       5.942   4.021 -22.609  0.00  0.00    +0.086 C 
ATOM     17  C   UNL     1       5.876   5.314 -22.727  0.00  0.00    +0.134 C 
ATOM     18  N   UNL     1       4.723   5.894 -22.880  0.00  0.00    +0.233 N 
ATOM     19  H   UNL     1       4.779   6.283 -23.821  0.00  0.00    +0.202 HD
ATOM     20  H   UNL     1       4.619   6.551 -22.106  0.00  0.00    +0.202 HD
ATOM     21  C   UNL     1       3.636   5.182 -22.916  0.00  0.00    +0.099 C 
ATOM     22  C   UNL     1       2.482   5.763 -23.069  0.00  0.00    +0.095 C 
ATOM     23  C   UNL     1       2.682   1.884 -22.718  0.00  0.00    +0.174 A 
ATOM     24  O   UNL     1      -1.695   2.704 -23.180  0.00  0.00    -0.453 OA
ATOM     25  C   UNL     1       1.396   5.051 -23.105  0.00  0.00    -0.030 A 
ENDROOT
TORSDOF 0
ENDMDL
MODEL 9
REMARK VINA RESULT:    -7.820      3.665      5.782
REMARK INTER + INTRA:          -7.820
REMARK INTER:                  -7.820
REMARK INTRA:                   0.000
REMARK UNBOUND:                 0.000
REMARK  Name = ZINC000000338147
REMARK  0 active torsions:
REMARK  status: ('A' for Active; 'I' for Inactive)
REMARK                            x       y       z     vdW  Elec       q    Type
REMARK                         _______ _______ _______ _____ _____    ______ ____
ROOT
ATOM      1  C   UNL     1       4.568   5.982 -22.930  0.00  0.00    +0.008 A 
ATOM      2  C   UNL     1       5.708   5.397 -22.714  0.00  0.00    +0.050 A 
ATOM      3  C   UNL     1       5.754   4.111 -22.528  0.00  0.00    +0.167 A 
ATOM      4  C   UNL     1       4.659   3.410 -22.558  0.00  0.00    +0.174 A 
ATOM      5  O   UNL     1       4.972   2.166 -22.346  0.00  0.00    -0.452 OA
ATOM      6  C   UNL     1       6.260   2.098 -22.186  0.00  0.00    +0.466 C 
ATOM      7  C   UNL     1       3.519   3.996 -22.774  0.00  0.00    +0.035 A 
ATOM      8  C   UNL     1       2.424   3.295 -22.803  0.00  0.00    +0.040 A 
ATOM      9  C   UNL     1       1.283   3.881 -23.019  0.00  0.00    +0.015 A 
ATOM     10  C   UNL     1       0.188   3.181 -23.048  0.00  0.00    -0.030 A 
ATOM     11  C   UNL     1       0.234   1.895 -22.862  0.00  0.00    +0.054 A 
ATOM     12  C   UNL     1       1.375   1.310 -22.647  0.00  0.00    +0.167 A 
ATOM     13  O   UNL     1       1.687   0.066 -22.435  0.00  0.00    -0.453 OA
ATOM     14  C   UNL     1       2.976  -0.003 -22.275  0.00  0.00    +0.466 C 
ATOM     15  O   UNL     1       3.459   1.199 -22.387  0.00  0.00    -0.452 OA
ATOM     16  C   UNL     1      -0.953   3.767 -23.264  0.00  0.00    +0.086 C 
ATOM     17  C   UNL     1      -0.998   5.052 -23.450  0.00  0.00    +0.134 C 
ATOM     18  N   UNL     1       0.097   5.752 -23.420  0.00  0.00    +0.233 N 
ATOM     19  H   UNL     1      -0.023   6.341 -22.596  0.00  0.00    +0.202 HD
ATOM     20  H   UNL     1       0.172   6.220 -24.324  0.00  0.00    +0.202 HD
ATOM     21  C   UNL     1       1.238   5.167 -23.205  0.00  0.00    +0.099 C 
ATOM     22  C   UNL     1       2.333   5.867 -23.175  0.00  0.00    +0.095 C 
ATOM     23  C   UNL     1       2.469   2.010 -22.617  0.00  0.00    +0.174 A 
ATOM     24  O   UNL     1       6.744   3.299 -22.298  0.00  0.00    -0.453 OA
ATOM     25  C   UNL     1       3.474   5.282 -22.960  0.00  0.00    -0.030 A 
ENDROOT
TORSDOF 0
ENDMDL
