MODEL 1
REMARK VINA RESULT:    -9.483      0.000      0.000
REMARK INTER + INTRA:         -14.646
REMARK INTER:                 -11.925
REMARK INTRA:                  -2.721
REMARK UNBOUND:                -1.282
REMARK  Name = ZINC000004104789
REMARK  8 active torsions:
REMARK  status: ('A' for Active; 'I' for Inactive)
REMARK    1  A    between atoms: C_2  and  C_3
REMARK    2  A    between atoms: C_2  and  C_19
REMARK    3  A    between atoms: C_4  and  C_5
REMARK    4  A    between atoms: C_10  and  O_11
REMARK    5  A    between atoms: O_11  and  C_12
REMARK    6  A    between atoms: C_12  and  C_13
REMARK    7  A    between atoms: C_22  and  O_23
REMARK    8  A    between atoms: C_25  and  O_26
REMARK                            x       y       z     vdW  Elec       q    Type
REMARK                         _______ _______ _______ _____ _____    ______ ____
ROOT
ATOM      1  C   UNL     1       0.524   1.906 -21.927  0.00  0.00    +0.052 C 
ATOM      2  C   UNL     1      -0.683   1.498 -22.183  0.00  0.00    +0.015 C 
ENDROOT
BRANCH   2   3
ATOM      3  C   UNL     1      -1.702   2.246 -21.876  0.00  0.00    +0.017 A 
ATOM      4  C   UNL     1      -1.943   2.535 -20.633  0.00  0.00    +0.011 A 
ATOM      5  C   UNL     1      -2.963   3.282 -20.326  0.00  0.00    +0.001 A 
ATOM      6  C   UNL     1      -3.739   3.740 -21.263  0.00  0.00    +0.004 A 
ATOM      7  C   UNL     1      -3.496   3.451 -22.507  0.00  0.00    +0.046 A 
ATOM      8  C   UNL     1      -2.478   2.703 -22.814  0.00  0.00    +0.128 A 
BRANCH   8   9
ATOM      9  O   UNL     1      -2.235   2.414 -24.058  0.00  0.00    -0.487 OA
BRANCH   9  10
ATOM     10  C   UNL     1      -1.827   3.340 -24.872  0.00  0.00    +0.264 C 
BRANCH  10  11
ATOM     11  C   UNL     1      -0.632   3.839 -24.744  0.00  0.00    -0.010 A 
ATOM     12  C   UNL     1      -0.396   4.732 -23.829  0.00  0.00    +0.007 A 
ATOM     13  C   UNL     1       0.797   5.231 -23.700  0.00  0.00    +0.000 A 
ATOM     14  C   UNL     1       1.754   4.837 -24.486  0.00  0.00    +0.000 A 
ATOM     15  C   UNL     1       1.518   3.944 -25.401  0.00  0.00    +0.000 A 
ATOM     16  C   UNL     1       0.325   3.445 -25.530  0.00  0.00    +0.007 A 
ENDBRANCH  10  11
ENDBRANCH   9  10
ENDBRANCH   8   9
ENDBRANCH   2   3
BRANCH   1  18
ATOM     17  O   UNL     1       1.467  -0.131 -22.096  0.00  0.00    -0.287 OA
ATOM     18  C   UNL     1       1.543   1.159 -22.234  0.00  0.00    +0.190 C 
BRANCH  18  19
ATOM     19  C   UNL     1       2.637   1.702 -22.679  0.00  0.00    +0.063 A 
ATOM     20  C   UNL     1       3.199   2.669 -22.016  0.00  0.00    +0.019 A 
ATOM     21  C   UNL     1       4.293   3.212 -22.460  0.00  0.00    +0.046 A 
ATOM     22  C   UNL     1       4.825   2.788 -23.568  0.00  0.00    +0.120 A 
ATOM     23  C   UNL     1       4.263   1.822 -24.232  0.00  0.00    +0.091 A 
ATOM     24  C   UNL     1       3.169   1.279 -23.787  0.00  0.00    +0.131 A 
BRANCH  24  25
ATOM     25  O   UNL     1       2.607   0.312 -24.450  0.00  0.00    -0.506 OA
ATOM     26  H   UNL     1       3.044  -0.065 -25.188  0.00  0.00    +0.292 HD
ENDBRANCH  24  25
BRANCH  22  27
ATOM     27  O   UNL     1       5.919   3.331 -24.013  0.00  0.00    -0.507 OA
ATOM     28  H   UNL     1       5.876   4.036 -24.629  0.00  0.00    +0.292 HD
ENDBRANCH  22  27
ENDBRANCH  18  19
ENDBRANCH   1  18
TORSDOF 8
ENDMDL
MODEL 2
REMARK VINA RESULT:    -9.362      1.860      3.735
REMARK INTER + INTRA:         -14.475
REMARK INTER:                 -12.514
REMARK INTRA:                  -1.961
REMARK UNBOUND:                -1.282
REMARK  Name = ZINC000004104789
REMARK  8 active torsions:
REMARK  status: ('A' for Active; 'I' for Inactive)
REMARK    1  A    between atoms: C_2  and  C_3
REMARK    2  A    between atoms: C_2  and  C_19
REMARK    3  A    between atoms: C_4  and  C_5
REMARK    4  A    between atoms: C_10  and  O_11
REMARK    5  A    between atoms: O_11  and  C_12
REMARK    6  A    between atoms: C_12  and  C_13
REMARK    7  A    between atoms: C_22  and  O_23
REMARK    8  A    between atoms: C_25  and  O_26
REMARK                            x       y       z     vdW  Elec       q    Type
REMARK                         _______ _______ _______ _____ _____    ______ ____
ROOT
ATOM      1  C   UNL     1      -2.013   3.108 -24.341  0.00  0.00    +0.052 C 
ATOM      2  C   UNL     1      -2.546   3.881 -23.441  0.00  0.00    +0.015 C 
ENDROOT
BRANCH   2   3
ATOM      3  C   UNL     1      -3.463   3.417 -22.645  0.00  0.00    +0.017 A 
ATOM      4  C   UNL     1      -4.718   3.552 -22.952  0.00  0.00    +0.011 A 
ATOM      5  C   UNL     1      -5.636   3.087 -22.156  0.00  0.00    +0.001 A 
ATOM      6  C   UNL     1      -5.296   2.489 -21.052  0.00  0.00    +0.004 A 
ATOM      7  C   UNL     1      -4.040   2.355 -20.745  0.00  0.00    +0.046 A 
ATOM      8  C   UNL     1      -3.123   2.818 -21.542  0.00  0.00    +0.128 A 
BRANCH   8   9
ATOM      9  O   UNL     1      -1.867   2.684 -21.235  0.00  0.00    -0.487 OA
BRANCH   9  10
ATOM     10  C   UNL     1      -1.294   1.523 -21.339  0.00  0.00    +0.264 C 
BRANCH  10  11
ATOM     11  C   UNL     1       0.004   1.437 -21.363  0.00  0.00    -0.010 A 
ATOM     12  C   UNL     1       0.692   1.684 -20.288  0.00  0.00    +0.007 A 
ATOM     13  C   UNL     1       1.988   1.599 -20.312  0.00  0.00    +0.000 A 
ATOM     14  C   UNL     1       2.597   1.268 -21.412  0.00  0.00    +0.000 A 
ATOM     15  C   UNL     1       1.909   1.021 -22.487  0.00  0.00    +0.000 A 
ATOM     16  C   UNL     1       0.612   1.106 -22.463  0.00  0.00    +0.007 A 
ENDBRANCH  10  11
ENDBRANCH   9  10
ENDBRANCH   8   9
ENDBRANCH   2   3
BRANCH   1  18
ATOM     17  O   UNL     1      -1.350   3.721 -26.402  0.00  0.00    -0.287 OA
ATOM     18  C   UNL     1      -1.096   3.572 -25.137  0.00  0.00    +0.190 C 
BRANCH  18  19
ATOM     19  C   UNL     1       0.074   3.886 -24.667  0.00  0.00    +0.063 A 
ATOM     20  C   UNL     1       0.174   4.721 -23.675  0.00  0.00    +0.019 A 
ATOM     21  C   UNL     1       1.345   5.035 -23.205  0.00  0.00    +0.046 A 
ATOM     22  C   UNL     1       2.416   4.515 -23.727  0.00  0.00    +0.120 A 
ATOM     23  C   UNL     1       2.316   3.680 -24.718  0.00  0.00    +0.091 A 
ATOM     24  C   UNL     1       1.145   3.365 -25.188  0.00  0.00    +0.131 A 
BRANCH  24  25
ATOM     25  O   UNL     1       1.046   2.530 -26.180  0.00  0.00    -0.506 OA
ATOM     26  H   UNL     1       1.724   2.486 -26.825  0.00  0.00    +0.292 HD
ENDBRANCH  24  25
BRANCH  22  27
ATOM     27  O   UNL     1       3.586   4.829 -23.257  0.00  0.00    -0.507 OA
ATOM     28  H   UNL     1       3.718   5.661 -22.847  0.00  0.00    +0.292 HD
ENDBRANCH  22  27
ENDBRANCH  18  19
ENDBRANCH   1  18
TORSDOF 8
ENDMDL
MODEL 3
REMARK VINA RESULT:    -9.341      1.411      2.151
REMARK INTER + INTRA:         -14.446
REMARK INTER:                 -11.938
REMARK INTRA:                  -2.508
REMARK UNBOUND:                -1.282
REMARK  Name = ZINC000004104789
REMARK  8 active torsions:
REMARK  status: ('A' for Active; 'I' for Inactive)
REMARK    1  A    between atoms: C_2  and  C_3
REMARK    2  A    between atoms: C_2  and  C_19
REMARK    3  A    between atoms: C_4  and  C_5
REMARK    4  A    between atoms: C_10  and  O_11
REMARK    5  A    between atoms: O_11  and  C_12
REMARK    6  A    between atoms: C_12  and  C_13
REMARK    7  A    between atoms: C_22  and  O_23
REMARK    8  A    between atoms: C_25  and  O_26
REMARK                            x       y       z     vdW  Elec       q    Type
REMARK                         _______ _______ _______ _____ _____    ______ ____
ROOT
ATOM      1  C   UNL     1      -0.693   1.679 -21.380  0.00  0.00    +0.052 C 
ATOM      2  C   UNL     1      -1.415   2.639 -20.882  0.00  0.00    +0.015 C 
ENDROOT
BRANCH   2   3
ATOM      3  C   UNL     1      -2.662   2.762 -21.227  0.00  0.00    +0.017 A 
ATOM      4  C   UNL     1      -3.553   1.951 -20.739  0.00  0.00    +0.011 A 
ATOM      5  C   UNL     1      -4.801   2.073 -21.084  0.00  0.00    +0.001 A 
ATOM      6  C   UNL     1      -5.157   3.008 -21.915  0.00  0.00    +0.004 A 
ATOM      7  C   UNL     1      -4.266   3.819 -22.402  0.00  0.00    +0.046 A 
ATOM      8  C   UNL     1      -3.018   3.696 -22.058  0.00  0.00    +0.128 A 
BRANCH   8   9
ATOM      9  O   UNL     1      -2.127   4.507 -22.545  0.00  0.00    -0.487 OA
BRANCH   9  10
ATOM     10  C   UNL     1      -1.757   4.397 -23.786  0.00  0.00    +0.264 C 
BRANCH  10  11
ATOM     11  C   UNL     1      -0.496   4.472 -24.098  0.00  0.00    -0.010 A 
ATOM     12  C   UNL     1      -0.088   4.054 -25.259  0.00  0.00    +0.007 A 
ATOM     13  C   UNL     1       1.171   4.129 -25.571  0.00  0.00    +0.000 A 
ATOM     14  C   UNL     1       2.023   4.621 -24.722  0.00  0.00    +0.000 A 
ATOM     15  C   UNL     1       1.615   5.038 -23.560  0.00  0.00    +0.000 A 
ATOM     16  C   UNL     1       0.355   4.964 -23.248  0.00  0.00    +0.007 A 
ENDBRANCH  10  11
ENDBRANCH   9  10
ENDBRANCH   8   9
ENDBRANCH   2   3
BRANCH   1  18
ATOM     17  O   UNL     1       0.873   1.442 -19.782  0.00  0.00    -0.287 OA
ATOM     18  C   UNL     1       0.554   1.556 -21.036  0.00  0.00    +0.190 C 
BRANCH  18  19
ATOM     19  C   UNL     1       1.482   1.549 -21.946  0.00  0.00    +0.063 A 
ATOM     20  C   UNL     1       1.181   1.263 -23.179  0.00  0.00    +0.019 A 
ATOM     21  C   UNL     1       2.108   1.256 -24.090  0.00  0.00    +0.046 A 
ATOM     22  C   UNL     1       3.337   1.534 -23.768  0.00  0.00    +0.120 A 
ATOM     23  C   UNL     1       3.638   1.819 -22.536  0.00  0.00    +0.091 A 
ATOM     24  C   UNL     1       2.710   1.827 -21.625  0.00  0.00    +0.131 A 
BRANCH  24  25
ATOM     25  O   UNL     1       3.011   2.113 -20.393  0.00  0.00    -0.506 OA
ATOM     26  H   UNL     1       3.909   2.204 -20.140  0.00  0.00    +0.292 HD
ENDBRANCH  24  25
BRANCH  22  27
ATOM     27  O   UNL     1       4.264   1.526 -24.679  0.00  0.00    -0.507 OA
ATOM     28  H   UNL     1       4.949   2.165 -24.655  0.00  0.00    +0.292 HD
ENDBRANCH  22  27
ENDBRANCH  18  19
ENDBRANCH   1  18
TORSDOF 8
ENDMDL
MODEL 4
REMARK VINA RESULT:    -9.137      1.790      6.591
REMARK INTER + INTRA:         -14.158
REMARK INTER:                 -12.705
REMARK INTRA:                  -1.453
REMARK UNBOUND:                -1.282
REMARK  Name = ZINC000004104789
REMARK  8 active torsions:
REMARK  status: ('A' for Active; 'I' for Inactive)
REMARK    1  A    between atoms: C_2  and  C_3
REMARK    2  A    between atoms: C_2  and  C_19
REMARK    3  A    between atoms: C_4  and  C_5
REMARK    4  A    between atoms: C_10  and  O_11
REMARK    5  A    between atoms: O_11  and  C_12
REMARK    6  A    between atoms: C_12  and  C_13
REMARK    7  A    between atoms: C_22  and  O_23
REMARK    8  A    between atoms: C_25  and  O_26
REMARK                            x       y       z     vdW  Elec       q    Type
REMARK                         _______ _______ _______ _____ _____    ______ ____
ROOT
ATOM      1  C   UNL     1      -0.701   4.130 -24.204  0.00  0.00    +0.052 C 
ATOM      2  C   UNL     1       0.448   3.950 -24.785  0.00  0.00    +0.015 C 
ENDROOT
BRANCH   2   3
ATOM      3  C   UNL     1       1.543   4.326 -24.192  0.00  0.00    +0.017 A 
ATOM      4  C   UNL     1       1.646   5.534 -23.725  0.00  0.00    +0.011 A 
ATOM      5  C   UNL     1       2.741   5.910 -23.131  0.00  0.00    +0.001 A 
ATOM      6  C   UNL     1       3.732   5.076 -23.007  0.00  0.00    +0.004 A 
ATOM      7  C   UNL     1       3.628   3.868 -23.475  0.00  0.00    +0.046 A 
ATOM      8  C   UNL     1       2.533   3.492 -24.067  0.00  0.00    +0.128 A 
BRANCH   8   9
ATOM      9  O   UNL     1       2.429   2.284 -24.535  0.00  0.00    -0.487 OA
BRANCH   9  10
ATOM     10  C   UNL     1       2.481   1.268 -23.727  0.00  0.00    +0.264 C 
BRANCH  10  11
ATOM     11  C   UNL     1       1.900   1.331 -22.565  0.00  0.00    -0.010 A 
ATOM     12  C   UNL     1       0.602   1.335 -22.487  0.00  0.00    +0.007 A 
ATOM     13  C   UNL     1       0.021   1.398 -21.326  0.00  0.00    +0.000 A 
ATOM     14  C   UNL     1       0.738   1.456 -20.243  0.00  0.00    +0.000 A 
ATOM     15  C   UNL     1       2.035   1.451 -20.321  0.00  0.00    +0.000 A 
ATOM     16  C   UNL     1       2.617   1.388 -21.482  0.00  0.00    +0.007 A 
ENDBRANCH  10  11
ENDBRANCH   9  10
ENDBRANCH   8   9
ENDBRANCH   2   3
BRANCH   1  18
ATOM     17  O   UNL     1      -1.779   3.455 -26.061  0.00  0.00    -0.287 OA
ATOM     18  C   UNL     1      -1.795   3.754 -24.797  0.00  0.00    +0.190 C 
BRANCH  18  19
ATOM     19  C   UNL     1      -2.905   3.679 -24.125  0.00  0.00    +0.063 A 
ATOM     20  C   UNL     1      -2.913   3.142 -22.941  0.00  0.00    +0.019 A 
ATOM     21  C   UNL     1      -4.023   3.066 -22.269  0.00  0.00    +0.046 A 
ATOM     22  C   UNL     1      -5.126   3.527 -22.781  0.00  0.00    +0.120 A 
ATOM     23  C   UNL     1      -5.118   4.064 -23.965  0.00  0.00    +0.091 A 
ATOM     24  C   UNL     1      -4.008   4.140 -24.637  0.00  0.00    +0.131 A 
BRANCH  24  25
ATOM     25  O   UNL     1      -4.000   4.677 -25.821  0.00  0.00    -0.506 OA
ATOM     26  H   UNL     1      -3.258   5.173 -26.105  0.00  0.00    +0.292 HD
ENDBRANCH  24  25
BRANCH  22  27
ATOM     27  O   UNL     1      -6.236   3.452 -22.109  0.00  0.00    -0.507 OA
ATOM     28  H   UNL     1      -6.229   3.566 -21.179  0.00  0.00    +0.292 HD
ENDBRANCH  22  27
ENDBRANCH  18  19
ENDBRANCH   1  18
TORSDOF 8
ENDMDL
MODEL 5
REMARK VINA RESULT:    -9.113      1.815      3.991
REMARK INTER + INTRA:         -14.125
REMARK INTER:                 -12.718
REMARK INTRA:                  -1.407
REMARK UNBOUND:                -1.282
REMARK  Name = ZINC000004104789
REMARK  8 active torsions:
REMARK  status: ('A' for Active; 'I' for Inactive)
REMARK    1  A    between atoms: C_2  and  C_3
REMARK    2  A    between atoms: C_2  and  C_19
REMARK    3  A    between atoms: C_4  and  C_5
REMARK    4  A    between atoms: C_10  and  O_11
REMARK    5  A    between atoms: O_11  and  C_12
REMARK    6  A    between atoms: C_12  and  C_13
REMARK    7  A    between atoms: C_22  and  O_23
REMARK    8  A    between atoms: C_25  and  O_26
REMARK                            x       y       z     vdW  Elec       q    Type
REMARK                         _______ _______ _______ _____ _____    ______ ____
ROOT
ATOM      1  C   UNL     1       0.232   2.630 -24.792  0.00  0.00    +0.052 C 
ATOM      2  C   UNL     1      -0.288   3.760 -25.171  0.00  0.00    +0.015 C 
ENDROOT
BRANCH   2   3
ATOM      3  C   UNL     1      -1.578   3.881 -25.273  0.00  0.00    +0.017 A 
ATOM      4  C   UNL     1      -2.213   3.283 -26.236  0.00  0.00    +0.011 A 
ATOM      5  C   UNL     1      -3.504   3.405 -26.338  0.00  0.00    +0.001 A 
ATOM      6  C   UNL     1      -4.159   4.124 -25.475  0.00  0.00    +0.004 A 
ATOM      7  C   UNL     1      -3.524   4.722 -24.511  0.00  0.00    +0.046 A 
ATOM      8  C   UNL     1      -2.233   4.601 -24.410  0.00  0.00    +0.128 A 
BRANCH   8   9
ATOM      9  O   UNL     1      -1.598   5.198 -23.446  0.00  0.00    -0.487 OA
BRANCH   9  10
ATOM     10  C   UNL     1      -1.219   4.524 -22.402  0.00  0.00    +0.264 C 
BRANCH  10  11
ATOM     11  C   UNL     1      -2.083   3.815 -21.736  0.00  0.00    -0.010 A 
ATOM     12  C   UNL     1      -2.875   4.391 -20.881  0.00  0.00    +0.007 A 
ATOM     13  C   UNL     1      -3.739   3.683 -20.216  0.00  0.00    +0.000 A 
ATOM     14  C   UNL     1      -3.811   2.400 -20.406  0.00  0.00    +0.000 A 
ATOM     15  C   UNL     1      -3.019   1.824 -21.262  0.00  0.00    +0.000 A 
ATOM     16  C   UNL     1      -2.155   2.532 -21.927  0.00  0.00    +0.007 A 
ENDBRANCH  10  11
ENDBRANCH   9  10
ENDBRANCH   8   9
ENDBRANCH   2   3
BRANCH   1  18
ATOM     17  O   UNL     1       2.292   2.940 -25.645  0.00  0.00    -0.287 OA
ATOM     18  C   UNL     1       1.522   2.509 -24.691  0.00  0.00    +0.190 C 
BRANCH  18  19
ATOM     19  C   UNL     1       2.042   1.957 -23.635  0.00  0.00    +0.063 A 
ATOM     20  C   UNL     1       1.764   2.423 -22.453  0.00  0.00    +0.019 A 
ATOM     21  C   UNL     1       2.284   1.871 -21.398  0.00  0.00    +0.046 A 
ATOM     22  C   UNL     1       3.082   0.853 -21.523  0.00  0.00    +0.120 A 
ATOM     23  C   UNL     1       3.361   0.387 -22.704  0.00  0.00    +0.091 A 
ATOM     24  C   UNL     1       2.841   0.939 -23.760  0.00  0.00    +0.131 A 
BRANCH  24  25
ATOM     25  O   UNL     1       3.119   0.472 -24.941  0.00  0.00    -0.506 OA
ATOM     26  H   UNL     1       4.003   0.483 -25.252  0.00  0.00    +0.292 HD
ENDBRANCH  24  25
BRANCH  22  27
ATOM     27  O   UNL     1       3.602   0.301 -20.467  0.00  0.00    -0.507 OA
ATOM     28  H   UNL     1       3.633   0.774 -19.659  0.00  0.00    +0.292 HD
ENDBRANCH  22  27
ENDBRANCH  18  19
ENDBRANCH   1  18
TORSDOF 8
ENDMDL
MODEL 6
REMARK VINA RESULT:    -8.547      2.469      6.736
REMARK INTER + INTRA:         -13.327
REMARK INTER:                 -11.541
REMARK INTRA:                  -1.786
REMARK UNBOUND:                -1.282
REMARK  Name = ZINC000004104789
REMARK  8 active torsions:
REMARK  status: ('A' for Active; 'I' for Inactive)
REMARK    1  A    between atoms: C_2  and  C_3
REMARK    2  A    between atoms: C_2  and  C_19
REMARK    3  A    between atoms: C_4  and  C_5
REMARK    4  A    between atoms: C_10  and  O_11
REMARK    5  A    between atoms: O_11  and  C_12
REMARK    6  A    between atoms: C_12  and  C_13
REMARK    7  A    between atoms: C_22  and  O_23
REMARK    8  A    between atoms: C_25  and  O_26
REMARK                            x       y       z     vdW  Elec       q    Type
REMARK                         _______ _______ _______ _____ _____    ______ ____
ROOT
ATOM      1  C   UNL     1       1.358   2.993 -23.254  0.00  0.00    +0.052 C 
ATOM      2  C   UNL     1       2.569   3.255 -22.860  0.00  0.00    +0.015 C 
ENDROOT
BRANCH   2   3
ATOM      3  C   UNL     1       3.288   2.326 -22.303  0.00  0.00    +0.017 A 
ATOM      4  C   UNL     1       2.719   1.420 -21.566  0.00  0.00    +0.011 A 
ATOM      5  C   UNL     1       3.438   0.490 -21.008  0.00  0.00    +0.001 A 
ATOM      6  C   UNL     1       4.726   0.469 -21.189  0.00  0.00    +0.004 A 
ATOM      7  C   UNL     1       5.294   1.375 -21.926  0.00  0.00    +0.046 A 
ATOM      8  C   UNL     1       4.576   2.304 -22.484  0.00  0.00    +0.128 A 
BRANCH   8   9
ATOM      9  O   UNL     1       5.144   3.211 -23.221  0.00  0.00    -0.487 OA
BRANCH   9  10
ATOM     10  C   UNL     1       6.350   3.611 -22.946  0.00  0.00    +0.264 C 
BRANCH  10  11
ATOM     11  C   UNL     1       6.535   4.595 -22.117  0.00  0.00    -0.010 A 
ATOM     12  C   UNL     1       6.046   5.770 -22.383  0.00  0.00    +0.007 A 
ATOM     13  C   UNL     1       6.231   6.755 -21.555  0.00  0.00    +0.000 A 
ATOM     14  C   UNL     1       6.905   6.565 -20.460  0.00  0.00    +0.000 A 
ATOM     15  C   UNL     1       7.394   5.390 -20.194  0.00  0.00    +0.000 A 
ATOM     16  C   UNL     1       7.209   4.405 -21.022  0.00  0.00    +0.007 A 
ENDBRANCH  10  11
ENDBRANCH   9  10
ENDBRANCH   8   9
ENDBRANCH   2   3
BRANCH   1  18
ATOM     17  O   UNL     1       1.218   4.935 -24.383  0.00  0.00    -0.287 OA
ATOM     18  C   UNL     1       0.640   3.923 -23.811  0.00  0.00    +0.190 C 
BRANCH  18  19
ATOM     19  C   UNL     1      -0.657   3.838 -23.796  0.00  0.00    +0.063 A 
ATOM     20  C   UNL     1      -1.306   3.993 -22.679  0.00  0.00    +0.019 A 
ATOM     21  C   UNL     1      -2.603   3.909 -22.663  0.00  0.00    +0.046 A 
ATOM     22  C   UNL     1      -3.252   3.670 -23.764  0.00  0.00    +0.120 A 
ATOM     23  C   UNL     1      -2.604   3.515 -24.880  0.00  0.00    +0.091 A 
ATOM     24  C   UNL     1      -1.306   3.599 -24.896  0.00  0.00    +0.131 A 
BRANCH  24  25
ATOM     25  O   UNL     1      -0.658   3.445 -26.012  0.00  0.00    -0.506 OA
ATOM     26  H   UNL     1       0.030   4.038 -26.241  0.00  0.00    +0.292 HD
ENDBRANCH  24  25
BRANCH  22  27
ATOM     27  O   UNL     1      -4.549   3.585 -23.749  0.00  0.00    -0.507 OA
ATOM     28  H   UNL     1      -5.031   3.639 -24.550  0.00  0.00    +0.292 HD
ENDBRANCH  22  27
ENDBRANCH  18  19
ENDBRANCH   1  18
TORSDOF 8
ENDMDL
MODEL 7
REMARK VINA RESULT:    -8.515      2.439      6.572
REMARK INTER + INTRA:         -13.282
REMARK INTER:                 -11.489
REMARK INTRA:                  -1.793
REMARK UNBOUND:                -1.282
REMARK  Name = ZINC000004104789
REMARK  8 active torsions:
REMARK  status: ('A' for Active; 'I' for Inactive)
REMARK    1  A    between atoms: C_2  and  C_3
REMARK    2  A    between atoms: C_2  and  C_19
REMARK    3  A    between atoms: C_4  and  C_5
REMARK    4  A    between atoms: C_10  and  O_11
REMARK    5  A    between atoms: O_11  and  C_12
REMARK    6  A    between atoms: C_12  and  C_13
REMARK    7  A    between atoms: C_22  and  O_23
REMARK    8  A    between atoms: C_25  and  O_26
REMARK                            x       y       z     vdW  Elec       q    Type
REMARK                         _______ _______ _______ _____ _____    ______ ____
ROOT
ATOM      1  C   UNL     1       0.112   3.329 -22.574  0.00  0.00    +0.052 C 
ATOM      2  C   UNL     1       1.243   3.323 -23.215  0.00  0.00    +0.015 C 
ENDROOT
BRANCH   2   3
ATOM      3  C   UNL     1       2.164   2.462 -22.900  0.00  0.00    +0.017 A 
ATOM      4  C   UNL     1       1.831   1.296 -22.435  0.00  0.00    +0.011 A 
ATOM      5  C   UNL     1       2.753   0.434 -22.120  0.00  0.00    +0.001 A 
ATOM      6  C   UNL     1       4.008   0.740 -22.271  0.00  0.00    +0.004 A 
ATOM      7  C   UNL     1       4.341   1.907 -22.737  0.00  0.00    +0.046 A 
ATOM      8  C   UNL     1       3.419   2.769 -23.051  0.00  0.00    +0.128 A 
BRANCH   8   9
ATOM      9  O   UNL     1       3.752   3.936 -23.517  0.00  0.00    -0.487 OA
BRANCH   9  10
ATOM     10  C   UNL     1       4.921   4.434 -23.245  0.00  0.00    +0.264 C 
BRANCH  10  11
ATOM     11  C   UNL     1       5.015   5.588 -22.652  0.00  0.00    -0.010 A 
ATOM     12  C   UNL     1       3.967   6.350 -22.544  0.00  0.00    +0.007 A 
ATOM     13  C   UNL     1       4.060   7.502 -21.950  0.00  0.00    +0.000 A 
ATOM     14  C   UNL     1       5.201   7.893 -21.466  0.00  0.00    +0.000 A 
ATOM     15  C   UNL     1       6.248   7.131 -21.574  0.00  0.00    +0.000 A 
ATOM     16  C   UNL     1       6.155   5.978 -22.167  0.00  0.00    +0.007 A 
ENDBRANCH  10  11
ENDBRANCH   9  10
ENDBRANCH   8   9
ENDBRANCH   2   3
BRANCH   1  18
ATOM     17  O   UNL     1      -0.481   5.324 -23.433  0.00  0.00    -0.287 OA
ATOM     18  C   UNL     1      -0.810   4.191 -22.889  0.00  0.00    +0.190 C 
BRANCH  18  19
ATOM     19  C   UNL     1      -2.060   3.918 -22.659  0.00  0.00    +0.063 A 
ATOM     20  C   UNL     1      -2.478   3.767 -21.437  0.00  0.00    +0.019 A 
ATOM     21  C   UNL     1      -3.728   3.494 -21.207  0.00  0.00    +0.046 A 
ATOM     22  C   UNL     1      -4.560   3.373 -22.198  0.00  0.00    +0.120 A 
ATOM     23  C   UNL     1      -4.142   3.525 -23.419  0.00  0.00    +0.091 A 
ATOM     24  C   UNL     1      -2.892   3.797 -23.650  0.00  0.00    +0.131 A 
BRANCH  24  25
ATOM     25  O   UNL     1      -2.474   3.949 -24.872  0.00  0.00    -0.506 OA
ATOM     26  H   UNL     1      -2.944   3.553 -25.580  0.00  0.00    +0.292 HD
ENDBRANCH  24  25
BRANCH  22  27
ATOM     27  O   UNL     1      -5.810   3.101 -21.968  0.00  0.00    -0.507 OA
ATOM     28  H   UNL     1      -6.267   3.544 -21.281  0.00  0.00    +0.292 HD
ENDBRANCH  22  27
ENDBRANCH  18  19
ENDBRANCH   1  18
TORSDOF 8
ENDMDL
MODEL 8
REMARK VINA RESULT:    -8.462      1.981      3.594
REMARK INTER + INTRA:         -13.207
REMARK INTER:                 -11.925
REMARK INTRA:                  -1.282
REMARK UNBOUND:                -1.282
REMARK  Name = ZINC000004104789
REMARK  8 active torsions:
REMARK  status: ('A' for Active; 'I' for Inactive)
REMARK    1  A    between atoms: C_2  and  C_3
REMARK    2  A    between atoms: C_2  and  C_19
REMARK    3  A    between atoms: C_4  and  C_5
REMARK    4  A    between atoms: C_10  and  O_11
REMARK    5  A    between atoms: O_11  and  C_12
REMARK    6  A    between atoms: C_12  and  C_13
REMARK    7  A    between atoms: C_22  and  O_23
REMARK    8  A    between atoms: C_25  and  O_26
REMARK                            x       y       z     vdW  Elec       q    Type
REMARK                         _______ _______ _______ _____ _____    ______ ____
ROOT
ATOM      1  C   UNL     1       3.072   2.373 -22.841  0.00  0.00    +0.052 C 
ATOM      2  C   UNL     1       1.898   2.567 -23.363  0.00  0.00    +0.015 C 
ENDROOT
BRANCH   2   3
ATOM      3  C   UNL     1       0.828   2.265 -22.689  0.00  0.00    +0.017 A 
ATOM      4  C   UNL     1       0.933   1.712 -21.518  0.00  0.00    +0.011 A 
ATOM      5  C   UNL     1      -0.138   1.409 -20.844  0.00  0.00    +0.001 A 
ATOM      6  C   UNL     1      -1.313   1.661 -21.342  0.00  0.00    +0.004 A 
ATOM      7  C   UNL     1      -1.417   2.214 -22.514  0.00  0.00    +0.046 A 
ATOM      8  C   UNL     1      -0.347   2.517 -23.188  0.00  0.00    +0.128 A 
BRANCH   8   9
ATOM      9  O   UNL     1      -0.451   3.070 -24.359  0.00  0.00    -0.487 OA
BRANCH   9  10
ATOM     10  C   UNL     1      -1.237   4.091 -24.527  0.00  0.00    +0.264 C 
BRANCH  10  11
ATOM     11  C   UNL     1      -2.450   3.914 -24.960  0.00  0.00    -0.010 A 
ATOM     12  C   UNL     1      -3.456   4.382 -24.283  0.00  0.00    +0.007 A 
ATOM     13  C   UNL     1      -4.670   4.205 -24.715  0.00  0.00    +0.000 A 
ATOM     14  C   UNL     1      -4.876   3.561 -25.824  0.00  0.00    +0.000 A 
ATOM     15  C   UNL     1      -3.870   3.093 -26.501  0.00  0.00    +0.000 A 
ATOM     16  C   UNL     1      -2.657   3.270 -26.069  0.00  0.00    +0.007 A 
ENDBRANCH  10  11
ENDBRANCH   9  10
ENDBRANCH   8   9
ENDBRANCH   2   3
BRANCH   1  18
ATOM     17  O   UNL     1       4.319   2.185 -24.705  0.00  0.00    -0.287 OA
ATOM     18  C   UNL     1       4.142   2.675 -23.515  0.00  0.00    +0.190 C 
BRANCH  18  19
ATOM     19  C   UNL     1       5.034   3.466 -22.998  0.00  0.00    +0.063 A 
ATOM     20  C   UNL     1       4.833   4.751 -22.982  0.00  0.00    +0.019 A 
ATOM     21  C   UNL     1       5.725   5.542 -22.465  0.00  0.00    +0.046 A 
ATOM     22  C   UNL     1       6.818   5.050 -21.963  0.00  0.00    +0.120 A 
ATOM     23  C   UNL     1       7.020   3.766 -21.978  0.00  0.00    +0.091 A 
ATOM     24  C   UNL     1       6.127   2.973 -22.496  0.00  0.00    +0.131 A 
BRANCH  24  25
ATOM     25  O   UNL     1       6.329   1.689 -22.511  0.00  0.00    -0.506 OA
ATOM     26  H   UNL     1       5.921   1.159 -23.167  0.00  0.00    +0.292 HD
ENDBRANCH  24  25
BRANCH  22  27
ATOM     27  O   UNL     1       7.710   5.841 -21.446  0.00  0.00    -0.507 OA
ATOM     28  H   UNL     1       7.620   6.769 -21.534  0.00  0.00    +0.292 HD
ENDBRANCH  22  27
ENDBRANCH  18  19
ENDBRANCH   1  18
TORSDOF 8
ENDMDL
MODEL 9
REMARK VINA RESULT:    -8.391      2.046      6.555
REMARK INTER + INTRA:         -13.107
REMARK INTER:                 -10.759
REMARK INTRA:                  -2.347
REMARK UNBOUND:                -1.282
REMARK  Name = ZINC000004104789
REMARK  8 active torsions:
REMARK  status: ('A' for Active; 'I' for Inactive)
REMARK    1  A    between atoms: C_2  and  C_3
REMARK    2  A    between atoms: C_2  and  C_19
REMARK    3  A    between atoms: C_4  and  C_5
REMARK    4  A    between atoms: C_10  and  O_11
REMARK    5  A    between atoms: O_11  and  C_12
REMARK    6  A    between atoms: C_12  and  C_13
REMARK    7  A    between atoms: C_22  and  O_23
REMARK    8  A    between atoms: C_25  and  O_26
REMARK                            x       y       z     vdW  Elec       q    Type
REMARK                         _______ _______ _______ _____ _____    ______ ____
ROOT
ATOM      1  C   UNL     1       1.630   3.760 -23.175  0.00  0.00    +0.052 C 
ATOM      2  C   UNL     1       2.694   4.153 -23.812  0.00  0.00    +0.015 C 
ENDROOT
BRANCH   2   3
ATOM      3  C   UNL     1       3.517   4.988 -23.250  0.00  0.00    +0.017 A 
ATOM      4  C   UNL     1       3.069   6.093 -22.734  0.00  0.00    +0.011 A 
ATOM      5  C   UNL     1       3.893   6.928 -22.172  0.00  0.00    +0.001 A 
ATOM      6  C   UNL     1       5.164   6.657 -22.128  0.00  0.00    +0.004 A 
ATOM      7  C   UNL     1       5.611   5.552 -22.645  0.00  0.00    +0.046 A 
ATOM      8  C   UNL     1       4.788   4.717 -23.206  0.00  0.00    +0.128 A 
BRANCH   8   9
ATOM      9  O   UNL     1       5.235   3.612 -23.724  0.00  0.00    -0.487 OA
BRANCH   9  10
ATOM     10  C   UNL     1       5.823   2.732 -22.969  0.00  0.00    +0.264 C 
BRANCH  10  11
ATOM     11  C   UNL     1       5.113   1.927 -22.234  0.00  0.00    -0.010 A 
ATOM     12  C   UNL     1       4.230   1.150 -22.787  0.00  0.00    +0.007 A 
ATOM     13  C   UNL     1       3.521   0.346 -22.053  0.00  0.00    +0.000 A 
ATOM     14  C   UNL     1       3.694   0.319 -20.765  0.00  0.00    +0.000 A 
ATOM     15  C   UNL     1       4.577   1.096 -20.212  0.00  0.00    +0.000 A 
ATOM     16  C   UNL     1       5.287   1.900 -20.946  0.00  0.00    +0.007 A 
ENDBRANCH  10  11
ENDBRANCH   9  10
ENDBRANCH   8   9
ENDBRANCH   2   3
BRANCH   1  18
ATOM     17  O   UNL     1       1.266   1.888 -24.370  0.00  0.00    -0.287 OA
ATOM     18  C   UNL     1       0.807   2.925 -23.736  0.00  0.00    +0.190 C 
BRANCH  18  19
ATOM     19  C   UNL     1      -0.474   3.127 -23.663  0.00  0.00    +0.063 A 
ATOM     20  C   UNL     1      -1.067   3.132 -22.505  0.00  0.00    +0.019 A 
ATOM     21  C   UNL     1      -2.349   3.335 -22.432  0.00  0.00    +0.046 A 
ATOM     22  C   UNL     1      -3.039   3.533 -23.516  0.00  0.00    +0.120 A 
ATOM     23  C   UNL     1      -2.447   3.528 -24.673  0.00  0.00    +0.091 A 
ATOM     24  C   UNL     1      -1.164   3.325 -24.747  0.00  0.00    +0.131 A 
BRANCH  24  25
ATOM     25  O   UNL     1      -0.572   3.321 -25.904  0.00  0.00    -0.506 OA
ATOM     26  H   UNL     1      -0.956   3.775 -26.629  0.00  0.00    +0.292 HD
ENDBRANCH  24  25
BRANCH  22  27
ATOM     27  O   UNL     1      -4.320   3.735 -23.443  0.00  0.00    -0.507 OA
ATOM     28  H   UNL     1      -4.650   4.493 -23.002  0.00  0.00    +0.292 HD
ENDBRANCH  22  27
ENDBRANCH  18  19
ENDBRANCH   1  18
TORSDOF 8
ENDMDL
