MODEL 1
REMARK VINA RESULT:    -8.658      0.000      0.000
REMARK INTER + INTRA:          -5.985
REMARK INTER:                 -10.225
REMARK INTRA:                   4.240
REMARK UNBOUND:                 4.192
REMARK  Name = ZINC000000753041
REMARK  4 active torsions:
REMARK  status: ('A' for Active; 'I' for Inactive)
REMARK    1  A    between atoms: C_1  and  C_2
REMARK    2  A    between atoms: C_2  and  O_3
REMARK    3  A    between atoms: O_3  and  C_4
REMARK    4  A    between atoms: C_21  and  C_22
REMARK                            x       y       z     vdW  Elec       q    Type
REMARK                         _______ _______ _______ _____ _____    ______ ____
ROOT
ATOM      1  C   UNL     1       4.236   4.823 -22.494  0.00  0.00    +0.026 C 
ATOM      2  C   UNL     1       3.010   4.560 -22.835  0.00  0.00    +0.043 C 
ATOM      3  C   UNL     1       2.247   5.504 -23.299  0.00  0.00    +0.190 C 
ATOM      4  O   UNL     1       1.020   5.240 -23.640  0.00  0.00    -0.441 OA
ATOM      5  C   UNL     1       0.557   4.031 -23.517  0.00  0.00    +0.152 A 
ATOM      6  C   UNL     1       1.321   3.087 -23.053  0.00  0.00    +0.092 A 
ATOM      7  C   UNL     1       0.858   1.879 -22.929  0.00  0.00    +0.345 A 
ATOM      8  O   UNL     1      -0.368   1.614 -23.270  0.00  0.00    -0.422 OA
ATOM      9  C   UNL     1      -1.133   2.559 -23.735  0.00  0.00    +0.143 A 
ATOM     10  C   UNL     1      -2.358   2.294 -24.075  0.00  0.00    +0.047 A 
ATOM     11  C   UNL     1      -3.122   3.239 -24.539  0.00  0.00    +0.004 A 
ATOM     12  C   UNL     1      -2.659   4.447 -24.663  0.00  0.00    +0.001 A 
ATOM     13  C   UNL     1      -1.433   4.711 -24.322  0.00  0.00    +0.015 A 
ATOM     14  O   UNL     1       1.621   0.934 -22.465  0.00  0.00    -0.245 OA
ATOM     15  C   UNL     1      -0.669   3.767 -23.858  0.00  0.00    +0.060 A 
ATOM     16  N   UNL     1       2.710   6.713 -23.423  0.00  0.00    -0.329 N 
ATOM     17  H   UNL     1       2.132   7.428 -23.774  0.00  0.00    +0.145 HD
ATOM     18  H   UNL     1       3.638   6.913 -23.165  0.00  0.00    +0.145 HD
ATOM     19  C   UNL     1       2.547   3.351 -22.712  0.00  0.00    +0.096 C 
ATOM     20  O   UNL     1       4.999   3.879 -22.031  0.00  0.00    -0.800 OA
ENDROOT
BRANCH  19  21
ATOM     21  C   UNL     1       3.311   2.407 -22.248  0.00  0.00    -0.035 A 
ATOM     22  C   UNL     1       3.273   2.103 -20.984  0.00  0.00    +0.005 A 
ATOM     23  C   UNL     1       4.037   1.159 -20.519  0.00  0.00    +0.015 A 
ATOM     24  C   UNL     1       4.838   0.519 -21.319  0.00  0.00    +0.018 A 
ATOM     25  C   UNL     1       4.875   0.822 -22.582  0.00  0.00    +0.015 A 
ATOM     26 BR   UNL     1       5.601  -0.425 -20.854  0.00  0.00    -0.050 Br
ATOM     27  C   UNL     1       4.112   1.767 -23.047  0.00  0.00    +0.005 A 
ENDBRANCH  19  21
BRANCH   1  28
ATOM     28  O   UNL     1       4.699   6.033 -22.618  0.00  0.00    -0.512 OA
BRANCH  28  30
ATOM     29  C   UNL     1       5.982   7.405 -21.376  0.00  0.00    +0.048 C 
ATOM     30  C   UNL     1       5.856   6.340 -22.111  0.00  0.00    +0.223 C 
ENDBRANCH  28  30
ENDBRANCH   1  28
TORSDOF 3
ENDMDL
MODEL 2
REMARK VINA RESULT:    -7.634      3.439      6.563
REMARK INTER + INTRA:          -4.780
REMARK INTER:                  -8.994
REMARK INTRA:                   4.214
REMARK UNBOUND:                 4.192
REMARK  Name = ZINC000000753041
REMARK  4 active torsions:
REMARK  status: ('A' for Active; 'I' for Inactive)
REMARK    1  A    between atoms: C_1  and  C_2
REMARK    2  A    between atoms: C_2  and  O_3
REMARK    3  A    between atoms: O_3  and  C_4
REMARK    4  A    between atoms: C_21  and  C_22
REMARK                            x       y       z     vdW  Elec       q    Type
REMARK                         _______ _______ _______ _____ _____    ______ ____
ROOT
ATOM      1  C   UNL     1      -1.587   3.364 -24.644  0.00  0.00    +0.026 C 
ATOM      2  C   UNL     1      -0.476   2.917 -24.140  0.00  0.00    +0.043 C 
ATOM      3  C   UNL     1       0.580   2.806 -24.889  0.00  0.00    +0.190 C 
ATOM      4  O   UNL     1       1.692   2.359 -24.385  0.00  0.00    -0.441 OA
ATOM      5  C   UNL     1       1.747   2.022 -23.130  0.00  0.00    +0.152 A 
ATOM      6  C   UNL     1       0.690   2.132 -22.381  0.00  0.00    +0.092 A 
ATOM      7  C   UNL     1       0.745   1.795 -21.127  0.00  0.00    +0.345 A 
ATOM      8  O   UNL     1       1.856   1.348 -20.622  0.00  0.00    -0.422 OA
ATOM      9  C   UNL     1       2.914   1.237 -21.371  0.00  0.00    +0.143 A 
ATOM     10  C   UNL     1       4.024   0.790 -20.867  0.00  0.00    +0.047 A 
ATOM     11  C   UNL     1       5.081   0.680 -21.616  0.00  0.00    +0.004 A 
ATOM     12  C   UNL     1       5.026   1.017 -22.871  0.00  0.00    +0.001 A 
ATOM     13  C   UNL     1       3.914   1.464 -23.375  0.00  0.00    +0.015 A 
ATOM     14  O   UNL     1      -0.311   1.905 -20.377  0.00  0.00    -0.245 OA
ATOM     15  C   UNL     1       2.858   1.574 -22.626  0.00  0.00    +0.060 A 
ATOM     16  N   UNL     1       0.525   3.144 -26.144  0.00  0.00    -0.329 N 
ATOM     17  H   UNL     1       1.325   3.060 -26.712  0.00  0.00    +0.145 HD
ATOM     18  H   UNL     1      -0.316   3.482 -26.527  0.00  0.00    +0.145 HD
ATOM     19  C   UNL     1      -0.420   2.579 -22.886  0.00  0.00    +0.096 C 
ATOM     20  O   UNL     1      -2.643   3.474 -23.895  0.00  0.00    -0.800 OA
ENDROOT
BRANCH  19  21
ATOM     21  C   UNL     1      -1.478   2.690 -22.136  0.00  0.00    -0.035 A 
ATOM     22  C   UNL     1      -1.746   3.821 -21.554  0.00  0.00    +0.005 A 
ATOM     23  C   UNL     1      -2.802   3.933 -20.805  0.00  0.00    +0.015 A 
ATOM     24  C   UNL     1      -3.590   2.912 -20.637  0.00  0.00    +0.018 A 
ATOM     25  C   UNL     1      -3.322   1.781 -21.219  0.00  0.00    +0.015 A 
ATOM     26 BR   UNL     1      -4.646   3.023 -19.888  0.00  0.00    -0.050 Br
ATOM     27  C   UNL     1      -2.266   1.670 -21.969  0.00  0.00    +0.005 A 
ENDBRANCH  19  21
BRANCH   1  28
ATOM     28  O   UNL     1      -1.642   3.701 -25.899  0.00  0.00    -0.512 OA
BRANCH  28  30
ATOM     29  C   UNL     1      -3.227   3.306 -27.449  0.00  0.00    +0.048 C 
ATOM     30  C   UNL     1      -2.785   4.000 -26.442  0.00  0.00    +0.223 C 
ENDBRANCH  28  30
ENDBRANCH   1  28
TORSDOF 3
ENDMDL
MODEL 3
REMARK VINA RESULT:    -6.035      2.508      6.270
REMARK INTER + INTRA:          -2.901
REMARK INTER:                  -7.750
REMARK INTRA:                   4.850
REMARK UNBOUND:                 4.192
REMARK  Name = ZINC000000753041
REMARK  4 active torsions:
REMARK  status: ('A' for Active; 'I' for Inactive)
REMARK    1  A    between atoms: C_1  and  C_2
REMARK    2  A    between atoms: C_2  and  O_3
REMARK    3  A    between atoms: O_3  and  C_4
REMARK    4  A    between atoms: C_21  and  C_22
REMARK                            x       y       z     vdW  Elec       q    Type
REMARK                         _______ _______ _______ _____ _____    ______ ____
ROOT
ATOM      1  C   UNL     1       4.073   1.886 -22.877  0.00  0.00    +0.026 C 
ATOM      2  C   UNL     1       4.418   3.115 -22.635  0.00  0.00    +0.043 C 
ATOM      3  C   UNL     1       5.598   3.377 -22.157  0.00  0.00    +0.190 C 
ATOM      4  O   UNL     1       5.944   4.607 -21.915  0.00  0.00    -0.441 OA
ATOM      5  C   UNL     1       5.108   5.575 -22.152  0.00  0.00    +0.152 A 
ATOM      6  C   UNL     1       3.929   5.312 -22.631  0.00  0.00    +0.092 A 
ATOM      7  C   UNL     1       3.094   6.281 -22.868  0.00  0.00    +0.345 A 
ATOM      8  O   UNL     1       3.439   7.511 -22.627  0.00  0.00    -0.422 OA
ATOM      9  C   UNL     1       4.620   7.773 -22.148  0.00  0.00    +0.143 A 
ATOM     10  C   UNL     1       4.964   9.002 -21.906  0.00  0.00    +0.047 A 
ATOM     11  C   UNL     1       6.145   9.264 -21.427  0.00  0.00    +0.004 A 
ATOM     12  C   UNL     1       6.979   8.296 -21.190  0.00  0.00    +0.001 A 
ATOM     13  C   UNL     1       6.633   7.066 -21.432  0.00  0.00    +0.015 A 
ATOM     14  O   UNL     1       1.914   6.019 -23.347  0.00  0.00    -0.245 OA
ATOM     15  C   UNL     1       5.454   6.805 -21.910  0.00  0.00    +0.060 A 
ATOM     16  N   UNL     1       6.433   2.408 -21.919  0.00  0.00    -0.329 N 
ATOM     17  H   UNL     1       7.326   2.607 -21.557  0.00  0.00    +0.145 HD
ATOM     18  H   UNL     1       6.172   1.477 -22.102  0.00  0.00    +0.145 HD
ATOM     19  C   UNL     1       3.584   4.083 -22.872  0.00  0.00    +0.096 C 
ATOM     20  O   UNL     1       2.893   1.624 -23.355  0.00  0.00    -0.800 OA
ENDROOT
BRANCH  19  21
ATOM     21  C   UNL     1       2.403   3.821 -23.351  0.00  0.00    -0.035 A 
ATOM     22  C   UNL     1       1.416   3.568 -22.544  0.00  0.00    +0.005 A 
ATOM     23  C   UNL     1       0.236   3.306 -23.022  0.00  0.00    +0.015 A 
ATOM     24  C   UNL     1       0.043   3.297 -24.308  0.00  0.00    +0.018 A 
ATOM     25  C   UNL     1       1.030   3.550 -25.115  0.00  0.00    +0.015 A 
ATOM     26 BR   UNL     1      -1.136   3.035 -24.786  0.00  0.00    -0.050 Br
ATOM     27  C   UNL     1       2.211   3.812 -24.637  0.00  0.00    +0.005 A 
ENDBRANCH  19  21
BRANCH   1  28
ATOM     28  O   UNL     1       4.908   0.917 -22.639  0.00  0.00    -0.512 OA
BRANCH  28  30
ATOM     29  C   UNL     1       3.987   0.358 -20.662  0.00  0.00    +0.048 C 
ATOM     30  C   UNL     1       4.623   0.018 -21.744  0.00  0.00    +0.223 C 
ENDBRANCH  28  30
ENDBRANCH   1  28
TORSDOF 3
ENDMDL
