MODEL 1
REMARK VINA RESULT:    -6.040      0.000      0.000
REMARK INTER + INTRA:          -7.492
REMARK INTER:                  -7.551
REMARK INTRA:                   0.059
REMARK UNBOUND:                -0.040
REMARK  Name = ZINC000006731959
REMARK  5 active torsions:
REMARK  status: ('A' for Active; 'I' for Inactive)
REMARK    1  A    between atoms: N_1  and  CA_2
REMARK    2  A    between atoms: CA_2  and  C_3
REMARK    3  A    between atoms: CA_2  and  CB_5
REMARK    4  A    between atoms: C_3  and  O_4
REMARK    5  A    between atoms: CB_5  and  CG_6
REMARK                            x       y       z     vdW  Elec       q    Type
REMARK                         _______ _______ _______ _____ _____    ______ ____
ROOT
ATOM      1  CA  PHE A   1      -3.695   3.579 -25.874  0.00  0.00    +0.091 C 
ENDROOT
BRANCH   1   2
ATOM      2  N   PHE A   1      -4.816   3.040 -26.255  0.00  0.00    +0.223 N 
ATOM      3  H1  PHE A   1      -5.320   3.692 -26.856  0.00  0.00    +0.200 HD
ATOM      4  H2  PHE A   1      -4.623   2.182 -26.770  0.00  0.00    +0.200 HD
ATOM      5  H3  PHE A   1      -5.385   2.824 -25.436  0.00  0.00    +0.200 HD
ENDBRANCH   1   2
BRANCH   1   6
ATOM      6  CB  PHE A   1      -3.649   4.274 -24.777  0.00  0.00    +0.091 C 
BRANCH   6   7
ATOM      7  CG  PHE A   1      -3.984   3.728 -23.646  0.00  0.00    -0.042 A 
ATOM      8  CD2 PHE A   1      -3.083   3.142 -22.915  0.00  0.00    +0.004 A 
ATOM      9  CE2 PHE A   1      -3.417   2.596 -21.784  0.00  0.00    +0.000 A 
ATOM     10  CZ  PHE A   1      -4.654   2.635 -21.384  0.00  0.00    +0.000 A 
ATOM     11  CE1 PHE A   1      -5.555   3.221 -22.115  0.00  0.00    +0.000 A 
ATOM     12  CD1 PHE A   1      -5.221   3.767 -23.246  0.00  0.00    +0.004 A 
ENDBRANCH   6   7
ENDBRANCH   1   6
BRANCH   1  13
ATOM     13  C   PHE A   1      -2.622   3.422 -26.589  0.00  0.00    +0.210 C 
BRANCH  13  14
ATOM     14  O   PHE A   1      -1.456   3.396 -26.015  0.00  0.00    -0.389 OA
ATOM     15  H   PHE A   1      -1.261   4.268 -25.640  0.00  0.00    +0.210 HD
ENDBRANCH  13  14
ENDBRANCH   1  13
TORSDOF 5
ENDMDL
MODEL 2
REMARK VINA RESULT:    -5.815      3.003      3.655
REMARK INTER + INTRA:          -7.214
REMARK INTER:                  -7.176
REMARK INTRA:                  -0.038
REMARK UNBOUND:                -0.040
REMARK  Name = ZINC000006731959
REMARK  5 active torsions:
REMARK  status: ('A' for Active; 'I' for Inactive)
REMARK    1  A    between atoms: N_1  and  CA_2
REMARK    2  A    between atoms: CA_2  and  C_3
REMARK    3  A    between atoms: CA_2  and  CB_5
REMARK    4  A    between atoms: C_3  and  O_4
REMARK    5  A    between atoms: CB_5  and  CG_6
REMARK                            x       y       z     vdW  Elec       q    Type
REMARK                         _______ _______ _______ _____ _____    ______ ____
ROOT
ATOM      1  CA  PHE A   1       0.256   3.572 -25.052  0.00  0.00    +0.091 C 
ENDROOT
BRANCH   1   2
ATOM      2  N   PHE A   1      -0.776   3.425 -25.829  0.00  0.00    +0.223 N 
ATOM      3  H1  PHE A   1      -0.469   3.393 -26.801  0.00  0.00    +0.200 HD
ATOM      4  H2  PHE A   1      -1.257   2.556 -25.596  0.00  0.00    +0.200 HD
ATOM      5  H3  PHE A   1      -1.414   4.211 -25.701  0.00  0.00    +0.200 HD
ENDBRANCH   1   2
BRANCH   1   6
ATOM      6  CB  PHE A   1       0.133   4.203 -23.923  0.00  0.00    +0.091 C 
BRANCH   6   7
ATOM      7  CG  PHE A   1      -0.636   3.723 -22.990  0.00  0.00    -0.042 A 
ATOM      8  CD2 PHE A   1      -1.678   4.394 -22.599  0.00  0.00    +0.004 A 
ATOM      9  CE2 PHE A   1      -2.447   3.915 -21.666  0.00  0.00    +0.000 A 
ATOM     10  CZ  PHE A   1      -2.173   2.764 -21.125  0.00  0.00    +0.000 A 
ATOM     11  CE1 PHE A   1      -1.130   2.095 -21.517  0.00  0.00    +0.000 A 
ATOM     12  CD1 PHE A   1      -0.361   2.574 -22.449  0.00  0.00    +0.004 A 
ENDBRANCH   6   7
ENDBRANCH   1   6
BRANCH   1  13
ATOM     13  C   PHE A   1       1.410   3.089 -25.404  0.00  0.00    +0.210 C 
BRANCH  13  14
ATOM     14  O   PHE A   1       1.491   2.270 -26.410  0.00  0.00    -0.389 OA
ATOM     15  H   PHE A   1       1.884   2.727 -27.169  0.00  0.00    +0.210 HD
ENDBRANCH  13  14
ENDBRANCH   1  13
TORSDOF 5
ENDMDL
MODEL 3
REMARK VINA RESULT:    -5.795      1.566      2.052
REMARK INTER + INTRA:          -7.190
REMARK INTER:                  -7.128
REMARK INTRA:                  -0.062
REMARK UNBOUND:                -0.040
REMARK  Name = ZINC000006731959
REMARK  5 active torsions:
REMARK  status: ('A' for Active; 'I' for Inactive)
REMARK    1  A    between atoms: N_1  and  CA_2
REMARK    2  A    between atoms: CA_2  and  C_3
REMARK    3  A    between atoms: CA_2  and  CB_5
REMARK    4  A    between atoms: C_3  and  O_4
REMARK    5  A    between atoms: CB_5  and  CG_6
REMARK                            x       y       z     vdW  Elec       q    Type
REMARK                         _______ _______ _______ _____ _____    ______ ____
ROOT
ATOM      1  CA  PHE A   1      -1.947   3.371 -24.714  0.00  0.00    +0.091 C 
ENDROOT
BRANCH   1   2
ATOM      2  N   PHE A   1      -2.612   2.627 -25.547  0.00  0.00    +0.223 N 
ATOM      3  H1  PHE A   1      -2.684   3.103 -26.446  0.00  0.00    +0.200 HD
ATOM      4  H2  PHE A   1      -2.129   1.737 -25.670  0.00  0.00    +0.200 HD
ATOM      5  H3  PHE A   1      -3.548   2.456 -25.177  0.00  0.00    +0.200 HD
ENDBRANCH   1   2
BRANCH   1   6
ATOM      6  CB  PHE A   1      -2.581   4.162 -23.900  0.00  0.00    +0.091 C 
BRANCH   6   7
ATOM      7  CG  PHE A   1      -3.465   3.677 -23.078  0.00  0.00    -0.042 A 
ATOM      8  CD2 PHE A   1      -4.732   3.846 -23.314  0.00  0.00    +0.004 A 
ATOM      9  CE2 PHE A   1      -5.615   3.362 -22.493  0.00  0.00    +0.000 A 
ATOM     10  CZ  PHE A   1      -5.232   2.708 -21.436  0.00  0.00    +0.000 A 
ATOM     11  CE1 PHE A   1      -3.964   2.540 -21.201  0.00  0.00    +0.000 A 
ATOM     12  CD1 PHE A   1      -3.081   3.024 -22.022  0.00  0.00    +0.004 A 
ENDBRANCH   6   7
ENDBRANCH   1   6
BRANCH   1  13
ATOM     13  C   PHE A   1      -0.648   3.324 -24.694  0.00  0.00    +0.210 C 
BRANCH  13  14
ATOM     14  O   PHE A   1      -0.043   2.237 -24.318  0.00  0.00    -0.389 OA
ATOM     15  H   PHE A   1       0.728   2.083 -24.885  0.00  0.00    +0.210 HD
ENDBRANCH  13  14
ENDBRANCH   1  13
TORSDOF 5
ENDMDL
MODEL 4
REMARK VINA RESULT:    -5.698      2.500      2.711
REMARK INTER + INTRA:          -7.070
REMARK INTER:                  -6.980
REMARK INTRA:                  -0.091
REMARK UNBOUND:                -0.040
REMARK  Name = ZINC000006731959
REMARK  5 active torsions:
REMARK  status: ('A' for Active; 'I' for Inactive)
REMARK    1  A    between atoms: N_1  and  CA_2
REMARK    2  A    between atoms: CA_2  and  C_3
REMARK    3  A    between atoms: CA_2  and  CB_5
REMARK    4  A    between atoms: C_3  and  O_4
REMARK    5  A    between atoms: CB_5  and  CG_6
REMARK                            x       y       z     vdW  Elec       q    Type
REMARK                         _______ _______ _______ _____ _____    ______ ____
ROOT
ATOM      1  CA  PHE A   1      -0.734   3.766 -24.023  0.00  0.00    +0.091 C 
ENDROOT
BRANCH   1   2
ATOM      2  N   PHE A   1      -0.717   2.523 -24.402  0.00  0.00    +0.223 N 
ATOM      3  H1  PHE A   1       0.161   2.091 -24.115  0.00  0.00    +0.200 HD
ATOM      4  H2  PHE A   1      -1.498   2.025 -23.973  0.00  0.00    +0.200 HD
ATOM      5  H3  PHE A   1      -0.802   2.476 -25.418  0.00  0.00    +0.200 HD
ENDBRANCH   1   2
BRANCH   1   6
ATOM      6  CB  PHE A   1      -1.865   4.350 -23.760  0.00  0.00    +0.091 C 
BRANCH   6   7
ATOM      7  CG  PHE A   1      -2.622   3.900 -22.803  0.00  0.00    -0.042 A 
ATOM      8  CD2 PHE A   1      -2.194   3.913 -21.576  0.00  0.00    +0.004 A 
ATOM      9  CE2 PHE A   1      -2.950   3.463 -20.619  0.00  0.00    +0.000 A 
ATOM     10  CZ  PHE A   1      -4.135   3.000 -20.890  0.00  0.00    +0.000 A 
ATOM     11  CE1 PHE A   1      -4.562   2.987 -22.117  0.00  0.00    +0.000 A 
ATOM     12  CD1 PHE A   1      -3.806   3.437 -23.074  0.00  0.00    +0.004 A 
ENDBRANCH   6   7
ENDBRANCH   1   6
BRANCH   1  13
ATOM     13  C   PHE A   1       0.380   4.426 -23.907  0.00  0.00    +0.210 C 
BRANCH  13  14
ATOM     14  O   PHE A   1       0.364   5.660 -23.499  0.00  0.00    -0.389 OA
ATOM     15  H   PHE A   1      -0.255   6.172 -24.041  0.00  0.00    +0.210 HD
ENDBRANCH  13  14
ENDBRANCH   1  13
TORSDOF 5
ENDMDL
MODEL 5
REMARK VINA RESULT:    -5.568      2.269      2.868
REMARK INTER + INTRA:          -6.909
REMARK INTER:                  -6.882
REMARK INTRA:                  -0.027
REMARK UNBOUND:                -0.040
REMARK  Name = ZINC000006731959
REMARK  5 active torsions:
REMARK  status: ('A' for Active; 'I' for Inactive)
REMARK    1  A    between atoms: N_1  and  CA_2
REMARK    2  A    between atoms: CA_2  and  C_3
REMARK    3  A    between atoms: CA_2  and  CB_5
REMARK    4  A    between atoms: C_3  and  O_4
REMARK    5  A    between atoms: CB_5  and  CG_6
REMARK                            x       y       z     vdW  Elec       q    Type
REMARK                         _______ _______ _______ _____ _____    ______ ____
ROOT
ATOM      1  CA  PHE A   1      -0.744   3.444 -24.301  0.00  0.00    +0.091 C 
ENDROOT
BRANCH   1   2
ATOM      2  N   PHE A   1      -0.369   3.458 -25.546  0.00  0.00    +0.223 N 
ATOM      3  H1  PHE A   1      -1.178   3.628 -26.143  0.00  0.00    +0.200 HD
ATOM      4  H2  PHE A   1       0.318   4.199 -25.686  0.00  0.00    +0.200 HD
ATOM      5  H3  PHE A   1       0.047   2.558 -25.785  0.00  0.00    +0.200 HD
ENDBRANCH   1   2
BRANCH   1   6
ATOM      6  CB  PHE A   1      -1.664   2.614 -23.909  0.00  0.00    +0.091 C 
BRANCH   6   7
ATOM      7  CG  PHE A   1      -2.888   3.026 -23.752  0.00  0.00    -0.042 A 
ATOM      8  CD2 PHE A   1      -3.467   2.915 -22.593  0.00  0.00    +0.004 A 
ATOM      9  CE2 PHE A   1      -4.689   3.326 -22.436  0.00  0.00    +0.000 A 
ATOM     10  CZ  PHE A   1      -5.334   3.849 -23.438  0.00  0.00    +0.000 A 
ATOM     11  CE1 PHE A   1      -4.754   3.959 -24.597  0.00  0.00    +0.000 A 
ATOM     12  CD1 PHE A   1      -3.531   3.547 -24.754  0.00  0.00    +0.004 A 
ENDBRANCH   6   7
ENDBRANCH   1   6
BRANCH   1  13
ATOM     13  C   PHE A   1      -0.199   4.260 -23.448  0.00  0.00    +0.210 C 
BRANCH  13  14
ATOM     14  O   PHE A   1      -0.335   5.544 -23.599  0.00  0.00    -0.389 OA
ATOM     15  H   PHE A   1      -0.828   5.908 -22.848  0.00  0.00    +0.210 HD
ENDBRANCH  13  14
ENDBRANCH   1  13
TORSDOF 5
ENDMDL
MODEL 6
REMARK VINA RESULT:    -5.529      2.481      3.374
REMARK INTER + INTRA:          -6.862
REMARK INTER:                  -6.889
REMARK INTRA:                   0.028
REMARK UNBOUND:                -0.040
REMARK  Name = ZINC000006731959
REMARK  5 active torsions:
REMARK  status: ('A' for Active; 'I' for Inactive)
REMARK    1  A    between atoms: N_1  and  CA_2
REMARK    2  A    between atoms: CA_2  and  C_3
REMARK    3  A    between atoms: CA_2  and  CB_5
REMARK    4  A    between atoms: C_3  and  O_4
REMARK    5  A    between atoms: CB_5  and  CG_6
REMARK                            x       y       z     vdW  Elec       q    Type
REMARK                         _______ _______ _______ _____ _____    ______ ____
ROOT
ATOM      1  CA  PHE A   1      -0.651   2.893 -23.213  0.00  0.00    +0.091 C 
ENDROOT
BRANCH   1   2
ATOM      2  N   PHE A   1      -0.334   2.595 -24.438  0.00  0.00    +0.223 N 
ATOM      3  H1  PHE A   1       0.505   3.110 -24.708  0.00  0.00    +0.200 HD
ATOM      4  H2  PHE A   1      -0.156   1.594 -24.511  0.00  0.00    +0.200 HD
ATOM      5  H3  PHE A   1      -1.102   2.849 -25.060  0.00  0.00    +0.200 HD
ENDBRANCH   1   2
BRANCH   1   6
ATOM      6  CB  PHE A   1      -1.397   3.929 -22.969  0.00  0.00    +0.091 C 
BRANCH   6   7
ATOM      7  CG  PHE A   1      -2.674   3.881 -23.208  0.00  0.00    -0.042 A 
ATOM      8  CD2 PHE A   1      -3.133   4.258 -24.364  0.00  0.00    +0.004 A 
ATOM      9  CE2 PHE A   1      -4.410   4.210 -24.604  0.00  0.00    +0.000 A 
ATOM     10  CZ  PHE A   1      -5.228   3.785 -23.686  0.00  0.00    +0.000 A 
ATOM     11  CE1 PHE A   1      -4.768   3.408 -22.530  0.00  0.00    +0.000 A 
ATOM     12  CD1 PHE A   1      -3.492   3.456 -22.291  0.00  0.00    +0.004 A 
ENDBRANCH   6   7
ENDBRANCH   1   6
BRANCH   1  13
ATOM     13  C   PHE A   1      -0.222   2.155 -22.233  0.00  0.00    +0.210 C 
BRANCH  13  14
ATOM     14  O   PHE A   1      -0.231   0.860 -22.342  0.00  0.00    -0.389 OA
ATOM     15  H   PHE A   1       0.019   0.610 -23.245  0.00  0.00    +0.210 HD
ENDBRANCH  13  14
ENDBRANCH   1  13
TORSDOF 5
ENDMDL
MODEL 7
REMARK VINA RESULT:    -5.466      2.534      3.550
REMARK INTER + INTRA:          -6.783
REMARK INTER:                  -6.788
REMARK INTRA:                   0.005
REMARK UNBOUND:                -0.040
REMARK  Name = ZINC000006731959
REMARK  5 active torsions:
REMARK  status: ('A' for Active; 'I' for Inactive)
REMARK    1  A    between atoms: N_1  and  CA_2
REMARK    2  A    between atoms: CA_2  and  C_3
REMARK    3  A    between atoms: CA_2  and  CB_5
REMARK    4  A    between atoms: C_3  and  O_4
REMARK    5  A    between atoms: CB_5  and  CG_6
REMARK                            x       y       z     vdW  Elec       q    Type
REMARK                         _______ _______ _______ _____ _____    ______ ____
ROOT
ATOM      1  CA  PHE A   1      -0.162   3.337 -24.606  0.00  0.00    +0.091 C 
ENDROOT
BRANCH   1   2
ATOM      2  N   PHE A   1      -0.204   2.236 -23.917  0.00  0.00    +0.223 N 
ATOM      3  H1  PHE A   1       0.706   2.069 -23.486  0.00  0.00    +0.200 HD
ATOM      4  H2  PHE A   1      -0.915   2.316 -23.190  0.00  0.00    +0.200 HD
ATOM      5  H3  PHE A   1      -0.435   1.457 -24.533  0.00  0.00    +0.200 HD
ENDBRANCH   1   2
BRANCH   1   6
ATOM      6  CB  PHE A   1      -1.107   4.221 -24.478  0.00  0.00    +0.091 C 
BRANCH   6   7
ATOM      7  CG  PHE A   1      -2.309   3.952 -24.895  0.00  0.00    -0.042 A 
ATOM      8  CD2 PHE A   1      -2.492   3.501 -26.100  0.00  0.00    +0.004 A 
ATOM      9  CE2 PHE A   1      -3.693   3.233 -26.517  0.00  0.00    +0.000 A 
ATOM     10  CZ  PHE A   1      -4.712   3.416 -25.730  0.00  0.00    +0.000 A 
ATOM     11  CE1 PHE A   1      -4.528   3.868 -24.525  0.00  0.00    +0.000 A 
ATOM     12  CD1 PHE A   1      -3.326   4.136 -24.107  0.00  0.00    +0.004 A 
ENDBRANCH   6   7
ENDBRANCH   1   6
BRANCH   1  13
ATOM     13  C   PHE A   1       0.824   3.556 -25.424  0.00  0.00    +0.210 C 
BRANCH  13  14
ATOM     14  O   PHE A   1       1.268   2.594 -26.178  0.00  0.00    -0.389 OA
ATOM     15  H   PHE A   1       0.522   2.059 -26.492  0.00  0.00    +0.210 HD
ENDBRANCH  13  14
ENDBRANCH   1  13
TORSDOF 5
ENDMDL
MODEL 8
REMARK VINA RESULT:    -5.283      4.741      5.574
REMARK INTER + INTRA:          -6.558
REMARK INTER:                  -6.518
REMARK INTRA:                  -0.040
REMARK UNBOUND:                -0.040
REMARK  Name = ZINC000006731959
REMARK  5 active torsions:
REMARK  status: ('A' for Active; 'I' for Inactive)
REMARK    1  A    between atoms: N_1  and  CA_2
REMARK    2  A    between atoms: CA_2  and  C_3
REMARK    3  A    between atoms: CA_2  and  CB_5
REMARK    4  A    between atoms: C_3  and  O_4
REMARK    5  A    between atoms: CB_5  and  CG_6
REMARK                            x       y       z     vdW  Elec       q    Type
REMARK                         _______ _______ _______ _____ _____    ______ ____
ROOT
ATOM      1  CA  PHE A   1       2.311   1.923 -22.509  0.00  0.00    +0.091 C 
ENDROOT
BRANCH   1   2
ATOM      2  N   PHE A   1       3.051   2.904 -22.084  0.00  0.00    +0.223 N 
ATOM      3  H1  PHE A   1       3.158   3.596 -22.826  0.00  0.00    +0.200 HD
ATOM      4  H2  PHE A   1       2.609   3.338 -21.274  0.00  0.00    +0.200 HD
ATOM      5  H3  PHE A   1       3.969   2.547 -21.819  0.00  0.00    +0.200 HD
ENDBRANCH   1   2
BRANCH   1   6
ATOM      6  CB  PHE A   1       1.287   2.165 -23.272  0.00  0.00    +0.091 C 
BRANCH   6   7
ATOM      7  CG  PHE A   1       0.201   2.667 -22.764  0.00  0.00    -0.042 A 
ATOM      8  CD2 PHE A   1      -0.166   3.875 -23.078  0.00  0.00    +0.004 A 
ATOM      9  CE2 PHE A   1      -1.251   4.377 -22.570  0.00  0.00    +0.000 A 
ATOM     10  CZ  PHE A   1      -1.971   3.672 -21.747  0.00  0.00    +0.000 A 
ATOM     11  CE1 PHE A   1      -1.604   2.465 -21.434  0.00  0.00    +0.000 A 
ATOM     12  CD1 PHE A   1      -0.519   1.963 -21.942  0.00  0.00    +0.004 A 
ENDBRANCH   6   7
ENDBRANCH   1   6
BRANCH   1  13
ATOM     13  C   PHE A   1       2.594   0.701 -22.170  0.00  0.00    +0.210 C 
BRANCH  13  14
ATOM     14  O   PHE A   1       2.544  -0.247 -23.058  0.00  0.00    -0.389 OA
ATOM     15  H   PHE A   1       1.788  -0.825 -22.872  0.00  0.00    +0.210 HD
ENDBRANCH  13  14
ENDBRANCH   1  13
TORSDOF 5
ENDMDL
MODEL 9
REMARK VINA RESULT:    -5.246      2.442      3.377
REMARK INTER + INTRA:          -6.513
REMARK INTER:                  -6.499
REMARK INTRA:                  -0.013
REMARK UNBOUND:                -0.040
REMARK  Name = ZINC000006731959
REMARK  5 active torsions:
REMARK  status: ('A' for Active; 'I' for Inactive)
REMARK    1  A    between atoms: N_1  and  CA_2
REMARK    2  A    between atoms: CA_2  and  C_3
REMARK    3  A    between atoms: CA_2  and  CB_5
REMARK    4  A    between atoms: C_3  and  O_4
REMARK    5  A    between atoms: CB_5  and  CG_6
REMARK                            x       y       z     vdW  Elec       q    Type
REMARK                         _______ _______ _______ _____ _____    ______ ____
ROOT
ATOM      1  CA  PHE A   1      -2.441   4.050 -25.005  0.00  0.00    +0.091 C 
ENDROOT
BRANCH   1   2
ATOM      2  N   PHE A   1      -1.897   3.335 -25.944  0.00  0.00    +0.223 N 
ATOM      3  H1  PHE A   1      -1.927   3.850 -26.824  0.00  0.00    +0.200 HD
ATOM      4  H2  PHE A   1      -0.927   3.134 -25.700  0.00  0.00    +0.200 HD
ATOM      5  H3  PHE A   1      -2.410   2.459 -26.045  0.00  0.00    +0.200 HD
ENDBRANCH   1   2
BRANCH   1   6
ATOM      6  CB  PHE A   1      -1.733   4.426 -23.982  0.00  0.00    +0.091 C 
BRANCH   6   7
ATOM      7  CG  PHE A   1      -1.270   3.540 -23.151  0.00  0.00    -0.042 A 
ATOM      8  CD2 PHE A   1      -2.057   3.006 -22.264  0.00  0.00    +0.004 A 
ATOM      9  CE2 PHE A   1      -1.594   2.120 -21.433  0.00  0.00    +0.000 A 
ATOM     10  CZ  PHE A   1      -0.343   1.767 -21.489  0.00  0.00    +0.000 A 
ATOM     11  CE1 PHE A   1       0.443   2.301 -22.377  0.00  0.00    +0.000 A 
ATOM     12  CD1 PHE A   1      -0.020   3.187 -23.207  0.00  0.00    +0.004 A 
ENDBRANCH   6   7
ENDBRANCH   1   6
BRANCH   1  13
ATOM     13  C   PHE A   1      -3.693   4.389 -25.088  0.00  0.00    +0.210 C 
BRANCH  13  14
ATOM     14  O   PHE A   1      -4.277   4.438 -26.249  0.00  0.00    -0.389 OA
ATOM     15  H   PHE A   1      -5.058   5.010 -26.194  0.00  0.00    +0.210 HD
ENDBRANCH  13  14
ENDBRANCH   1  13
TORSDOF 5
ENDMDL
