MODEL 1
REMARK VINA RESULT:    -9.860      0.000      0.000
REMARK INTER + INTRA:         -10.148
REMARK INTER:                 -10.148
REMARK INTRA:                   0.000
REMARK UNBOUND:                 0.000
REMARK  Name = ZINC000012153082
REMARK  5 active torsions:
REMARK  status: ('A' for Active; 'I' for Inactive)
REMARK    1  A    between atoms: C_1  and  C_2
REMARK    2  A    between atoms: C_11  and  C_12
REMARK    3  A    between atoms: C_11  and  O_13
REMARK    4  A    between atoms: C_14  and  C_15
REMARK    5  A    between atoms: C_14  and  C_16
REMARK                            x       y       z     vdW  Elec       q    Type
REMARK                         _______ _______ _______ _____ _____    ______ ____
ROOT
ATOM      1  C   UNL     1      -1.395   3.696 -25.498  0.00  0.00    +0.008 C 
ATOM      2  C   UNL     1      -2.583   3.748 -24.972  0.00  0.00    -0.010 C 
ATOM      3  C   UNL     1      -3.648   4.234 -25.539  0.00  0.00    +0.004 C 
ATOM      4  C   UNL     1      -4.638   4.111 -24.705  0.00  0.00    +0.007 C 
ATOM      5  C   UNL     1      -4.185   3.549 -23.624  0.00  0.00    +0.024 C 
ATOM      6  C   UNL     1      -4.927   3.284 -22.591  0.00  0.00    +0.066 C 
ATOM      7  C   UNL     1      -6.043   3.260 -21.925  0.00  0.00    +0.041 C 
ATOM      8  C   UNL     1      -4.582   2.729 -21.466  0.00  0.00    +0.035 C 
ATOM      9  C   UNL     1      -3.410   2.302 -21.099  0.00  0.00    +0.007 C 
ATOM     10  C   UNL     1      -2.294   2.325 -21.764  0.00  0.00    -0.001 C 
ATOM     11  C   UNL     1      -1.099   2.264 -22.273  0.00  0.00    -0.028 C 
ATOM     12  C   UNL     1      -0.125   2.399 -23.124  0.00  0.00    +0.011 C 
ATOM     13  C   UNL     1      -0.463   1.701 -21.289  0.00  0.00    +0.011 C 
ATOM     14  C   UNL     1      -2.074   2.781 -22.961  0.00  0.00    +0.002 C 
ATOM     15  C   UNL     1      -2.915   3.325 -23.789  0.00  0.00    +0.002 C 
ENDROOT
BRANCH   6  16
ATOM     16  O   UNL     1      -5.768   3.828 -23.418  0.00  0.00    -0.389 OA
ATOM     17  H   UNL     1      -6.494   3.209 -23.595  0.00  0.00    +0.210 HD
ENDBRANCH   6  16
TORSDOF 1
ENDMDL
MODEL 2
REMARK VINA RESULT:    -9.402      1.660      3.611
REMARK INTER + INTRA:          -9.677
REMARK INTER:                  -9.677
REMARK INTRA:                   0.000
REMARK UNBOUND:                 0.000
REMARK  Name = ZINC000012153082
REMARK  5 active torsions:
REMARK  status: ('A' for Active; 'I' for Inactive)
REMARK    1  A    between atoms: C_1  and  C_2
REMARK    2  A    between atoms: C_11  and  C_12
REMARK    3  A    between atoms: C_11  and  O_13
REMARK    4  A    between atoms: C_14  and  C_15
REMARK    5  A    between atoms: C_14  and  C_16
REMARK                            x       y       z     vdW  Elec       q    Type
REMARK                         _______ _______ _______ _____ _____    ______ ____
ROOT
ATOM      1  C   UNL     1      -5.161   3.792 -24.884  0.00  0.00    +0.008 C 
ATOM      2  C   UNL     1      -3.882   3.597 -25.008  0.00  0.00    -0.010 C 
ATOM      3  C   UNL     1      -3.192   3.726 -26.103  0.00  0.00    +0.004 C 
ATOM      4  C   UNL     1      -1.952   3.447 -25.831  0.00  0.00    +0.007 C 
ATOM      5  C   UNL     1      -1.875   3.146 -24.569  0.00  0.00    +0.024 C 
ATOM      6  C   UNL     1      -0.765   2.817 -23.978  0.00  0.00    +0.066 C 
ATOM      7  C   UNL     1       0.512   2.583 -23.932  0.00  0.00    +0.041 C 
ATOM      8  C   UNL     1      -0.574   2.499 -22.732  0.00  0.00    +0.035 C 
ATOM      9  C   UNL     1      -1.446   2.432 -21.770  0.00  0.00    +0.007 C 
ATOM     10  C   UNL     1      -2.724   2.667 -21.816  0.00  0.00    -0.001 C 
ATOM     11  C   UNL     1      -4.001   2.857 -21.672  0.00  0.00    -0.028 C 
ATOM     12  C   UNL     1      -5.235   3.141 -21.969  0.00  0.00    +0.011 C 
ATOM     13  C   UNL     1      -4.129   2.591 -20.406  0.00  0.00    +0.011 C 
ATOM     14  C   UNL     1      -3.445   3.025 -22.835  0.00  0.00    +0.002 C 
ATOM     15  C   UNL     1      -3.068   3.238 -24.061  0.00  0.00    +0.002 C 
ENDROOT
BRANCH   6  16
ATOM     16  O   UNL     1      -0.388   3.030 -25.203  0.00  0.00    -0.389 OA
ATOM     17  H   UNL     1      -0.963   2.536 -25.809  0.00  0.00    +0.210 HD
ENDBRANCH   6  16
TORSDOF 1
ENDMDL
MODEL 3
REMARK VINA RESULT:    -9.351      1.509      4.041
REMARK INTER + INTRA:          -9.624
REMARK INTER:                  -9.624
REMARK INTRA:                   0.000
REMARK UNBOUND:                 0.000
REMARK  Name = ZINC000012153082
REMARK  5 active torsions:
REMARK  status: ('A' for Active; 'I' for Inactive)
REMARK    1  A    between atoms: C_1  and  C_2
REMARK    2  A    between atoms: C_11  and  C_12
REMARK    3  A    between atoms: C_11  and  O_13
REMARK    4  A    between atoms: C_14  and  C_15
REMARK    5  A    between atoms: C_14  and  C_16
REMARK                            x       y       z     vdW  Elec       q    Type
REMARK                         _______ _______ _______ _____ _____    ______ ____
ROOT
ATOM      1  C   UNL     1      -1.303   2.543 -21.423  0.00  0.00    +0.008 C 
ATOM      2  C   UNL     1      -1.315   2.770 -22.702  0.00  0.00    -0.010 C 
ATOM      3  C   UNL     1      -0.280   2.764 -23.489  0.00  0.00    +0.004 C 
ATOM      4  C   UNL     1      -0.689   3.033 -24.694  0.00  0.00    +0.007 C 
ATOM      5  C   UNL     1      -1.976   3.206 -24.652  0.00  0.00    +0.024 C 
ATOM      6  C   UNL     1      -2.695   3.490 -25.696  0.00  0.00    +0.066 C 
ATOM      7  C   UNL     1      -2.879   3.738 -26.959  0.00  0.00    +0.041 C 
ATOM      8  C   UNL     1      -3.979   3.683 -25.769  0.00  0.00    +0.035 C 
ATOM      9  C   UNL     1      -4.861   3.638 -24.814  0.00  0.00    +0.007 C 
ATOM     10  C   UNL     1      -4.676   3.390 -23.552  0.00  0.00    -0.001 C 
ATOM     11  C   UNL     1      -4.684   3.165 -22.272  0.00  0.00    -0.028 C 
ATOM     12  C   UNL     1      -4.251   2.894 -21.076  0.00  0.00    +0.011 C 
ATOM     13  C   UNL     1      -5.954   3.300 -22.026  0.00  0.00    +0.011 C 
ATOM     14  C   UNL     1      -3.565   3.125 -22.932  0.00  0.00    +0.002 C 
ATOM     15  C   UNL     1      -2.363   3.043 -23.421  0.00  0.00    +0.002 C 
ENDROOT
BRANCH   6  16
ATOM     16  O   UNL     1      -1.494   3.408 -26.185  0.00  0.00    -0.389 OA
ATOM     17  H   UNL     1      -1.535   3.050 -27.086  0.00  0.00    +0.210 HD
ENDBRANCH   6  16
TORSDOF 1
ENDMDL
MODEL 4
REMARK VINA RESULT:    -9.161      1.685      3.709
REMARK INTER + INTRA:          -9.429
REMARK INTER:                  -9.429
REMARK INTRA:                   0.000
REMARK UNBOUND:                 0.000
REMARK  Name = ZINC000012153082
REMARK  5 active torsions:
REMARK  status: ('A' for Active; 'I' for Inactive)
REMARK    1  A    between atoms: C_1  and  C_2
REMARK    2  A    between atoms: C_11  and  C_12
REMARK    3  A    between atoms: C_11  and  O_13
REMARK    4  A    between atoms: C_14  and  C_15
REMARK    5  A    between atoms: C_14  and  C_16
REMARK                            x       y       z     vdW  Elec       q    Type
REMARK                         _______ _______ _______ _____ _____    ______ ____
ROOT
ATOM      1  C   UNL     1      -3.404   4.231 -25.768  0.00  0.00    +0.008 C 
ATOM      2  C   UNL     1      -2.421   3.738 -25.077  0.00  0.00    -0.010 C 
ATOM      3  C   UNL     1      -1.186   3.632 -25.472  0.00  0.00    +0.004 C 
ATOM      4  C   UNL     1      -0.500   3.093 -24.508  0.00  0.00    +0.007 C 
ATOM      5  C   UNL     1      -1.310   2.865 -23.518  0.00  0.00    +0.024 C 
ATOM      6  C   UNL     1      -0.935   2.328 -22.395  0.00  0.00    +0.066 C 
ATOM      7  C   UNL     1      -0.069   1.808 -21.577  0.00  0.00    +0.041 C 
ATOM      8  C   UNL     1      -1.654   2.056 -21.347  0.00  0.00    +0.035 C 
ATOM      9  C   UNL     1      -2.926   2.255 -21.162  0.00  0.00    +0.007 C 
ATOM     10  C   UNL     1      -3.792   2.775 -21.980  0.00  0.00    -0.001 C 
ATOM     11  C   UNL     1      -4.788   3.264 -22.656  0.00  0.00    -0.028 C 
ATOM     12  C   UNL     1      -5.452   3.805 -23.635  0.00  0.00    +0.011 C 
ATOM     13  C   UNL     1      -5.745   3.118 -21.788  0.00  0.00    +0.011 C 
ATOM     14  C   UNL     1      -3.601   3.223 -23.185  0.00  0.00    +0.002 C 
ATOM     15  C   UNL     1      -2.497   3.263 -23.869  0.00  0.00    +0.002 C 
ENDROOT
BRANCH   6  16
ATOM     16  O   UNL     1       0.168   2.368 -23.080  0.00  0.00    -0.389 OA
ATOM     17  H   UNL     1       0.916   2.515 -22.479  0.00  0.00    +0.210 HD
ENDBRANCH   6  16
TORSDOF 1
ENDMDL
MODEL 5
REMARK VINA RESULT:    -9.157      1.572      4.455
REMARK INTER + INTRA:          -9.425
REMARK INTER:                  -9.425
REMARK INTRA:                   0.000
REMARK UNBOUND:                 0.000
REMARK  Name = ZINC000012153082
REMARK  5 active torsions:
REMARK  status: ('A' for Active; 'I' for Inactive)
REMARK    1  A    between atoms: C_1  and  C_2
REMARK    2  A    between atoms: C_11  and  C_12
REMARK    3  A    between atoms: C_11  and  O_13
REMARK    4  A    between atoms: C_14  and  C_15
REMARK    5  A    between atoms: C_14  and  C_16
REMARK                            x       y       z     vdW  Elec       q    Type
REMARK                         _______ _______ _______ _____ _____    ______ ____
ROOT
ATOM      1  C   UNL     1      -5.567   3.373 -22.496  0.00  0.00    +0.008 C 
ATOM      2  C   UNL     1      -4.364   3.080 -22.102  0.00  0.00    -0.010 C 
ATOM      3  C   UNL     1      -4.007   2.793 -20.884  0.00  0.00    +0.004 C 
ATOM      4  C   UNL     1      -2.728   2.558 -20.885  0.00  0.00    +0.007 C 
ATOM      5  C   UNL     1      -2.295   2.699 -22.102  0.00  0.00    +0.024 C 
ATOM      6  C   UNL     1      -1.052   2.532 -22.443  0.00  0.00    +0.066 C 
ATOM      7  C   UNL     1       0.199   2.260 -22.216  0.00  0.00    +0.041 C 
ATOM      8  C   UNL     1      -0.512   2.646 -23.621  0.00  0.00    +0.035 C 
ATOM      9  C   UNL     1      -1.083   2.956 -24.748  0.00  0.00    +0.007 C 
ATOM     10  C   UNL     1      -2.333   3.227 -24.975  0.00  0.00    -0.001 C 
ATOM     11  C   UNL     1      -3.530   3.523 -25.388  0.00  0.00    -0.028 C 
ATOM     12  C   UNL     1      -4.809   3.753 -25.361  0.00  0.00    +0.011 C 
ATOM     13  C   UNL     1      -3.293   3.709 -26.653  0.00  0.00    +0.011 C 
ATOM     14  C   UNL     1      -3.322   3.256 -24.132  0.00  0.00    +0.002 C 
ATOM     15  C   UNL     1      -3.306   3.021 -22.854  0.00  0.00    +0.002 C 
ENDROOT
BRANCH   6  16
ATOM     16  O   UNL     1      -1.035   2.297 -21.166  0.00  0.00    -0.389 OA
ATOM     17  H   UNL     1      -0.212   2.641 -20.784  0.00  0.00    +0.210 HD
ENDBRANCH   6  16
TORSDOF 1
ENDMDL
MODEL 6
REMARK VINA RESULT:    -8.763      0.866      3.149
REMARK INTER + INTRA:          -9.019
REMARK INTER:                  -9.019
REMARK INTRA:                   0.000
REMARK UNBOUND:                 0.000
REMARK  Name = ZINC000012153082
REMARK  5 active torsions:
REMARK  status: ('A' for Active; 'I' for Inactive)
REMARK    1  A    between atoms: C_1  and  C_2
REMARK    2  A    between atoms: C_11  and  C_12
REMARK    3  A    between atoms: C_11  and  O_13
REMARK    4  A    between atoms: C_14  and  C_15
REMARK    5  A    between atoms: C_14  and  C_16
REMARK                            x       y       z     vdW  Elec       q    Type
REMARK                         _______ _______ _______ _____ _____    ______ ____
ROOT
ATOM      1  C   UNL     1      -1.105   2.211 -21.062  0.00  0.00    +0.008 C 
ATOM      2  C   UNL     1      -2.283   2.547 -21.497  0.00  0.00    -0.010 C 
ATOM      3  C   UNL     1      -3.395   2.472 -20.827  0.00  0.00    +0.004 C 
ATOM      4  C   UNL     1      -4.356   2.896 -21.594  0.00  0.00    +0.007 C 
ATOM      5  C   UNL     1      -3.838   3.233 -22.737  0.00  0.00    +0.024 C 
ATOM      6  C   UNL     1      -4.536   3.698 -23.730  0.00  0.00    +0.066 C 
ATOM      7  C   UNL     1      -5.633   4.076 -24.314  0.00  0.00    +0.041 C 
ATOM      8  C   UNL     1      -4.125   4.064 -24.908  0.00  0.00    +0.035 C 
ATOM      9  C   UNL     1      -2.915   4.054 -25.384  0.00  0.00    +0.007 C 
ATOM     10  C   UNL     1      -1.817   3.676 -24.800  0.00  0.00    -0.001 C 
ATOM     11  C   UNL     1      -0.632   3.345 -24.382  0.00  0.00    -0.028 C 
ATOM     12  C   UNL     1       0.312   2.917 -23.596  0.00  0.00    +0.011 C 
ATOM     13  C   UNL     1       0.067   3.624 -25.442  0.00  0.00    +0.011 C 
ATOM     14  C   UNL     1      -1.658   3.215 -23.595  0.00  0.00    +0.002 C 
ATOM     15  C   UNL     1      -2.557   3.017 -22.677  0.00  0.00    +0.002 C 
ENDROOT
BRANCH   6  16
ATOM     16  O   UNL     1      -5.434   3.501 -22.812  0.00  0.00    -0.389 OA
ATOM     17  H   UNL     1      -5.273   4.101 -22.067  0.00  0.00    +0.210 HD
ENDBRANCH   6  16
TORSDOF 1
ENDMDL
MODEL 7
REMARK VINA RESULT:    -8.730      1.812      4.867
REMARK INTER + INTRA:          -8.986
REMARK INTER:                  -8.986
REMARK INTRA:                   0.000
REMARK UNBOUND:                 0.000
REMARK  Name = ZINC000012153082
REMARK  5 active torsions:
REMARK  status: ('A' for Active; 'I' for Inactive)
REMARK    1  A    between atoms: C_1  and  C_2
REMARK    2  A    between atoms: C_11  and  C_12
REMARK    3  A    between atoms: C_11  and  O_13
REMARK    4  A    between atoms: C_14  and  C_15
REMARK    5  A    between atoms: C_14  and  C_16
REMARK                            x       y       z     vdW  Elec       q    Type
REMARK                         _______ _______ _______ _____ _____    ______ ____
ROOT
ATOM      1  C   UNL     1      -3.628   2.667 -20.849  0.00  0.00    +0.008 C 
ATOM      2  C   UNL     1      -2.501   2.645 -21.496  0.00  0.00    -0.010 C 
ATOM      3  C   UNL     1      -1.349   2.282 -21.013  0.00  0.00    +0.004 C 
ATOM      4  C   UNL     1      -0.464   2.395 -21.958  0.00  0.00    +0.007 C 
ATOM      5  C   UNL     1      -1.067   2.828 -23.025  0.00  0.00    +0.024 C 
ATOM      6  C   UNL     1      -0.459   3.048 -24.151  0.00  0.00    +0.066 C 
ATOM      7  C   UNL     1       0.577   3.085 -24.935  0.00  0.00    +0.041 C 
ATOM      8  C   UNL     1      -0.959   3.477 -25.272  0.00  0.00    +0.035 C 
ATOM      9  C   UNL     1      -2.192   3.792 -25.542  0.00  0.00    +0.007 C 
ATOM     10  C   UNL     1      -3.228   3.756 -24.758  0.00  0.00    -0.001 C 
ATOM     11  C   UNL     1      -4.364   3.784 -24.127  0.00  0.00    -0.028 C 
ATOM     12  C   UNL     1      -5.231   3.662 -23.166  0.00  0.00    +0.011 C 
ATOM     13  C   UNL     1      -5.139   4.215 -25.078  0.00  0.00    +0.011 C 
ATOM     14  C   UNL     1      -3.287   3.395 -23.510  0.00  0.00    +0.002 C 
ATOM     15  C   UNL     1      -2.326   2.982 -22.739  0.00  0.00    +0.002 C 
ENDROOT
BRANCH   6  16
ATOM     16  O   UNL     1       0.502   2.635 -23.380  0.00  0.00    -0.389 OA
ATOM     17  H   UNL     1       1.135   3.357 -23.238  0.00  0.00    +0.210 HD
ENDBRANCH   6  16
TORSDOF 1
ENDMDL
MODEL 8
REMARK VINA RESULT:    -8.493      1.259      2.401
REMARK INTER + INTRA:          -8.741
REMARK INTER:                  -8.741
REMARK INTRA:                   0.000
REMARK UNBOUND:                 0.000
REMARK  Name = ZINC000012153082
REMARK  5 active torsions:
REMARK  status: ('A' for Active; 'I' for Inactive)
REMARK    1  A    between atoms: C_1  and  C_2
REMARK    2  A    between atoms: C_11  and  C_12
REMARK    3  A    between atoms: C_11  and  O_13
REMARK    4  A    between atoms: C_14  and  C_15
REMARK    5  A    between atoms: C_14  and  C_16
REMARK                            x       y       z     vdW  Elec       q    Type
REMARK                         _______ _______ _______ _____ _____    ______ ____
ROOT
ATOM      1  C   UNL     1      -0.209   3.069 -23.492  0.00  0.00    +0.008 C 
ATOM      2  C   UNL     1      -1.281   3.263 -24.201  0.00  0.00    -0.010 C 
ATOM      3  C   UNL     1      -1.330   3.381 -25.495  0.00  0.00    +0.004 C 
ATOM      4  C   UNL     1      -2.571   3.565 -25.835  0.00  0.00    +0.007 C 
ATOM      5  C   UNL     1      -3.290   3.560 -24.752  0.00  0.00    +0.024 C 
ATOM      6  C   UNL     1      -4.579   3.720 -24.748  0.00  0.00    +0.066 C 
ATOM      7  C   UNL     1      -5.737   3.911 -25.305  0.00  0.00    +0.041 C 
ATOM      8  C   UNL     1      -5.390   3.732 -23.732  0.00  0.00    +0.035 C 
ATOM      9  C   UNL     1      -5.112   3.588 -22.470  0.00  0.00    +0.007 C 
ATOM     10  C   UNL     1      -3.954   3.397 -21.912  0.00  0.00    -0.001 C 
ATOM     11  C   UNL     1      -2.893   3.202 -21.187  0.00  0.00    -0.028 C 
ATOM     12  C   UNL     1      -1.645   3.020 -20.872  0.00  0.00    +0.011 C 
ATOM     13  C   UNL     1      -3.432   3.167 -20.004  0.00  0.00    +0.011 C 
ATOM     14  C   UNL     1      -2.788   3.301 -22.478  0.00  0.00    +0.002 C 
ATOM     15  C   UNL     1      -2.492   3.374 -23.742  0.00  0.00    +0.002 C 
ENDROOT
BRANCH   6  16
ATOM     16  O   UNL     1      -4.283   3.792 -26.010  0.00  0.00    -0.389 OA
ATOM     17  H   UNL     1      -5.045   3.507 -26.539  0.00  0.00    +0.210 HD
ENDBRANCH   6  16
TORSDOF 1
ENDMDL
MODEL 9
REMARK VINA RESULT:    -8.330      1.515      3.550
REMARK INTER + INTRA:          -8.574
REMARK INTER:                  -8.574
REMARK INTRA:                   0.000
REMARK UNBOUND:                 0.000
REMARK  Name = ZINC000012153082
REMARK  5 active torsions:
REMARK  status: ('A' for Active; 'I' for Inactive)
REMARK    1  A    between atoms: C_1  and  C_2
REMARK    2  A    between atoms: C_11  and  C_12
REMARK    3  A    between atoms: C_11  and  O_13
REMARK    4  A    between atoms: C_14  and  C_15
REMARK    5  A    between atoms: C_14  and  C_16
REMARK                            x       y       z     vdW  Elec       q    Type
REMARK                         _______ _______ _______ _____ _____    ______ ____
ROOT
ATOM      1  C   UNL     1      -0.544   3.369 -25.235  0.00  0.00    +0.008 C 
ATOM      2  C   UNL     1      -0.889   3.321 -23.983  0.00  0.00    -0.010 C 
ATOM      3  C   UNL     1      -0.078   3.216 -22.971  0.00  0.00    +0.004 C 
ATOM      4  C   UNL     1      -0.792   3.199 -21.885  0.00  0.00    +0.007 C 
ATOM      5  C   UNL     1      -2.044   3.294 -22.225  0.00  0.00    +0.024 C 
ATOM      6  C   UNL     1      -3.019   3.306 -21.367  0.00  0.00    +0.066 C 
ATOM      7  C   UNL     1      -3.528   3.270 -20.171  0.00  0.00    +0.041 C 
ATOM      8  C   UNL     1      -4.296   3.395 -21.594  0.00  0.00    +0.035 C 
ATOM      9  C   UNL     1      -4.912   3.496 -22.734  0.00  0.00    +0.007 C 
ATOM     10  C   UNL     1      -4.403   3.531 -23.930  0.00  0.00    -0.001 C 
ATOM     11  C   UNL     1      -4.078   3.581 -25.187  0.00  0.00    -0.028 C 
ATOM     12  C   UNL     1      -3.343   3.595 -26.259  0.00  0.00    +0.011 C 
ATOM     13  C   UNL     1      -5.259   3.682 -25.722  0.00  0.00    +0.011 C 
ATOM     14  C   UNL     1      -3.153   3.475 -24.280  0.00  0.00    +0.002 C 
ATOM     15  C   UNL     1      -2.103   3.369 -23.522  0.00  0.00    +0.002 C 
ENDROOT
BRANCH   6  16
ATOM     16  O   UNL     1      -1.969   3.200 -20.609  0.00  0.00    -0.389 OA
ATOM     17  H   UNL     1      -1.193   3.005 -21.157  0.00  0.00    +0.210 HD
ENDBRANCH   6  16
TORSDOF 1
ENDMDL
