MODEL 1
REMARK VINA RESULT:    -8.780      0.000      0.000
REMARK INTER + INTRA:          -8.780
REMARK INTER:                  -8.780
REMARK INTRA:                   0.000
REMARK UNBOUND:                 0.000
REMARK  Name = ZINC000031460486
REMARK  0 active torsions:
REMARK  status: ('A' for Active; 'I' for Inactive)
REMARK                            x       y       z     vdW  Elec       q    Type
REMARK                         _______ _______ _______ _____ _____    ______ ____
ROOT
ATOM      1  O   UNL     1       0.630   1.499 -22.872  0.00  0.00    -0.246 OA
ATOM      2  C   UNL     1      -0.563   1.969 -22.669  0.00  0.00    +0.333 C 
ATOM      3  C   UNL     1      -1.133   2.129 -21.516  0.00  0.00    +0.099 C 
ATOM      4  C   UNL     1      -2.317   2.619 -21.719  0.00  0.00    +0.008 C 
ATOM      5  C   UNL     1      -3.270   2.954 -20.904  0.00  0.00    +0.009 C 
ATOM      6  C   UNL     1      -4.383   3.432 -21.369  0.00  0.00    +0.027 C 
ATOM      7  C   UNL     1      -4.543   3.574 -22.649  0.00  0.00    +0.093 C 
ATOM      8  C   UNL     1      -3.590   3.239 -23.463  0.00  0.00    +0.117 C 
ATOM      9  N   UNL     1      -4.260   3.538 -23.939  0.00  0.00    +0.246 N 
ATOM     10  H   UNL     1      -5.189   3.901 -23.726  0.00  0.00    +0.204 HD
ATOM     11  C   UNL     1      -4.781   3.819 -25.094  0.00  0.00    +0.132 C 
ATOM     12  C   UNL     1      -3.910   3.523 -26.009  0.00  0.00    +0.056 C 
ATOM     13  C   UNL     1      -2.851   3.060 -25.420  0.00  0.00    +0.064 C 
ATOM     14  C   UNL     1      -3.067   3.069 -24.141  0.00  0.00    +0.115 C 
ATOM     15  C   UNL     1      -2.478   2.762 -22.999  0.00  0.00    +0.186 C 
ATOM     16  O   UNL     1      -1.394   2.360 -23.585  0.00  0.00    -0.444 OA
ENDROOT
TORSDOF 0
ENDMDL
MODEL 2
REMARK VINA RESULT:    -8.732      1.132      3.042
REMARK INTER + INTRA:          -8.732
REMARK INTER:                  -8.732
REMARK INTRA:                   0.000
REMARK UNBOUND:                 0.000
REMARK  Name = ZINC000031460486
REMARK  0 active torsions:
REMARK  status: ('A' for Active; 'I' for Inactive)
REMARK                            x       y       z     vdW  Elec       q    Type
REMARK                         _______ _______ _______ _____ _____    ______ ____
ROOT
ATOM      1  O   UNL     1       0.524   2.736 -24.177  0.00  0.00    -0.246 OA
ATOM      2  C   UNL     1      -0.738   3.031 -24.253  0.00  0.00    +0.333 C 
ATOM      3  C   UNL     1      -1.339   3.551 -25.278  0.00  0.00    +0.099 C 
ATOM      4  C   UNL     1      -2.591   3.698 -24.976  0.00  0.00    +0.008 C 
ATOM      5  C   UNL     1      -3.597   4.168 -25.648  0.00  0.00    +0.009 C 
ATOM      6  C   UNL     1      -4.776   4.208 -25.108  0.00  0.00    +0.027 C 
ATOM      7  C   UNL     1      -4.949   3.778 -23.896  0.00  0.00    +0.093 C 
ATOM      8  C   UNL     1      -3.943   3.308 -23.224  0.00  0.00    +0.117 C 
ATOM      9  N   UNL     1      -4.653   3.262 -22.715  0.00  0.00    +0.246 N 
ATOM     10  H   UNL     1      -5.635   3.511 -22.826  0.00  0.00    +0.204 HD
ATOM     11  C   UNL     1      -5.207   2.943 -21.586  0.00  0.00    +0.132 C 
ATOM     12  C   UNL     1      -4.288   2.453 -20.813  0.00  0.00    +0.056 C 
ATOM     13  C   UNL     1      -3.166   2.467 -21.464  0.00  0.00    +0.064 C 
ATOM     14  C   UNL     1      -3.391   2.967 -22.640  0.00  0.00    +0.115 C 
ATOM     15  C   UNL     1      -2.765   3.268 -23.764  0.00  0.00    +0.186 C 
ATOM     16  O   UNL     1      -1.619   2.856 -23.318  0.00  0.00    -0.444 OA
ENDROOT
TORSDOF 0
ENDMDL
MODEL 3
REMARK VINA RESULT:    -8.727      1.796      3.684
REMARK INTER + INTRA:          -8.727
REMARK INTER:                  -8.727
REMARK INTRA:                   0.000
REMARK UNBOUND:                 0.000
REMARK  Name = ZINC000031460486
REMARK  0 active torsions:
REMARK  status: ('A' for Active; 'I' for Inactive)
REMARK                            x       y       z     vdW  Elec       q    Type
REMARK                         _______ _______ _______ _____ _____    ______ ____
ROOT
ATOM      1  O   UNL     1      -4.267   4.817 -25.913  0.00  0.00    -0.246 OA
ATOM      2  C   UNL     1      -4.201   4.235 -24.755  0.00  0.00    +0.333 C 
ATOM      3  C   UNL     1      -5.193   4.036 -23.944  0.00  0.00    +0.099 C 
ATOM      4  C   UNL     1      -4.736   3.428 -22.893  0.00  0.00    +0.008 C 
ATOM      5  C   UNL     1      -5.316   3.012 -21.809  0.00  0.00    +0.009 C 
ATOM      6  C   UNL     1      -4.621   2.420 -20.888  0.00  0.00    +0.027 C 
ATOM      7  C   UNL     1      -3.346   2.243 -21.051  0.00  0.00    +0.093 C 
ATOM      8  C   UNL     1      -2.767   2.659 -22.134  0.00  0.00    +0.117 C 
ATOM      9  N   UNL     1      -2.158   2.288 -21.628  0.00  0.00    +0.246 N 
ATOM     10  H   UNL     1      -2.160   1.838 -20.712  0.00  0.00    +0.204 HD
ATOM     11  C   UNL     1      -0.924   1.940 -21.425  0.00  0.00    +0.132 C 
ATOM     12  C   UNL     1      -0.230   2.307 -22.456  0.00  0.00    +0.056 C 
ATOM     13  C   UNL     1      -1.032   2.881 -23.298  0.00  0.00    +0.064 C 
ATOM     14  C   UNL     1      -2.225   2.870 -22.785  0.00  0.00    +0.115 C 
ATOM     15  C   UNL     1      -3.461   3.251 -23.055  0.00  0.00    +0.186 C 
ATOM     16  O   UNL     1      -3.131   3.750 -24.206  0.00  0.00    -0.444 OA
ENDROOT
TORSDOF 0
ENDMDL
MODEL 4
REMARK VINA RESULT:    -8.653      1.308      2.750
REMARK INTER + INTRA:          -8.653
REMARK INTER:                  -8.653
REMARK INTRA:                   0.000
REMARK UNBOUND:                 0.000
REMARK  Name = ZINC000031460486
REMARK  0 active torsions:
REMARK  status: ('A' for Active; 'I' for Inactive)
REMARK                            x       y       z     vdW  Elec       q    Type
REMARK                         _______ _______ _______ _____ _____    ______ ____
ROOT
ATOM      1  O   UNL     1       0.406   1.291 -20.614  0.00  0.00    -0.246 OA
ATOM      2  C   UNL     1      -0.329   1.871 -21.512  0.00  0.00    +0.333 C 
ATOM      3  C   UNL     1       0.079   2.319 -22.659  0.00  0.00    +0.099 C 
ATOM      4  C   UNL     1      -0.941   2.829 -23.276  0.00  0.00    +0.008 C 
ATOM      5  C   UNL     1      -1.059   3.398 -24.437  0.00  0.00    +0.009 C 
ATOM      6  C   UNL     1      -2.215   3.834 -24.831  0.00  0.00    +0.027 C 
ATOM      7  C   UNL     1      -3.254   3.701 -24.065  0.00  0.00    +0.093 C 
ATOM      8  C   UNL     1      -3.136   3.133 -22.905  0.00  0.00    +0.117 C 
ATOM      9  N   UNL     1      -3.973   3.364 -23.008  0.00  0.00    +0.246 N 
ATOM     10  H   UNL     1      -4.506   3.825 -23.745  0.00  0.00    +0.204 HD
ATOM     11  C   UNL     1      -5.189   3.417 -22.557  0.00  0.00    +0.132 C 
ATOM     12  C   UNL     1      -5.203   2.870 -21.381  0.00  0.00    +0.056 C 
ATOM     13  C   UNL     1      -3.998   2.479 -21.104  0.00  0.00    +0.064 C 
ATOM     14  C   UNL     1      -3.237   2.784 -22.111  0.00  0.00    +0.115 C 
ATOM     15  C   UNL     1      -1.981   2.697 -22.510  0.00  0.00    +0.186 C 
ATOM     16  O   UNL     1      -1.602   2.105 -21.420  0.00  0.00    -0.444 OA
ENDROOT
TORSDOF 0
ENDMDL
MODEL 5
REMARK VINA RESULT:    -7.936      2.293      3.843
REMARK INTER + INTRA:          -7.936
REMARK INTER:                  -7.936
REMARK INTRA:                   0.000
REMARK UNBOUND:                 0.000
REMARK  Name = ZINC000031460486
REMARK  0 active torsions:
REMARK  status: ('A' for Active; 'I' for Inactive)
REMARK                            x       y       z     vdW  Elec       q    Type
REMARK                         _______ _______ _______ _____ _____    ______ ____
ROOT
ATOM      1  O   UNL     1      -4.504   4.872 -25.175  0.00  0.00    -0.246 OA
ATOM      2  C   UNL     1      -3.671   4.195 -24.446  0.00  0.00    +0.333 C 
ATOM      3  C   UNL     1      -3.946   3.603 -23.325  0.00  0.00    +0.099 C 
ATOM      4  C   UNL     1      -2.863   3.033 -22.897  0.00  0.00    +0.008 C 
ATOM      5  C   UNL     1      -2.613   2.326 -21.837  0.00  0.00    +0.009 C 
ATOM      6  C   UNL     1      -1.420   1.860 -21.634  0.00  0.00    +0.027 C 
ATOM      7  C   UNL     1      -0.475   2.101 -22.491  0.00  0.00    +0.093 C 
ATOM      8  C   UNL     1      -0.724   2.808 -23.550  0.00  0.00    +0.117 C 
ATOM      9  N   UNL     1       0.119   2.577 -23.572  0.00  0.00    +0.246 N 
ATOM     10  H   UNL     1       0.732   2.036 -22.963  0.00  0.00    +0.204 HD
ATOM     11  C   UNL     1       1.275   2.597 -24.161  0.00  0.00    +0.132 C 
ATOM     12  C   UNL     1       1.155   3.286 -25.253  0.00  0.00    +0.056 C 
ATOM     13  C   UNL     1      -0.073   3.693 -25.340  0.00  0.00    +0.064 C 
ATOM     14  C   UNL     1      -0.715   3.254 -24.300  0.00  0.00    +0.115 C 
ATOM     15  C   UNL     1      -1.917   3.274 -23.753  0.00  0.00    +0.186 C 
ATOM     16  O   UNL     1      -2.418   3.991 -24.710  0.00  0.00    -0.444 OA
ENDROOT
TORSDOF 0
ENDMDL
MODEL 6
REMARK VINA RESULT:    -7.700      2.377      4.036
REMARK INTER + INTRA:          -7.700
REMARK INTER:                  -7.700
REMARK INTRA:                   0.000
REMARK UNBOUND:                 0.000
REMARK  Name = ZINC000031460486
REMARK  0 active torsions:
REMARK  status: ('A' for Active; 'I' for Inactive)
REMARK                            x       y       z     vdW  Elec       q    Type
REMARK                         _______ _______ _______ _____ _____    ______ ____
ROOT
ATOM      1  O   UNL     1       2.695  -0.010 -22.131  0.00  0.00    -0.246 OA
ATOM      2  C   UNL     1       2.114   1.112 -22.426  0.00  0.00    +0.333 C 
ATOM      3  C   UNL     1       2.666   2.123 -23.023  0.00  0.00    +0.099 C 
ATOM      4  C   UNL     1       1.772   3.055 -23.141  0.00  0.00    +0.008 C 
ATOM      5  C   UNL     1       1.821   4.244 -23.658  0.00  0.00    +0.009 C 
ATOM      6  C   UNL     1       0.765   4.999 -23.650  0.00  0.00    +0.027 C 
ATOM      7  C   UNL     1      -0.339   4.564 -23.125  0.00  0.00    +0.093 C 
ATOM      8  C   UNL     1      -0.387   3.376 -22.608  0.00  0.00    +0.117 C 
ATOM      9  N   UNL     1      -1.176   3.741 -22.518  0.00  0.00    +0.246 N 
ATOM     10  H   UNL     1      -1.585   4.640 -22.771  0.00  0.00    +0.204 HD
ATOM     11  C   UNL     1      -2.406   3.675 -22.109  0.00  0.00    +0.132 C 
ATOM     12  C   UNL     1      -2.584   2.512 -21.563  0.00  0.00    +0.056 C 
ATOM     13  C   UNL     1      -1.465   1.859 -21.633  0.00  0.00    +0.064 C 
ATOM     14  C   UNL     1      -0.594   2.619 -22.224  0.00  0.00    +0.115 C 
ATOM     15  C   UNL     1       0.667   2.621 -22.615  0.00  0.00    +0.186 C 
ATOM     16  O   UNL     1       0.880   1.421 -22.174  0.00  0.00    -0.444 OA
ENDROOT
TORSDOF 0
ENDMDL
MODEL 7
REMARK VINA RESULT:    -7.627      1.486      2.151
REMARK INTER + INTRA:          -7.627
REMARK INTER:                  -7.627
REMARK INTRA:                   0.000
REMARK UNBOUND:                 0.000
REMARK  Name = ZINC000031460486
REMARK  0 active torsions:
REMARK  status: ('A' for Active; 'I' for Inactive)
REMARK                            x       y       z     vdW  Elec       q    Type
REMARK                         _______ _______ _______ _____ _____    ______ ____
ROOT
ATOM      1  O   UNL     1       2.478   2.445 -24.935  0.00  0.00    -0.246 OA
ATOM      2  C   UNL     1       1.385   2.453 -24.234  0.00  0.00    +0.333 C 
ATOM      3  C   UNL     1       1.277   2.116 -22.986  0.00  0.00    +0.099 C 
ATOM      4  C   UNL     1       0.035   2.254 -22.641  0.00  0.00    +0.008 C 
ATOM      5  C   UNL     1      -0.582   2.050 -21.517  0.00  0.00    +0.009 C 
ATOM      6  C   UNL     1      -1.858   2.268 -21.429  0.00  0.00    +0.027 C 
ATOM      7  C   UNL     1      -2.517   2.690 -22.463  0.00  0.00    +0.093 C 
ATOM      8  C   UNL     1      -1.900   2.894 -23.586  0.00  0.00    +0.117 C 
ATOM      9  N   UNL     1      -2.745   3.089 -23.703  0.00  0.00    +0.246 N 
ATOM     10  H   UNL     1      -3.574   3.078 -23.110  0.00  0.00    +0.204 HD
ATOM     11  C   UNL     1      -3.709   3.494 -24.471  0.00  0.00    +0.132 C 
ATOM     12  C   UNL     1      -3.212   3.735 -25.644  0.00  0.00    +0.056 C 
ATOM     13  C   UNL     1      -1.941   3.480 -25.603  0.00  0.00    +0.064 C 
ATOM     14  C   UNL     1      -1.652   3.081 -24.402  0.00  0.00    +0.115 C 
ATOM     15  C   UNL     1      -0.625   2.676 -23.675  0.00  0.00    +0.186 C 
ATOM     16  O   UNL     1       0.210   2.799 -24.659  0.00  0.00    -0.444 OA
ENDROOT
TORSDOF 0
ENDMDL
MODEL 8
REMARK VINA RESULT:    -6.973      2.912      4.232
REMARK INTER + INTRA:          -6.973
REMARK INTER:                  -6.973
REMARK INTRA:                   0.000
REMARK UNBOUND:                 0.000
REMARK  Name = ZINC000031460486
REMARK  0 active torsions:
REMARK  status: ('A' for Active; 'I' for Inactive)
REMARK                            x       y       z     vdW  Elec       q    Type
REMARK                         _______ _______ _______ _____ _____    ______ ____
ROOT
ATOM      1  O   UNL     1       4.461   4.409 -23.303  0.00  0.00    -0.246 OA
ATOM      2  C   UNL     1       3.385   3.750 -23.000  0.00  0.00    +0.333 C 
ATOM      3  C   UNL     1       3.338   2.580 -22.444  0.00  0.00    +0.099 C 
ATOM      4  C   UNL     1       2.091   2.254 -22.300  0.00  0.00    +0.008 C 
ATOM      5  C   UNL     1       1.521   1.199 -21.804  0.00  0.00    +0.009 C 
ATOM      6  C   UNL     1       0.226   1.114 -21.776  0.00  0.00    +0.027 C 
ATOM      7  C   UNL     1      -0.497   2.084 -22.244  0.00  0.00    +0.093 C 
ATOM      8  C   UNL     1       0.073   3.138 -22.740  0.00  0.00    +0.117 C 
ATOM      9  N   UNL     1      -0.793   3.247 -22.800  0.00  0.00    +0.246 N 
ATOM     10  H   UNL     1      -1.607   2.689 -22.543  0.00  0.00    +0.204 HD
ATOM     11  C   UNL     1      -1.814   3.966 -23.152  0.00  0.00    +0.132 C 
ATOM     12  C   UNL     1      -1.368   5.067 -23.672  0.00  0.00    +0.056 C 
ATOM     13  C   UNL     1      -0.072   5.030 -23.642  0.00  0.00    +0.064 C 
ATOM     14  C   UNL     1       0.284   3.904 -23.103  0.00  0.00    +0.115 C 
ATOM     15  C   UNL     1       1.366   3.224 -22.769  0.00  0.00    +0.186 C 
ATOM     16  O   UNL     1       2.167   4.148 -23.201  0.00  0.00    -0.444 OA
ENDROOT
TORSDOF 0
ENDMDL
MODEL 9
REMARK VINA RESULT:    -6.753      1.803      3.649
REMARK INTER + INTRA:          -6.753
REMARK INTER:                  -6.753
REMARK INTRA:                   0.000
REMARK UNBOUND:                 0.000
REMARK  Name = ZINC000031460486
REMARK  0 active torsions:
REMARK  status: ('A' for Active; 'I' for Inactive)
REMARK                            x       y       z     vdW  Elec       q    Type
REMARK                         _______ _______ _______ _____ _____    ______ ____
ROOT
ATOM      1  O   UNL     1       2.914   1.640 -24.017  0.00  0.00    -0.246 OA
ATOM      2  C   UNL     1       1.713   2.107 -24.169  0.00  0.00    +0.333 C 
ATOM      3  C   UNL     1       1.273   2.763 -25.198  0.00  0.00    +0.099 C 
ATOM      4  C   UNL     1       0.030   3.061 -24.982  0.00  0.00    +0.008 C 
ATOM      5  C   UNL     1      -0.846   3.701 -25.694  0.00  0.00    +0.009 C 
ATOM      6  C   UNL     1      -2.051   3.869 -25.242  0.00  0.00    +0.027 C 
ATOM      7  C   UNL     1      -2.379   3.398 -24.079  0.00  0.00    +0.093 C 
ATOM      8  C   UNL     1      -1.504   2.758 -23.368  0.00  0.00    +0.117 C 
ATOM      9  N   UNL     1      -2.253   2.779 -22.918  0.00  0.00    +0.246 N 
ATOM     10  H   UNL     1      -3.182   3.165 -23.085  0.00  0.00    +0.204 HD
ATOM     11  C   UNL     1      -2.937   2.474 -21.858  0.00  0.00    +0.132 C 
ATOM     12  C   UNL     1      -2.158   1.820 -21.053  0.00  0.00    +0.056 C 
ATOM     13  C   UNL     1      -0.994   1.720 -21.615  0.00  0.00    +0.064 C 
ATOM     14  C   UNL     1      -1.052   2.312 -22.768  0.00  0.00    +0.115 C 
ATOM     15  C   UNL     1      -0.300   2.589 -23.818  0.00  0.00    +0.186 C 
ATOM     16  O   UNL     1       0.741   2.000 -23.316  0.00  0.00    -0.444 OA
ENDROOT
TORSDOF 0
ENDMDL
