MODEL 1
REMARK VINA RESULT:    -9.691      0.000      0.000
REMARK INTER + INTRA:         -13.639
REMARK INTER:                 -12.764
REMARK INTRA:                  -0.875
REMARK UNBOUND:                -0.832
REMARK  Name = ZINC000004257487
REMARK  7 active torsions:
REMARK  status: ('A' for Active; 'I' for Inactive)
REMARK    1  A    between atoms: O5*_1  and  C5*_2
REMARK    2  A    between atoms: C5*_2  and  C4*_3
REMARK    3  A    between atoms: C1*_5  and  N_6
REMARK    4  A    between atoms: N_11  and  C_12
REMARK    5  A    between atoms: C_12  and  C_13
REMARK    6  A    between atoms: C2*_23  and  O2*_24
REMARK    7  A    between atoms: C3*_25  and  O3*_26
REMARK                            x       y       z     vdW  Elec       q    Type
REMARK                         _______ _______ _______ _____ _____    ______ ____
ROOT
ATOM      1  N   UNL     1       3.172   2.395 -23.063  0.00  0.00    -0.286 N 
ATOM      2  C   UNL     1       2.671   1.196 -23.047  0.00  0.00    +0.203 A 
ATOM      3  N   UNL     1       1.402   1.286 -23.320  0.00  0.00    -0.231 NA
ATOM      4  C   UNL     1       1.120   2.542 -23.504  0.00  0.00    +0.147 A 
ATOM      5  C   UNL     1       0.008   3.150 -23.796  0.00  0.00    +0.150 A 
ATOM      6  N   UNL     1      -0.010   4.443 -23.929  0.00  0.00    -0.219 NA
ATOM      7  C   UNL     1       1.083   5.128 -23.771  0.00  0.00    +0.225 A 
ATOM      8  N   UNL     1       2.195   4.520 -23.479  0.00  0.00    -0.216 NA
ATOM      9  N   UNL     1      -1.085   2.464 -23.955  0.00  0.00    -0.323 N 
ATOM     10  H   UNL     1      -1.071   1.485 -23.854  0.00  0.00    +0.148 HD
ATOM     11  C   UNL     1       2.213   3.227 -23.346  0.00  0.00    +0.167 A 
ENDROOT
BRANCH   1  14
ATOM     12  C4* UNL     1       6.419   3.270 -23.127  0.00  0.00    +0.177 C 
ATOM     13  O4* UNL     1       5.298   3.021 -23.736  0.00  0.00    -0.346 OA
ATOM     14  C1* UNL     1       4.413   2.709 -22.836  0.00  0.00    +0.253 C 
ATOM     15  C2* UNL     1       4.987   2.765 -21.672  0.00  0.00    +0.195 C 
ATOM     16  C3* UNL     1       6.227   3.112 -21.851  0.00  0.00    +0.178 C 
BRANCH  15  17
ATOM     17  O2* UNL     1       4.420   2.518 -20.528  0.00  0.00    -0.385 OA
ATOM     18  H2* UNL     1       4.779   3.115 -19.854  0.00  0.00    +0.210 HD
ENDBRANCH  15  17
BRANCH  16  19
ATOM     19  O3* UNL     1       7.118   3.273 -20.918  0.00  0.00    -0.386 OA
ATOM     20  H3* UNL     1       6.979   2.611 -20.222  0.00  0.00    +0.210 HD
ENDBRANCH  16  19
BRANCH  12  21
ATOM     21  C5* UNL     1       7.536   3.617 -23.694  0.00  0.00    +0.190 C 
BRANCH  21  22
ATOM     22  O5* UNL     1       8.615   2.923 -23.483  0.00  0.00    -0.392 OA
ATOM     23  H5* UNL     1       8.884   2.485 -24.306  0.00  0.00    +0.210 HD
ENDBRANCH  21  22
ENDBRANCH  12  21
ENDBRANCH   1  14
BRANCH   9  24
ATOM     24  C   UNL     1      -2.196   3.072 -24.246  0.00  0.00    +0.138 C 
BRANCH  24  25
ATOM     25  C   UNL     1      -3.174   3.086 -23.390  0.00  0.00    -0.030 A 
ATOM     26  C   UNL     1      -4.334   3.558 -23.735  0.00  0.00    +0.005 A 
ATOM     27  C   UNL     1      -5.312   3.571 -22.879  0.00  0.00    +0.000 A 
ATOM     28  C   UNL     1      -5.129   3.113 -21.676  0.00  0.00    +0.000 A 
ATOM     29  C   UNL     1      -3.968   2.641 -21.330  0.00  0.00    +0.000 A 
ATOM     30  C   UNL     1      -2.990   2.627 -22.186  0.00  0.00    +0.005 A 
ENDBRANCH  24  25
ENDBRANCH   9  24
TORSDOF 7
ENDMDL
MODEL 2
REMARK VINA RESULT:    -9.401      1.250      2.384
REMARK INTER + INTRA:         -13.256
REMARK INTER:                 -12.589
REMARK INTRA:                  -0.667
REMARK UNBOUND:                -0.832
REMARK  Name = ZINC000004257487
REMARK  7 active torsions:
REMARK  status: ('A' for Active; 'I' for Inactive)
REMARK    1  A    between atoms: O5*_1  and  C5*_2
REMARK    2  A    between atoms: C5*_2  and  C4*_3
REMARK    3  A    between atoms: C1*_5  and  N_6
REMARK    4  A    between atoms: N_11  and  C_12
REMARK    5  A    between atoms: C_12  and  C_13
REMARK    6  A    between atoms: C2*_23  and  O2*_24
REMARK    7  A    between atoms: C3*_25  and  O3*_26
REMARK                            x       y       z     vdW  Elec       q    Type
REMARK                         _______ _______ _______ _____ _____    ______ ____
ROOT
ATOM      1  N   UNL     1       3.322   4.018 -22.930  0.00  0.00    -0.286 N 
ATOM      2  C   UNL     1       2.681   5.072 -23.337  0.00  0.00    +0.203 A 
ATOM      3  N   UNL     1       1.412   4.787 -23.364  0.00  0.00    -0.231 NA
ATOM      4  C   UNL     1       1.270   3.555 -22.973  0.00  0.00    +0.147 A 
ATOM      5  C   UNL     1       0.218   2.805 -22.826  0.00  0.00    +0.150 A 
ATOM      6  N   UNL     1       0.346   1.580 -22.411  0.00  0.00    -0.219 NA
ATOM      7  C   UNL     1       1.526   1.104 -22.143  0.00  0.00    +0.225 A 
ATOM      8  N   UNL     1       2.578   1.855 -22.290  0.00  0.00    -0.216 NA
ATOM      9  N   UNL     1      -0.962   3.280 -23.094  0.00  0.00    -0.323 N 
ATOM     10  H   UNL     1      -1.059   4.209 -23.409  0.00  0.00    +0.148 HD
ATOM     11  C   UNL     1       2.450   3.080 -22.704  0.00  0.00    +0.167 A 
ENDROOT
BRANCH   1  14
ATOM     12  C4* UNL     1       6.569   4.222 -22.074  0.00  0.00    +0.177 C 
ATOM     13  O4* UNL     1       5.332   4.601 -21.938  0.00  0.00    -0.346 OA
ATOM     14  C1* UNL     1       4.608   3.917 -22.774  0.00  0.00    +0.253 C 
ATOM     15  C2* UNL     1       5.397   3.117 -23.427  0.00  0.00    +0.195 C 
ATOM     16  C3* UNL     1       6.609   3.305 -22.995  0.00  0.00    +0.178 C 
BRANCH  15  17
ATOM     17  O2* UNL     1       5.038   2.276 -24.351  0.00  0.00    -0.385 OA
ATOM     18  H2* UNL     1       5.282   1.377 -24.082  0.00  0.00    +0.210 HD
ENDBRANCH  15  17
BRANCH  16  19
ATOM     19  O3* UNL     1       7.673   2.685 -23.410  0.00  0.00    -0.386 OA
ATOM     20  H3* UNL     1       7.930   3.033 -24.279  0.00  0.00    +0.210 HD
ENDBRANCH  16  19
BRANCH  12  21
ATOM     21  C5* UNL     1       7.586   4.680 -21.407  0.00  0.00    +0.190 C 
BRANCH  21  22
ATOM     22  O5* UNL     1       7.683   4.451 -20.131  0.00  0.00    -0.392 OA
ATOM     23  H5* UNL     1       8.618   4.371 -19.888  0.00  0.00    +0.210 HD
ENDBRANCH  21  22
ENDBRANCH  12  21
ENDBRANCH   1  14
BRANCH   9  24
ATOM     24  C   UNL     1      -2.013   2.530 -22.948  0.00  0.00    +0.138 C 
BRANCH  24  25
ATOM     25  C   UNL     1      -3.192   3.001 -23.230  0.00  0.00    -0.030 A 
ATOM     26  C   UNL     1      -3.441   3.460 -24.420  0.00  0.00    +0.005 A 
ATOM     27  C   UNL     1      -4.619   3.931 -24.701  0.00  0.00    +0.000 A 
ATOM     28  C   UNL     1      -5.549   3.944 -23.793  0.00  0.00    +0.000 A 
ATOM     29  C   UNL     1      -5.300   3.485 -22.602  0.00  0.00    +0.000 A 
ATOM     30  C   UNL     1      -4.121   3.014 -22.320  0.00  0.00    +0.005 A 
ENDBRANCH  24  25
ENDBRANCH   9  24
TORSDOF 7
ENDMDL
MODEL 3
REMARK VINA RESULT:    -8.599      1.249      2.330
REMARK INTER + INTRA:         -12.196
REMARK INTER:                 -11.943
REMARK INTRA:                  -0.252
REMARK UNBOUND:                -0.832
REMARK  Name = ZINC000004257487
REMARK  7 active torsions:
REMARK  status: ('A' for Active; 'I' for Inactive)
REMARK    1  A    between atoms: O5*_1  and  C5*_2
REMARK    2  A    between atoms: C5*_2  and  C4*_3
REMARK    3  A    between atoms: C1*_5  and  N_6
REMARK    4  A    between atoms: N_11  and  C_12
REMARK    5  A    between atoms: C_12  and  C_13
REMARK    6  A    between atoms: C2*_23  and  O2*_24
REMARK    7  A    between atoms: C3*_25  and  O3*_26
REMARK                            x       y       z     vdW  Elec       q    Type
REMARK                         _______ _______ _______ _____ _____    ______ ____
ROOT
ATOM      1  N   UNL     1       2.555   2.466 -22.571  0.00  0.00    -0.286 N 
ATOM      2  C   UNL     1       2.048   1.302 -22.294  0.00  0.00    +0.203 A 
ATOM      3  N   UNL     1       0.753   1.417 -22.291  0.00  0.00    -0.231 NA
ATOM      4  C   UNL     1       0.459   2.654 -22.565  0.00  0.00    +0.147 A 
ATOM      5  C   UNL     1      -0.678   3.274 -22.680  0.00  0.00    +0.150 A 
ATOM      6  N   UNL     1      -0.702   4.541 -22.968  0.00  0.00    -0.219 NA
ATOM      7  C   UNL     1       0.412   5.189 -23.141  0.00  0.00    +0.225 A 
ATOM      8  N   UNL     1       1.549   4.570 -23.026  0.00  0.00    -0.216 NA
ATOM      9  N   UNL     1      -1.792   2.625 -22.507  0.00  0.00    -0.323 N 
ATOM     10  H   UNL     1      -1.773   1.665 -22.290  0.00  0.00    +0.148 HD
ATOM     11  C   UNL     1       1.573   3.302 -22.738  0.00  0.00    +0.167 A 
ENDROOT
BRANCH   1  14
ATOM     12  C4* UNL     1       5.775   3.356 -22.179  0.00  0.00    +0.177 C 
ATOM     13  O4* UNL     1       4.575   3.199 -21.705  0.00  0.00    -0.346 OA
ATOM     14  C1* UNL     1       3.820   2.747 -22.663  0.00  0.00    +0.253 C 
ATOM     15  C2* UNL     1       4.554   2.626 -23.729  0.00  0.00    +0.195 C 
ATOM     16  C3* UNL     1       5.763   3.002 -23.430  0.00  0.00    +0.178 C 
BRANCH  15  17
ATOM     17  O2* UNL     1       4.151   2.202 -24.890  0.00  0.00    -0.385 OA
ATOM     18  H2* UNL     1       3.936   2.961 -25.454  0.00  0.00    +0.210 HD
ENDBRANCH  15  17
BRANCH  16  19
ATOM     19  O3* UNL     1       6.779   3.021 -24.240  0.00  0.00    -0.386 OA
ATOM     20  H3* UNL     1       6.899   2.140 -24.628  0.00  0.00    +0.210 HD
ENDBRANCH  16  19
BRANCH  12  21
ATOM     21  C5* UNL     1       6.806   3.792 -21.519  0.00  0.00    +0.190 C 
BRANCH  21  22
ATOM     22  O5* UNL     1       6.639   4.421 -20.393  0.00  0.00    -0.392 OA
ATOM     23  H5* UNL     1       7.433   4.320 -19.846  0.00  0.00    +0.210 HD
ENDBRANCH  21  22
ENDBRANCH  12  21
ENDBRANCH   1  14
BRANCH   9  24
ATOM     24  C   UNL     1      -2.929   3.244 -22.622  0.00  0.00    +0.138 C 
BRANCH  24  25
ATOM     25  C   UNL     1      -3.538   3.277 -23.770  0.00  0.00    -0.030 A 
ATOM     26  C   UNL     1      -2.947   2.818 -24.833  0.00  0.00    +0.005 A 
ATOM     27  C   UNL     1      -3.556   2.851 -25.981  0.00  0.00    +0.000 A 
ATOM     28  C   UNL     1      -4.756   3.344 -26.066  0.00  0.00    +0.000 A 
ATOM     29  C   UNL     1      -5.347   3.804 -25.003  0.00  0.00    +0.000 A 
ATOM     30  C   UNL     1      -4.738   3.771 -23.855  0.00  0.00    +0.005 A 
ENDBRANCH  24  25
ENDBRANCH   9  24
TORSDOF 7
ENDMDL
MODEL 4
REMARK VINA RESULT:    -8.506      3.561      8.674
REMARK INTER + INTRA:         -12.073
REMARK INTER:                 -11.070
REMARK INTRA:                  -1.003
REMARK UNBOUND:                -0.832
REMARK  Name = ZINC000004257487
REMARK  7 active torsions:
REMARK  status: ('A' for Active; 'I' for Inactive)
REMARK    1  A    between atoms: O5*_1  and  C5*_2
REMARK    2  A    between atoms: C5*_2  and  C4*_3
REMARK    3  A    between atoms: C1*_5  and  N_6
REMARK    4  A    between atoms: N_11  and  C_12
REMARK    5  A    between atoms: C_12  and  C_13
REMARK    6  A    between atoms: C2*_23  and  O2*_24
REMARK    7  A    between atoms: C3*_25  and  O3*_26
REMARK                            x       y       z     vdW  Elec       q    Type
REMARK                         _______ _______ _______ _____ _____    ______ ____
ROOT
ATOM      1  N   UNL     1      -0.061   4.010 -23.580  0.00  0.00    -0.286 N 
ATOM      2  C   UNL     1       0.501   5.181 -23.612  0.00  0.00    +0.203 A 
ATOM      3  N   UNL     1       1.753   5.036 -23.290  0.00  0.00    -0.231 NA
ATOM      4  C   UNL     1       1.964   3.774 -23.059  0.00  0.00    +0.147 A 
ATOM      5  C   UNL     1       3.031   3.119 -22.708  0.00  0.00    +0.150 A 
ATOM      6  N   UNL     1       2.978   1.832 -22.537  0.00  0.00    -0.219 NA
ATOM      7  C   UNL     1       1.857   1.198 -22.716  0.00  0.00    +0.225 A 
ATOM      8  N   UNL     1       0.789   1.853 -23.066  0.00  0.00    -0.216 NA
ATOM      9  N   UNL     1       4.152   3.753 -22.530  0.00  0.00    -0.323 N 
ATOM     10  H   UNL     1       4.192   4.729 -22.660  0.00  0.00    +0.148 HD
ATOM     11  C   UNL     1       0.843   3.140 -23.238  0.00  0.00    +0.167 A 
ENDROOT
BRANCH   1  14
ATOM     12  C4* UNL     1      -3.379   3.461 -23.623  0.00  0.00    +0.177 C 
ATOM     13  O4* UNL     1      -2.288   3.769 -22.988  0.00  0.00    -0.346 OA
ATOM     14  C1* UNL     1      -1.308   3.753 -23.843  0.00  0.00    +0.253 C 
ATOM     15  C2* UNL     1      -1.794   3.436 -25.005  0.00  0.00    +0.195 C 
ATOM     16  C3* UNL     1      -3.075   3.255 -24.870  0.00  0.00    +0.178 C 
BRANCH  15  17
ATOM     17  O2* UNL     1      -1.119   3.319 -26.110  0.00  0.00    -0.385 OA
ATOM     18  H2* UNL     1      -1.674   2.900 -26.786  0.00  0.00    +0.210 HD
ENDBRANCH  15  17
BRANCH  16  19
ATOM     19  O3* UNL     1      -3.904   2.926 -25.815  0.00  0.00    -0.386 OA
ATOM     20  H3* UNL     1      -4.811   2.954 -25.472  0.00  0.00    +0.210 HD
ENDBRANCH  16  19
BRANCH  12  21
ATOM     21  C5* UNL     1      -4.567   3.375 -23.103  0.00  0.00    +0.190 C 
BRANCH  21  22
ATOM     22  O5* UNL     1      -5.541   4.091 -23.582  0.00  0.00    -0.392 OA
ATOM     23  H5* UNL     1      -5.681   4.865 -23.016  0.00  0.00    +0.210 HD
ENDBRANCH  21  22
ENDBRANCH  12  21
ENDBRANCH   1  14
BRANCH   9  24
ATOM     24  C   UNL     1       5.220   3.100 -22.179  0.00  0.00    +0.138 C 
BRANCH  24  25
ATOM     25  C   UNL     1       6.367   3.709 -22.127  0.00  0.00    -0.030 A 
ATOM     26  C   UNL     1       6.819   4.147 -20.990  0.00  0.00    +0.005 A 
ATOM     27  C   UNL     1       7.966   4.756 -20.937  0.00  0.00    +0.000 A 
ATOM     28  C   UNL     1       8.661   4.927 -22.022  0.00  0.00    +0.000 A 
ATOM     29  C   UNL     1       8.210   4.489 -23.160  0.00  0.00    +0.000 A 
ATOM     30  C   UNL     1       7.062   3.880 -23.212  0.00  0.00    +0.005 A 
ENDBRANCH  24  25
ENDBRANCH   9  24
TORSDOF 7
ENDMDL
MODEL 5
REMARK VINA RESULT:    -8.433      3.886      8.219
REMARK INTER + INTRA:         -11.976
REMARK INTER:                 -11.661
REMARK INTRA:                  -0.315
REMARK UNBOUND:                -0.832
REMARK  Name = ZINC000004257487
REMARK  7 active torsions:
REMARK  status: ('A' for Active; 'I' for Inactive)
REMARK    1  A    between atoms: O5*_1  and  C5*_2
REMARK    2  A    between atoms: C5*_2  and  C4*_3
REMARK    3  A    between atoms: C1*_5  and  N_6
REMARK    4  A    between atoms: N_11  and  C_12
REMARK    5  A    between atoms: C_12  and  C_13
REMARK    6  A    between atoms: C2*_23  and  O2*_24
REMARK    7  A    between atoms: C3*_25  and  O3*_26
REMARK                            x       y       z     vdW  Elec       q    Type
REMARK                         _______ _______ _______ _____ _____    ______ ____
ROOT
ATOM      1  N   UNL     1      -1.281   2.440 -22.943  0.00  0.00    -0.286 N 
ATOM      2  C   UNL     1      -0.879   1.474 -22.172  0.00  0.00    +0.203 A 
ATOM      3  N   UNL     1       0.410   1.362 -22.306  0.00  0.00    -0.231 NA
ATOM      4  C   UNL     1       0.804   2.260 -23.160  0.00  0.00    +0.147 A 
ATOM      5  C   UNL     1       1.979   2.557 -23.631  0.00  0.00    +0.150 A 
ATOM      6  N   UNL     1       2.109   3.520 -24.494  0.00  0.00    -0.219 NA
ATOM      7  C   UNL     1       1.064   4.185 -24.888  0.00  0.00    +0.225 A 
ATOM      8  N   UNL     1      -0.111   3.888 -24.417  0.00  0.00    -0.216 NA
ATOM      9  N   UNL     1       3.024   1.891 -23.237  0.00  0.00    -0.323 N 
ATOM     10  H   UNL     1       2.925   1.162 -22.582  0.00  0.00    +0.148 HD
ATOM     11  C   UNL     1      -0.241   2.926 -23.554  0.00  0.00    +0.167 A 
ENDROOT
BRANCH   1  14
ATOM     12  C4* UNL     1      -4.317   3.493 -23.937  0.00  0.00    +0.177 C 
ATOM     13  O4* UNL     1      -3.103   3.113 -24.205  0.00  0.00    -0.346 OA
ATOM     14  C1* UNL     1      -2.507   2.849 -23.080  0.00  0.00    +0.253 C 
ATOM     15  C2* UNL     1      -3.353   3.066 -22.117  0.00  0.00    +0.195 C 
ATOM     16  C3* UNL     1      -4.472   3.464 -22.646  0.00  0.00    +0.178 C 
BRANCH  15  17
ATOM     17  O2* UNL     1      -3.120   2.912 -20.847  0.00  0.00    -0.385 OA
ATOM     18  H2* UNL     1      -3.943   3.038 -20.350  0.00  0.00    +0.210 HD
ENDBRANCH  15  17
BRANCH  16  19
ATOM     19  O3* UNL     1      -5.554   3.778 -21.999  0.00  0.00    -0.386 OA
ATOM     20  H3* UNL     1      -5.458   3.523 -21.067  0.00  0.00    +0.210 HD
ENDBRANCH  16  19
BRANCH  12  21
ATOM     21  C5* UNL     1      -5.218   3.841 -24.806  0.00  0.00    +0.190 C 
BRANCH  21  22
ATOM     22  O5* UNL     1      -4.880   4.542 -25.847  0.00  0.00    -0.392 OA
ATOM     23  H5* UNL     1      -4.078   5.049 -25.648  0.00  0.00    +0.210 HD
ENDBRANCH  21  22
ENDBRANCH  12  21
ENDBRANCH   1  14
BRANCH   9  24
ATOM     24  C   UNL     1       4.199   2.188 -23.707  0.00  0.00    +0.138 C 
BRANCH  24  25
ATOM     25  C   UNL     1       5.085   2.747 -22.937  0.00  0.00    -0.030 A 
ATOM     26  C   UNL     1       5.158   2.415 -21.683  0.00  0.00    +0.005 A 
ATOM     27  C   UNL     1       6.044   2.974 -20.913  0.00  0.00    +0.000 A 
ATOM     28  C   UNL     1       6.856   3.866 -21.398  0.00  0.00    +0.000 A 
ATOM     29  C   UNL     1       6.783   4.199 -22.653  0.00  0.00    +0.000 A 
ATOM     30  C   UNL     1       5.897   3.639 -23.423  0.00  0.00    +0.005 A 
ENDBRANCH  24  25
ENDBRANCH   9  24
TORSDOF 7
ENDMDL
MODEL 6
REMARK VINA RESULT:    -8.176      3.577      8.537
REMARK INTER + INTRA:         -11.637
REMARK INTER:                 -10.653
REMARK INTRA:                  -0.984
REMARK UNBOUND:                -0.832
REMARK  Name = ZINC000004257487
REMARK  7 active torsions:
REMARK  status: ('A' for Active; 'I' for Inactive)
REMARK    1  A    between atoms: O5*_1  and  C5*_2
REMARK    2  A    between atoms: C5*_2  and  C4*_3
REMARK    3  A    between atoms: C1*_5  and  N_6
REMARK    4  A    between atoms: N_11  and  C_12
REMARK    5  A    between atoms: C_12  and  C_13
REMARK    6  A    between atoms: C2*_23  and  O2*_24
REMARK    7  A    between atoms: C3*_25  and  O3*_26
REMARK                            x       y       z     vdW  Elec       q    Type
REMARK                         _______ _______ _______ _____ _____    ______ ____
ROOT
ATOM      1  N   UNL     1       0.020   4.034 -23.656  0.00  0.00    -0.286 N 
ATOM      2  C   UNL     1       0.565   5.213 -23.609  0.00  0.00    +0.203 A 
ATOM      3  N   UNL     1       1.815   5.065 -23.279  0.00  0.00    -0.231 NA
ATOM      4  C   UNL     1       2.041   3.795 -23.122  0.00  0.00    +0.147 A 
ATOM      5  C   UNL     1       3.113   3.135 -22.797  0.00  0.00    +0.150 A 
ATOM      6  N   UNL     1       3.077   1.839 -22.705  0.00  0.00    -0.219 NA
ATOM      7  C   UNL     1       1.968   1.202 -22.938  0.00  0.00    +0.225 A 
ATOM      8  N   UNL     1       0.895   1.861 -23.263  0.00  0.00    -0.216 NA
ATOM      9  N   UNL     1       4.222   3.772 -22.564  0.00  0.00    -0.323 N 
ATOM     10  H   UNL     1       4.250   4.755 -22.634  0.00  0.00    +0.148 HD
ATOM     11  C   UNL     1       0.932   3.157 -23.355  0.00  0.00    +0.167 A 
ENDROOT
BRANCH   1  14
ATOM     12  C4* UNL     1      -2.959   3.293 -25.031  0.00  0.00    +0.177 C 
ATOM     13  O4* UNL     1      -1.678   3.485 -25.134  0.00  0.00    -0.346 OA
ATOM     14  C1* UNL     1      -1.219   3.776 -23.952  0.00  0.00    +0.253 C 
ATOM     15  C2* UNL     1      -2.217   3.764 -23.120  0.00  0.00    +0.195 C 
ATOM     16  C3* UNL     1      -3.293   3.465 -23.786  0.00  0.00    +0.178 C 
BRANCH  15  17
ATOM     17  O2* UNL     1      -2.152   4.008 -21.845  0.00  0.00    -0.385 OA
ATOM     18  H2* UNL     1      -1.227   4.154 -21.591  0.00  0.00    +0.210 HD
ENDBRANCH  15  17
BRANCH  16  19
ATOM     19  O3* UNL     1      -4.491   3.358 -23.294  0.00  0.00    -0.386 OA
ATOM     20  H3* UNL     1      -4.692   2.422 -23.135  0.00  0.00    +0.210 HD
ENDBRANCH  16  19
BRANCH  12  21
ATOM     21  C5* UNL     1      -3.766   2.983 -26.002  0.00  0.00    +0.190 C 
BRANCH  21  22
ATOM     22  O5* UNL     1      -4.981   3.443 -26.009  0.00  0.00    -0.392 OA
ATOM     23  H5* UNL     1      -5.506   2.980 -25.338  0.00  0.00    +0.210 HD
ENDBRANCH  21  22
ENDBRANCH  12  21
ENDBRANCH   1  14
BRANCH   9  24
ATOM     24  C   UNL     1       5.295   3.114 -22.240  0.00  0.00    +0.138 C 
BRANCH  24  25
ATOM     25  C   UNL     1       6.438   3.728 -22.170  0.00  0.00    -0.030 A 
ATOM     26  C   UNL     1       7.157   3.886 -23.241  0.00  0.00    +0.005 A 
ATOM     27  C   UNL     1       8.301   4.500 -23.172  0.00  0.00    +0.000 A 
ATOM     28  C   UNL     1       8.726   4.955 -22.031  0.00  0.00    +0.000 A 
ATOM     29  C   UNL     1       8.008   4.797 -20.959  0.00  0.00    +0.000 A 
ATOM     30  C   UNL     1       6.864   4.183 -21.028  0.00  0.00    +0.005 A 
ENDBRANCH  24  25
ENDBRANCH   9  24
TORSDOF 7
ENDMDL
MODEL 7
REMARK VINA RESULT:    -7.825      3.512      8.206
REMARK INTER + INTRA:         -11.174
REMARK INTER:                 -10.466
REMARK INTRA:                  -0.708
REMARK UNBOUND:                -0.832
REMARK  Name = ZINC000004257487
REMARK  7 active torsions:
REMARK  status: ('A' for Active; 'I' for Inactive)
REMARK    1  A    between atoms: O5*_1  and  C5*_2
REMARK    2  A    between atoms: C5*_2  and  C4*_3
REMARK    3  A    between atoms: C1*_5  and  N_6
REMARK    4  A    between atoms: N_11  and  C_12
REMARK    5  A    between atoms: C_12  and  C_13
REMARK    6  A    between atoms: C2*_23  and  O2*_24
REMARK    7  A    between atoms: C3*_25  and  O3*_26
REMARK                            x       y       z     vdW  Elec       q    Type
REMARK                         _______ _______ _______ _____ _____    ______ ____
ROOT
ATOM      1  N   UNL     1       0.289   2.467 -22.501  0.00  0.00    -0.286 N 
ATOM      2  C   UNL     1       0.944   1.413 -22.114  0.00  0.00    +0.203 A 
ATOM      3  N   UNL     1       2.214   1.655 -22.253  0.00  0.00    -0.231 NA
ATOM      4  C   UNL     1       2.344   2.859 -22.725  0.00  0.00    +0.147 A 
ATOM      5  C   UNL     1       3.392   3.564 -23.035  0.00  0.00    +0.150 A 
ATOM      6  N   UNL     1       3.250   4.770 -23.498  0.00  0.00    -0.219 NA
ATOM      7  C   UNL     1       2.061   5.272 -23.652  0.00  0.00    +0.225 A 
ATOM      8  N   UNL     1       1.013   4.567 -23.341  0.00  0.00    -0.216 NA
ATOM      9  N   UNL     1       4.581   3.062 -22.881  0.00  0.00    -0.323 N 
ATOM     10  H   UNL     1       4.688   2.148 -22.530  0.00  0.00    +0.148 HD
ATOM     11  C   UNL     1       1.155   3.361 -22.878  0.00  0.00    +0.167 A 
ENDROOT
BRANCH   1  14
ATOM     12  C4* UNL     1      -2.998   2.801 -21.871  0.00  0.00    +0.177 C 
ATOM     13  O4* UNL     1      -1.772   2.662 -21.462  0.00  0.00    -0.346 OA
ATOM     14  C1* UNL     1      -1.003   2.604 -22.509  0.00  0.00    +0.253 C 
ATOM     15  C2* UNL     1      -1.754   2.707 -23.564  0.00  0.00    +0.195 C 
ATOM     16  C3* UNL     1      -2.988   2.829 -23.170  0.00  0.00    +0.178 C 
BRANCH  15  17
ATOM     17  O2* UNL     1      -1.345   2.691 -24.798  0.00  0.00    -0.385 OA
ATOM     18  H2* UNL     1      -1.628   1.867 -25.222  0.00  0.00    +0.210 HD
ENDBRANCH  15  17
BRANCH  16  19
ATOM     19  O3* UNL     1      -4.027   2.957 -23.940  0.00  0.00    -0.386 OA
ATOM     20  H3* UNL     1      -3.975   2.310 -24.661  0.00  0.00    +0.210 HD
ENDBRANCH  16  19
BRANCH  12  21
ATOM     21  C5* UNL     1      -4.050   2.896 -21.113  0.00  0.00    +0.190 C 
BRANCH  21  22
ATOM     22  O5* UNL     1      -5.011   3.709 -21.435  0.00  0.00    -0.392 OA
ATOM     23  H5* UNL     1      -4.642   4.584 -21.631  0.00  0.00    +0.210 HD
ENDBRANCH  21  22
ENDBRANCH  12  21
ENDBRANCH   1  14
BRANCH   9  24
ATOM     24  C   UNL     1       5.629   3.766 -23.191  0.00  0.00    +0.138 C 
BRANCH  24  25
ATOM     25  C   UNL     1       6.221   4.484 -22.284  0.00  0.00    -0.030 A 
ATOM     26  C   UNL     1       6.685   3.919 -21.209  0.00  0.00    +0.005 A 
ATOM     27  C   UNL     1       7.278   4.637 -20.301  0.00  0.00    +0.000 A 
ATOM     28  C   UNL     1       7.407   5.919 -20.469  0.00  0.00    +0.000 A 
ATOM     29  C   UNL     1       6.943   6.485 -21.544  0.00  0.00    +0.000 A 
ATOM     30  C   UNL     1       6.350   5.767 -22.451  0.00  0.00    +0.005 A 
ENDBRANCH  24  25
ENDBRANCH   9  24
TORSDOF 7
ENDMDL
MODEL 8
REMARK VINA RESULT:    -7.814      1.642      2.043
REMARK INTER + INTRA:         -11.159
REMARK INTER:                 -10.327
REMARK INTRA:                  -0.832
REMARK UNBOUND:                -0.832
REMARK  Name = ZINC000004257487
REMARK  7 active torsions:
REMARK  status: ('A' for Active; 'I' for Inactive)
REMARK    1  A    between atoms: O5*_1  and  C5*_2
REMARK    2  A    between atoms: C5*_2  and  C4*_3
REMARK    3  A    between atoms: C1*_5  and  N_6
REMARK    4  A    between atoms: N_11  and  C_12
REMARK    5  A    between atoms: C_12  and  C_13
REMARK    6  A    between atoms: C2*_23  and  O2*_24
REMARK    7  A    between atoms: C3*_25  and  O3*_26
REMARK                            x       y       z     vdW  Elec       q    Type
REMARK                         _______ _______ _______ _____ _____    ______ ____
ROOT
ATOM      1  N   UNL     1       3.938   3.308 -22.689  0.00  0.00    -0.286 N 
ATOM      2  C   UNL     1       3.773   2.332 -21.847  0.00  0.00    +0.203 A 
ATOM      3  N   UNL     1       2.523   1.974 -21.885  0.00  0.00    -0.231 NA
ATOM      4  C   UNL     1       1.916   2.730 -22.752  0.00  0.00    +0.147 A 
ATOM      5  C   UNL     1       0.680   2.774 -23.153  0.00  0.00    +0.150 A 
ATOM      6  N   UNL     1       0.318   3.643 -24.050  0.00  0.00    -0.219 NA
ATOM      7  C   UNL     1       1.192   4.467 -24.547  0.00  0.00    +0.225 A 
ATOM      8  N   UNL     1       2.429   4.422 -24.146  0.00  0.00    -0.216 NA
ATOM      9  N   UNL     1      -0.195   1.950 -22.656  0.00  0.00    -0.323 N 
ATOM     10  H   UNL     1       0.080   1.293 -21.976  0.00  0.00    +0.148 HD
ATOM     11  C   UNL     1       2.790   3.554 -23.249  0.00  0.00    +0.167 A 
ENDROOT
BRANCH   1  14
ATOM     12  C4* UNL     1       7.032   4.331 -23.522  0.00  0.00    +0.177 C 
ATOM     13  O4* UNL     1       6.131   3.398 -23.428  0.00  0.00    -0.346 OA
ATOM     14  C1* UNL     1       5.054   3.929 -22.930  0.00  0.00    +0.253 C 
ATOM     15  C2* UNL     1       5.289   5.189 -22.716  0.00  0.00    +0.195 C 
ATOM     16  C3* UNL     1       6.512   5.438 -23.082  0.00  0.00    +0.178 C 
BRANCH  15  17
ATOM     17  O2* UNL     1       4.449   6.050 -22.223  0.00  0.00    -0.385 OA
ATOM     18  H2* UNL     1       3.931   6.445 -22.942  0.00  0.00    +0.210 HD
ENDBRANCH  15  17
BRANCH  16  19
ATOM     19  O3* UNL     1       7.108   6.591 -23.018  0.00  0.00    -0.386 OA
ATOM     20  H3* UNL     1       6.583   7.252 -23.496  0.00  0.00    +0.210 HD
ENDBRANCH  16  19
BRANCH  12  21
ATOM     21  C5* UNL     1       8.241   4.183 -23.976  0.00  0.00    +0.190 C 
BRANCH  21  22
ATOM     22  O5* UNL     1       8.669   4.937 -24.944  0.00  0.00    -0.392 OA
ATOM     23  H5* UNL     1       8.483   5.866 -24.735  0.00  0.00    +0.210 HD
ENDBRANCH  21  22
ENDBRANCH  12  21
ENDBRANCH   1  14
BRANCH   9  24
ATOM     24  C   UNL     1      -1.430   1.994 -23.057  0.00  0.00    +0.138 C 
BRANCH  24  25
ATOM     25  C   UNL     1      -2.350   2.478 -22.276  0.00  0.00    -0.030 A 
ATOM     26  C   UNL     1      -2.151   2.531 -20.993  0.00  0.00    +0.005 A 
ATOM     27  C   UNL     1      -3.071   3.015 -20.212  0.00  0.00    +0.000 A 
ATOM     28  C   UNL     1      -4.189   3.446 -20.714  0.00  0.00    +0.000 A 
ATOM     29  C   UNL     1      -4.389   3.394 -21.998  0.00  0.00    +0.000 A 
ATOM     30  C   UNL     1      -3.469   2.910 -22.779  0.00  0.00    +0.005 A 
ENDBRANCH  24  25
ENDBRANCH   9  24
TORSDOF 7
ENDMDL
