MODEL 1
REMARK VINA RESULT:    -7.303      0.000      0.000
REMARK INTER + INTRA:          -7.730
REMARK INTER:                  -7.730
REMARK INTRA:                   0.000
REMARK UNBOUND:                 0.000
REMARK  Name = ZINC000000057908
REMARK  2 active torsions:
REMARK  status: ('A' for Active; 'I' for Inactive)
REMARK    1  A    between atoms: C_7  and  O_8
REMARK    2  A    between atoms: C_9  and  O_10
REMARK                            x       y       z     vdW  Elec       q    Type
REMARK                         _______ _______ _______ _____ _____    ______ ____
ROOT
ATOM      1  O   UNL     1      -3.304   3.392 -19.844  0.00  0.00    -0.245 OA
ATOM      2  C   UNL     1      -3.555   3.436 -21.119  0.00  0.00    +0.337 A 
ATOM      3  C   UNL     1      -4.783   3.509 -21.537  0.00  0.00    +0.092 A 
ATOM      4  C   UNL     1      -5.034   3.554 -22.812  0.00  0.00    +0.018 A 
ATOM      5  C   UNL     1      -4.057   3.526 -23.668  0.00  0.00    +0.021 A 
ATOM      6  C   UNL     1      -4.307   3.570 -24.943  0.00  0.00    +0.060 A 
ATOM      7  C   UNL     1      -3.330   3.542 -25.799  0.00  0.00    +0.159 A 
ATOM      8  C   UNL     1      -2.101   3.469 -25.381  0.00  0.00    +0.162 A 
ATOM      9  C   UNL     1      -1.850   3.425 -24.106  0.00  0.00    +0.096 A 
ATOM     10  C   UNL     1      -2.828   3.453 -23.249  0.00  0.00    +0.143 A 
ATOM     11  O   UNL     1      -2.577   3.408 -21.975  0.00  0.00    -0.422 OA
ENDROOT
BRANCH   8  12
ATOM     12  O   UNL     1      -1.124   3.441 -26.236  0.00  0.00    -0.503 OA
ATOM     13  H   UNL     1      -1.044   2.724 -26.835  0.00  0.00    +0.292 HD
ENDBRANCH   8  12
BRANCH   7  14
ATOM     14  O   UNL     1      -3.581   3.587 -27.074  0.00  0.00    -0.503 OA
ATOM     15  H   UNL     1      -4.157   2.957 -27.461  0.00  0.00    +0.292 HD
ENDBRANCH   7  14
TORSDOF 2
ENDMDL
MODEL 2
REMARK VINA RESULT:    -7.230      1.672      2.407
REMARK INTER + INTRA:          -7.653
REMARK INTER:                  -7.653
REMARK INTRA:                   0.000
REMARK UNBOUND:                 0.000
REMARK  Name = ZINC000000057908
REMARK  2 active torsions:
REMARK  status: ('A' for Active; 'I' for Inactive)
REMARK    1  A    between atoms: C_7  and  O_8
REMARK    2  A    between atoms: C_9  and  O_10
REMARK                            x       y       z     vdW  Elec       q    Type
REMARK                         _______ _______ _______ _____ _____    ______ ____
ROOT
ATOM      1  O   UNL     1      -5.960   3.264 -21.750  0.00  0.00    -0.245 OA
ATOM      2  C   UNL     1      -4.985   3.363 -22.605  0.00  0.00    +0.337 A 
ATOM      3  C   UNL     1      -5.176   3.961 -23.743  0.00  0.00    +0.092 A 
ATOM      4  C   UNL     1      -4.202   4.060 -24.597  0.00  0.00    +0.018 A 
ATOM      5  C   UNL     1      -3.036   3.561 -24.313  0.00  0.00    +0.021 A 
ATOM      6  C   UNL     1      -2.060   3.660 -25.167  0.00  0.00    +0.060 A 
ATOM      7  C   UNL     1      -0.894   3.161 -24.883  0.00  0.00    +0.159 A 
ATOM      8  C   UNL     1      -0.703   2.563 -23.745  0.00  0.00    +0.162 A 
ATOM      9  C   UNL     1      -1.677   2.464 -22.891  0.00  0.00    +0.096 A 
ATOM     10  C   UNL     1      -2.844   2.963 -23.175  0.00  0.00    +0.143 A 
ATOM     11  O   UNL     1      -3.819   2.864 -22.320  0.00  0.00    -0.422 OA
ENDROOT
BRANCH   8  12
ATOM     12  O   UNL     1       0.463   2.064 -23.461  0.00  0.00    -0.503 OA
ATOM     13  H   UNL     1       1.059   2.544 -22.918  0.00  0.00    +0.292 HD
ENDBRANCH   8  12
BRANCH   7  14
ATOM     14  O   UNL     1       0.081   3.260 -25.737  0.00  0.00    -0.503 OA
ATOM     15  H   UNL     1       0.949   3.008 -25.490  0.00  0.00    +0.292 HD
ENDBRANCH   7  14
TORSDOF 2
ENDMDL
MODEL 3
REMARK VINA RESULT:    -7.164      1.701      2.609
REMARK INTER + INTRA:          -7.583
REMARK INTER:                  -7.583
REMARK INTRA:                   0.000
REMARK UNBOUND:                 0.000
REMARK  Name = ZINC000000057908
REMARK  2 active torsions:
REMARK  status: ('A' for Active; 'I' for Inactive)
REMARK    1  A    between atoms: C_7  and  O_8
REMARK    2  A    between atoms: C_9  and  O_10
REMARK                            x       y       z     vdW  Elec       q    Type
REMARK                         _______ _______ _______ _____ _____    ______ ____
ROOT
ATOM      1  O   UNL     1      -6.312   3.375 -21.827  0.00  0.00    -0.245 OA
ATOM      2  C   UNL     1      -5.060   3.125 -22.068  0.00  0.00    +0.337 A 
ATOM      3  C   UNL     1      -4.305   2.625 -21.136  0.00  0.00    +0.092 A 
ATOM      4  C   UNL     1      -3.053   2.375 -21.378  0.00  0.00    +0.018 A 
ATOM      5  C   UNL     1      -2.555   2.625 -22.552  0.00  0.00    +0.021 A 
ATOM      6  C   UNL     1      -1.302   2.375 -22.794  0.00  0.00    +0.060 A 
ATOM      7  C   UNL     1      -0.805   2.625 -23.969  0.00  0.00    +0.159 A 
ATOM      8  C   UNL     1      -1.560   3.125 -24.901  0.00  0.00    +0.162 A 
ATOM      9  C   UNL     1      -2.812   3.375 -24.660  0.00  0.00    +0.096 A 
ATOM     10  C   UNL     1      -3.310   3.125 -23.485  0.00  0.00    +0.143 A 
ATOM     11  O   UNL     1      -4.563   3.375 -23.243  0.00  0.00    -0.422 OA
ENDROOT
BRANCH   8  12
ATOM     12  O   UNL     1      -1.062   3.375 -26.076  0.00  0.00    -0.503 OA
ATOM     13  H   UNL     1      -0.801   4.248 -26.299  0.00  0.00    +0.292 HD
ENDBRANCH   8  12
BRANCH   7  14
ATOM     14  O   UNL     1       0.448   2.375 -24.210  0.00  0.00    -0.503 OA
ATOM     15  H   UNL     1       1.096   2.553 -23.558  0.00  0.00    +0.292 HD
ENDBRANCH   7  14
TORSDOF 2
ENDMDL
MODEL 4
REMARK VINA RESULT:    -7.071      2.090      3.252
REMARK INTER + INTRA:          -7.485
REMARK INTER:                  -7.485
REMARK INTRA:                   0.000
REMARK UNBOUND:                 0.000
REMARK  Name = ZINC000000057908
REMARK  2 active torsions:
REMARK  status: ('A' for Active; 'I' for Inactive)
REMARK    1  A    between atoms: C_7  and  O_8
REMARK    2  A    between atoms: C_9  and  O_10
REMARK                            x       y       z     vdW  Elec       q    Type
REMARK                         _______ _______ _______ _____ _____    ______ ____
ROOT
ATOM      1  O   UNL     1       0.952   1.868 -23.247  0.00  0.00    -0.245 OA
ATOM      2  C   UNL     1      -0.290   2.226 -23.110  0.00  0.00    +0.337 A 
ATOM      3  C   UNL     1      -0.862   2.155 -21.945  0.00  0.00    +0.092 A 
ATOM      4  C   UNL     1      -2.104   2.513 -21.808  0.00  0.00    +0.018 A 
ATOM      5  C   UNL     1      -2.774   2.942 -22.837  0.00  0.00    +0.021 A 
ATOM      6  C   UNL     1      -4.017   3.300 -22.700  0.00  0.00    +0.060 A 
ATOM      7  C   UNL     1      -4.686   3.728 -23.728  0.00  0.00    +0.159 A 
ATOM      8  C   UNL     1      -4.114   3.799 -24.893  0.00  0.00    +0.162 A 
ATOM      9  C   UNL     1      -2.872   3.441 -25.030  0.00  0.00    +0.096 A 
ATOM     10  C   UNL     1      -2.202   3.012 -24.002  0.00  0.00    +0.143 A 
ATOM     11  O   UNL     1      -0.960   2.654 -24.139  0.00  0.00    -0.422 OA
ENDROOT
BRANCH   8  12
ATOM     12  O   UNL     1      -4.784   4.227 -25.922  0.00  0.00    -0.503 OA
ATOM     13  H   UNL     1      -4.988   3.642 -26.626  0.00  0.00    +0.292 HD
ENDBRANCH   8  12
BRANCH   7  14
ATOM     14  O   UNL     1      -5.928   4.086 -23.591  0.00  0.00    -0.503 OA
ATOM     15  H   UNL     1      -6.140   4.887 -23.154  0.00  0.00    +0.292 HD
ENDBRANCH   7  14
TORSDOF 2
ENDMDL
MODEL 5
REMARK VINA RESULT:    -6.908      2.074      3.303
REMARK INTER + INTRA:          -7.311
REMARK INTER:                  -7.311
REMARK INTRA:                   0.000
REMARK UNBOUND:                 0.000
REMARK  Name = ZINC000000057908
REMARK  2 active torsions:
REMARK  status: ('A' for Active; 'I' for Inactive)
REMARK    1  A    between atoms: C_7  and  O_8
REMARK    2  A    between atoms: C_9  and  O_10
REMARK                            x       y       z     vdW  Elec       q    Type
REMARK                         _______ _______ _______ _____ _____    ______ ____
ROOT
ATOM      1  O   UNL     1       0.028   1.151 -20.941  0.00  0.00    -0.245 OA
ATOM      2  C   UNL     1      -0.556   1.911 -21.819  0.00  0.00    +0.337 A 
ATOM      3  C   UNL     1       0.148   2.506 -22.735  0.00  0.00    +0.092 A 
ATOM      4  C   UNL     1      -0.436   3.266 -23.613  0.00  0.00    +0.018 A 
ATOM      5  C   UNL     1      -1.724   3.430 -23.576  0.00  0.00    +0.021 A 
ATOM      6  C   UNL     1      -2.309   4.191 -24.454  0.00  0.00    +0.060 A 
ATOM      7  C   UNL     1      -3.598   4.355 -24.416  0.00  0.00    +0.159 A 
ATOM      8  C   UNL     1      -4.302   3.760 -23.500  0.00  0.00    +0.162 A 
ATOM      9  C   UNL     1      -3.718   3.000 -22.622  0.00  0.00    +0.096 A 
ATOM     10  C   UNL     1      -2.429   2.835 -22.659  0.00  0.00    +0.143 A 
ATOM     11  O   UNL     1      -1.845   2.075 -21.781  0.00  0.00    -0.422 OA
ENDROOT
BRANCH   8  12
ATOM     12  O   UNL     1      -5.591   3.925 -23.462  0.00  0.00    -0.503 OA
ATOM     13  H   UNL     1      -6.118   3.379 -22.910  0.00  0.00    +0.292 HD
ENDBRANCH   8  12
BRANCH   7  14
ATOM     14  O   UNL     1      -4.182   5.115 -25.294  0.00  0.00    -0.503 OA
ATOM     15  H   UNL     1      -4.507   4.746 -26.092  0.00  0.00    +0.292 HD
ENDBRANCH   7  14
TORSDOF 2
ENDMDL
MODEL 6
REMARK VINA RESULT:    -6.568      2.792      4.173
REMARK INTER + INTRA:          -6.952
REMARK INTER:                  -6.952
REMARK INTRA:                   0.000
REMARK UNBOUND:                 0.000
REMARK  Name = ZINC000000057908
REMARK  2 active torsions:
REMARK  status: ('A' for Active; 'I' for Inactive)
REMARK    1  A    between atoms: C_7  and  O_8
REMARK    2  A    between atoms: C_9  and  O_10
REMARK                            x       y       z     vdW  Elec       q    Type
REMARK                         _______ _______ _______ _____ _____    ______ ____
ROOT
ATOM      1  O   UNL     1       2.069   1.127 -23.022  0.00  0.00    -0.245 OA
ATOM      2  C   UNL     1       0.888   1.514 -22.640  0.00  0.00    +0.337 A 
ATOM      3  C   UNL     1       0.575   1.498 -21.378  0.00  0.00    +0.092 A 
ATOM      4  C   UNL     1      -0.605   1.885 -20.996  0.00  0.00    +0.018 A 
ATOM      5  C   UNL     1      -1.472   2.289 -21.875  0.00  0.00    +0.021 A 
ATOM      6  C   UNL     1      -2.654   2.677 -21.493  0.00  0.00    +0.060 A 
ATOM      7  C   UNL     1      -3.521   3.081 -22.373  0.00  0.00    +0.159 A 
ATOM      8  C   UNL     1      -3.208   3.098 -23.634  0.00  0.00    +0.162 A 
ATOM      9  C   UNL     1      -2.028   2.710 -24.017  0.00  0.00    +0.096 A 
ATOM     10  C   UNL     1      -1.160   2.306 -23.137  0.00  0.00    +0.143 A 
ATOM     11  O   UNL     1       0.021   1.919 -23.519  0.00  0.00    -0.422 OA
ENDROOT
BRANCH   8  12
ATOM     12  O   UNL     1      -4.076   3.502 -24.514  0.00  0.00    -0.503 OA
ATOM     13  H   UNL     1      -4.833   3.982 -24.239  0.00  0.00    +0.292 HD
ENDBRANCH   8  12
BRANCH   7  14
ATOM     14  O   UNL     1      -4.702   3.468 -21.990  0.00  0.00    -0.503 OA
ATOM     15  H   UNL     1      -5.229   3.994 -22.558  0.00  0.00    +0.292 HD
ENDBRANCH   7  14
TORSDOF 2
ENDMDL
MODEL 7
REMARK VINA RESULT:    -6.411      2.054      3.871
REMARK INTER + INTRA:          -6.786
REMARK INTER:                  -6.786
REMARK INTRA:                   0.000
REMARK UNBOUND:                 0.000
REMARK  Name = ZINC000000057908
REMARK  2 active torsions:
REMARK  status: ('A' for Active; 'I' for Inactive)
REMARK    1  A    between atoms: C_7  and  O_8
REMARK    2  A    between atoms: C_9  and  O_10
REMARK                            x       y       z     vdW  Elec       q    Type
REMARK                         _______ _______ _______ _____ _____    ______ ____
ROOT
ATOM      1  O   UNL     1       1.409   2.432 -23.361  0.00  0.00    -0.245 OA
ATOM      2  C   UNL     1       0.194   2.810 -23.626  0.00  0.00    +0.337 A 
ATOM      3  C   UNL     1      -0.065   3.432 -24.738  0.00  0.00    +0.092 A 
ATOM      4  C   UNL     1      -1.280   3.811 -25.003  0.00  0.00    +0.018 A 
ATOM      5  C   UNL     1      -2.236   3.567 -24.157  0.00  0.00    +0.021 A 
ATOM      6  C   UNL     1      -3.452   3.945 -24.422  0.00  0.00    +0.060 A 
ATOM      7  C   UNL     1      -4.407   3.702 -23.575  0.00  0.00    +0.159 A 
ATOM      8  C   UNL     1      -4.148   3.079 -22.464  0.00  0.00    +0.162 A 
ATOM      9  C   UNL     1      -2.933   2.701 -22.199  0.00  0.00    +0.096 A 
ATOM     10  C   UNL     1      -1.977   2.945 -23.045  0.00  0.00    +0.143 A 
ATOM     11  O   UNL     1      -0.762   2.566 -22.780  0.00  0.00    -0.422 OA
ENDROOT
BRANCH   8  12
ATOM     12  O   UNL     1      -5.104   2.835 -21.617  0.00  0.00    -0.503 OA
ATOM     13  H   UNL     1      -5.849   3.402 -21.576  0.00  0.00    +0.292 HD
ENDBRANCH   8  12
BRANCH   7  14
ATOM     14  O   UNL     1      -5.622   4.080 -23.841  0.00  0.00    -0.503 OA
ATOM     15  H   UNL     1      -5.997   3.901 -24.680  0.00  0.00    +0.292 HD
ENDBRANCH   7  14
TORSDOF 2
ENDMDL
MODEL 8
REMARK VINA RESULT:    -6.352      6.301      7.704
REMARK INTER + INTRA:          -6.723
REMARK INTER:                  -6.723
REMARK INTRA:                   0.000
REMARK UNBOUND:                 0.000
REMARK  Name = ZINC000000057908
REMARK  2 active torsions:
REMARK  status: ('A' for Active; 'I' for Inactive)
REMARK    1  A    between atoms: C_7  and  O_8
REMARK    2  A    between atoms: C_9  and  O_10
REMARK                            x       y       z     vdW  Elec       q    Type
REMARK                         _______ _______ _______ _____ _____    ______ ____
ROOT
ATOM      1  O   UNL     1      -0.589   2.081 -21.389  0.00  0.00    -0.245 OA
ATOM      2  C   UNL     1       0.645   1.921 -21.765  0.00  0.00    +0.337 A 
ATOM      3  C   UNL     1       1.040   2.385 -22.914  0.00  0.00    +0.092 A 
ATOM      4  C   UNL     1       2.274   2.225 -23.290  0.00  0.00    +0.018 A 
ATOM      5  C   UNL     1       3.113   1.603 -22.518  0.00  0.00    +0.021 A 
ATOM      6  C   UNL     1       4.348   1.443 -22.893  0.00  0.00    +0.060 A 
ATOM      7  C   UNL     1       5.187   0.820 -22.121  0.00  0.00    +0.159 A 
ATOM      8  C   UNL     1       4.793   0.357 -20.972  0.00  0.00    +0.162 A 
ATOM      9  C   UNL     1       3.559   0.517 -20.596  0.00  0.00    +0.096 A 
ATOM     10  C   UNL     1       2.719   1.140 -21.369  0.00  0.00    +0.143 A 
ATOM     11  O   UNL     1       1.485   1.299 -20.993  0.00  0.00    -0.422 OA
ENDROOT
BRANCH   8  12
ATOM     12  O   UNL     1       5.632  -0.265 -20.199  0.00  0.00    -0.503 OA
ATOM     13  H   UNL     1       5.333  -0.960 -19.645  0.00  0.00    +0.292 HD
ENDBRANCH   8  12
BRANCH   7  14
ATOM     14  O   UNL     1       6.421   0.661 -22.497  0.00  0.00    -0.503 OA
ATOM     15  H   UNL     1       6.905   1.387 -22.838  0.00  0.00    +0.292 HD
ENDBRANCH   7  14
TORSDOF 2
ENDMDL
MODEL 9
REMARK VINA RESULT:    -6.140      2.821      5.012
REMARK INTER + INTRA:          -6.499
REMARK INTER:                  -6.499
REMARK INTRA:                   0.000
REMARK UNBOUND:                 0.000
REMARK  Name = ZINC000000057908
REMARK  2 active torsions:
REMARK  status: ('A' for Active; 'I' for Inactive)
REMARK    1  A    between atoms: C_7  and  O_8
REMARK    2  A    between atoms: C_9  and  O_10
REMARK                            x       y       z     vdW  Elec       q    Type
REMARK                         _______ _______ _______ _____ _____    ______ ____
ROOT
ATOM      1  O   UNL     1       1.813   2.494 -25.547  0.00  0.00    -0.245 OA
ATOM      2  C   UNL     1       0.995   3.051 -24.705  0.00  0.00    +0.337 A 
ATOM      3  C   UNL     1       1.038   4.335 -24.509  0.00  0.00    +0.092 A 
ATOM      4  C   UNL     1       0.220   4.893 -23.667  0.00  0.00    +0.018 A 
ATOM      5  C   UNL     1      -0.642   4.166 -23.021  0.00  0.00    +0.021 A 
ATOM      6  C   UNL     1      -1.461   4.723 -22.178  0.00  0.00    +0.060 A 
ATOM      7  C   UNL     1      -2.323   3.996 -21.532  0.00  0.00    +0.159 A 
ATOM      8  C   UNL     1      -2.367   2.712 -21.728  0.00  0.00    +0.162 A 
ATOM      9  C   UNL     1      -1.548   2.155 -22.570  0.00  0.00    +0.096 A 
ATOM     10  C   UNL     1      -0.686   2.882 -23.217  0.00  0.00    +0.143 A 
ATOM     11  O   UNL     1       0.133   2.324 -24.059  0.00  0.00    -0.422 OA
ENDROOT
BRANCH   8  12
ATOM     12  O   UNL     1      -3.229   1.985 -21.082  0.00  0.00    -0.503 OA
ATOM     13  H   UNL     1      -3.769   2.374 -20.421  0.00  0.00    +0.292 HD
ENDBRANCH   8  12
BRANCH   7  14
ATOM     14  O   UNL     1      -3.141   4.554 -20.690  0.00  0.00    -0.503 OA
ATOM     15  H   UNL     1      -3.809   5.134 -20.998  0.00  0.00    +0.292 HD
ENDBRANCH   7  14
TORSDOF 2
ENDMDL
