MODEL 1
REMARK VINA RESULT:   -12.192      0.000      0.000
REMARK INTER + INTRA:         -12.192
REMARK INTER:                 -12.192
REMARK INTRA:                   0.000
REMARK UNBOUND:                 0.000
REMARK  Name = ZINC000020470300
REMARK  0 active torsions:
REMARK  status: ('A' for Active; 'I' for Inactive)
REMARK                            x       y       z     vdW  Elec       q    Type
REMARK                         _______ _______ _______ _____ _____    ______ ____
ROOT
ATOM      1  C   UNL     1      -2.757   2.383 -21.321  0.00  0.00    +0.008 A 
ATOM      2  C   UNL     1      -3.979   2.781 -21.513  0.00  0.00    +0.050 A 
ATOM      3  C   UNL     1      -4.321   3.303 -22.653  0.00  0.00    +0.167 A 
ATOM      4  C   UNL     1      -3.441   3.427 -23.602  0.00  0.00    +0.175 A 
ATOM      5  O   UNL     1      -4.028   3.970 -24.626  0.00  0.00    -0.452 OA
ATOM      6  C   UNL     1      -5.271   4.182 -24.311  0.00  0.00    +0.466 C 
ATOM      7  C   UNL     1      -2.218   3.029 -23.409  0.00  0.00    +0.046 A 
ATOM      8  C   UNL     1      -1.337   3.153 -24.358  0.00  0.00    +0.172 C 
ATOM      9  N   UNL     1      -0.115   2.755 -24.166  0.00  0.00    +0.244 N 
ATOM     10  H   UNL     1       0.636   2.815 -24.853  0.00  0.00    +0.204 HD
ATOM     11  C   UNL     1       0.766   2.879 -25.114  0.00  0.00    +0.137 C 
ATOM     12  C   UNL     1       1.988   2.481 -24.922  0.00  0.00    +0.086 C 
ATOM     13  C   UNL     1       2.331   1.959 -23.781  0.00  0.00    -0.030 A 
ATOM     14  C   UNL     1       3.553   1.561 -23.589  0.00  0.00    +0.053 A 
ATOM     15  C   UNL     1       3.895   1.039 -22.449  0.00  0.00    +0.167 A 
ATOM     16  O   UNL     1       5.026   0.572 -22.010  0.00  0.00    -0.453 OA
ATOM     17  C   UNL     1       4.845   0.159 -20.791  0.00  0.00    +0.466 C 
ATOM     18  O   UNL     1       3.602   0.371 -20.476  0.00  0.00    -0.453 OA
ATOM     19  C   UNL     1       3.014   0.915 -21.500  0.00  0.00    +0.167 A 
ATOM     20  C   UNL     1       1.792   1.313 -21.693  0.00  0.00    +0.059 A 
ATOM     21  C   UNL     1       1.450   1.835 -22.833  0.00  0.00    +0.008 A 
ATOM     22  C   UNL     1       0.227   2.233 -23.025  0.00  0.00    +0.100 C 
ATOM     23  C   UNL     1      -0.654   2.109 -22.077  0.00  0.00    +0.095 C 
ATOM     24  O   UNL     1      -5.452   3.770 -23.092  0.00  0.00    -0.453 OA
ATOM     25  C   UNL     1      -1.876   2.507 -22.269  0.00  0.00    -0.030 A 
ENDROOT
TORSDOF 0
ENDMDL
MODEL 2
REMARK VINA RESULT:   -10.815      1.089      6.855
REMARK INTER + INTRA:         -10.815
REMARK INTER:                 -10.815
REMARK INTRA:                   0.000
REMARK UNBOUND:                 0.000
REMARK  Name = ZINC000020470300
REMARK  0 active torsions:
REMARK  status: ('A' for Active; 'I' for Inactive)
REMARK                            x       y       z     vdW  Elec       q    Type
REMARK                         _______ _______ _______ _____ _____    ______ ____
ROOT
ATOM      1  C   UNL     1       1.603   1.501 -20.777  0.00  0.00    +0.008 A 
ATOM      2  C   UNL     1       2.867   1.237 -20.629  0.00  0.00    +0.050 A 
ATOM      3  C   UNL     1       3.697   1.466 -21.602  0.00  0.00    +0.167 A 
ATOM      4  C   UNL     1       3.263   1.959 -22.725  0.00  0.00    +0.175 A 
ATOM      5  O   UNL     1       4.280   2.092 -23.524  0.00  0.00    -0.452 OA
ATOM      6  C   UNL     1       5.341   1.682 -22.897  0.00  0.00    +0.466 C 
ATOM      7  C   UNL     1       1.999   2.222 -22.873  0.00  0.00    +0.046 A 
ATOM      8  C   UNL     1       1.565   2.715 -23.995  0.00  0.00    +0.172 C 
ATOM      9  N   UNL     1       0.301   2.978 -24.144  0.00  0.00    +0.244 N 
ATOM     10  H   UNL     1      -0.122   3.364 -24.987  0.00  0.00    +0.204 HD
ATOM     11  C   UNL     1      -0.134   3.470 -25.266  0.00  0.00    +0.137 C 
ATOM     12  C   UNL     1      -1.398   3.734 -25.414  0.00  0.00    +0.086 C 
ATOM     13  C   UNL     1      -2.229   3.504 -24.440  0.00  0.00    -0.030 A 
ATOM     14  C   UNL     1      -3.493   3.768 -24.589  0.00  0.00    +0.053 A 
ATOM     15  C   UNL     1      -4.323   3.538 -23.615  0.00  0.00    +0.167 A 
ATOM     16  O   UNL     1      -5.607   3.709 -23.509  0.00  0.00    -0.453 OA
ATOM     17  C   UNL     1      -5.967   3.323 -22.321  0.00  0.00    +0.466 C 
ATOM     18  O   UNL     1      -4.906   2.913 -21.694  0.00  0.00    -0.453 OA
ATOM     19  C   UNL     1      -3.889   3.046 -22.493  0.00  0.00    +0.167 A 
ATOM     20  C   UNL     1      -2.624   2.783 -22.345  0.00  0.00    +0.059 A 
ATOM     21  C   UNL     1      -1.794   3.012 -23.319  0.00  0.00    +0.008 A 
ATOM     22  C   UNL     1      -0.530   2.749 -23.170  0.00  0.00    +0.100 C 
ATOM     23  C   UNL     1      -0.096   2.256 -22.048  0.00  0.00    +0.095 C 
ATOM     24  O   UNL     1       4.981   1.296 -21.709  0.00  0.00    -0.453 OA
ATOM     25  C   UNL     1       1.168   1.993 -21.899  0.00  0.00    -0.030 A 
ENDROOT
TORSDOF 0
ENDMDL
MODEL 3
REMARK VINA RESULT:   -10.460      1.519      2.721
REMARK INTER + INTRA:         -10.460
REMARK INTER:                 -10.460
REMARK INTRA:                   0.000
REMARK UNBOUND:                 0.000
REMARK  Name = ZINC000020470300
REMARK  0 active torsions:
REMARK  status: ('A' for Active; 'I' for Inactive)
REMARK                            x       y       z     vdW  Elec       q    Type
REMARK                         _______ _______ _______ _____ _____    ______ ____
ROOT
ATOM      1  C   UNL     1      -2.185   4.382 -24.650  0.00  0.00    +0.008 A 
ATOM      2  C   UNL     1      -3.472   4.538 -24.735  0.00  0.00    +0.050 A 
ATOM      3  C   UNL     1      -4.253   3.987 -23.853  0.00  0.00    +0.167 A 
ATOM      4  C   UNL     1      -3.746   3.280 -22.887  0.00  0.00    +0.175 A 
ATOM      5  O   UNL     1      -4.726   2.845 -22.151  0.00  0.00    -0.452 OA
ATOM      6  C   UNL     1      -5.838   3.283 -22.662  0.00  0.00    +0.466 C 
ATOM      7  C   UNL     1      -2.458   3.124 -22.802  0.00  0.00    +0.046 A 
ATOM      8  C   UNL     1      -1.952   2.417 -21.836  0.00  0.00    +0.172 C 
ATOM      9  N   UNL     1      -0.664   2.261 -21.751  0.00  0.00    +0.244 N 
ATOM     10  H   UNL     1      -0.185   1.725 -21.028  0.00  0.00    +0.204 HD
ATOM     11  C   UNL     1      -0.157   1.555 -20.785  0.00  0.00    +0.137 C 
ATOM     12  C   UNL     1       1.131   1.399 -20.700  0.00  0.00    +0.086 C 
ATOM     13  C   UNL     1       1.912   1.950 -21.582  0.00  0.00    -0.030 A 
ATOM     14  C   UNL     1       3.200   1.793 -21.497  0.00  0.00    +0.053 A 
ATOM     15  C   UNL     1       3.980   2.344 -22.379  0.00  0.00    +0.167 A 
ATOM     16  O   UNL     1       5.273   2.343 -22.518  0.00  0.00    -0.453 OA
ATOM     17  C   UNL     1       5.565   3.048 -23.570  0.00  0.00    +0.466 C 
ATOM     18  O   UNL     1       4.453   3.486 -24.081  0.00  0.00    -0.453 OA
ATOM     19  C   UNL     1       3.474   3.051 -23.345  0.00  0.00    +0.167 A 
ATOM     20  C   UNL     1       2.186   3.207 -23.430  0.00  0.00    +0.059 A 
ATOM     21  C   UNL     1       1.405   2.656 -22.548  0.00  0.00    +0.008 A 
ATOM     22  C   UNL     1       0.117   2.812 -22.633  0.00  0.00    +0.100 C 
ATOM     23  C   UNL     1      -0.390   3.519 -23.599  0.00  0.00    +0.095 C 
ATOM     24  O   UNL     1      -5.546   3.988 -23.714  0.00  0.00    -0.453 OA
ATOM     25  C   UNL     1      -1.677   3.675 -23.684  0.00  0.00    -0.030 A 
ENDROOT
TORSDOF 0
ENDMDL
MODEL 4
REMARK VINA RESULT:   -10.420      1.038      7.320
REMARK INTER + INTRA:         -10.420
REMARK INTER:                 -10.420
REMARK INTRA:                   0.000
REMARK UNBOUND:                 0.000
REMARK  Name = ZINC000020470300
REMARK  0 active torsions:
REMARK  status: ('A' for Active; 'I' for Inactive)
REMARK                            x       y       z     vdW  Elec       q    Type
REMARK                         _______ _______ _______ _____ _____    ______ ____
ROOT
ATOM      1  C   UNL     1       2.700   2.922 -24.240  0.00  0.00    +0.008 A 
ATOM      2  C   UNL     1       3.917   2.541 -23.992  0.00  0.00    +0.050 A 
ATOM      3  C   UNL     1       4.169   1.809 -22.948  0.00  0.00    +0.167 A 
ATOM      4  C   UNL     1       3.203   1.457 -22.152  0.00  0.00    +0.175 A 
ATOM      5  O   UNL     1       3.712   0.737 -21.196  0.00  0.00    -0.452 OA
ATOM      6  C   UNL     1       4.991   0.643 -21.402  0.00  0.00    +0.466 C 
ATOM      7  C   UNL     1       1.985   1.839 -22.400  0.00  0.00    +0.046 A 
ATOM      8  C   UNL     1       1.019   1.488 -21.604  0.00  0.00    +0.172 C 
ATOM      9  N   UNL     1      -0.198   1.869 -21.852  0.00  0.00    +0.244 N 
ATOM     10  H   UNL     1      -1.012   1.639 -21.282  0.00  0.00    +0.204 HD
ATOM     11  C   UNL     1      -1.165   1.518 -21.057  0.00  0.00    +0.137 C 
ATOM     12  C   UNL     1      -2.382   1.899 -21.305  0.00  0.00    +0.086 C 
ATOM     13  C   UNL     1      -2.634   2.632 -22.349  0.00  0.00    -0.030 A 
ATOM     14  C   UNL     1      -3.852   3.013 -22.597  0.00  0.00    +0.053 A 
ATOM     15  C   UNL     1      -4.103   3.746 -23.641  0.00  0.00    +0.167 A 
ATOM     16  O   UNL     1      -5.209   4.249 -24.105  0.00  0.00    -0.453 OA
ATOM     17  C   UNL     1      -4.926   4.912 -25.187  0.00  0.00    +0.466 C 
ATOM     18  O   UNL     1      -3.646   4.818 -25.392  0.00  0.00    -0.453 OA
ATOM     19  C   UNL     1      -3.138   4.097 -24.437  0.00  0.00    +0.167 A 
ATOM     20  C   UNL     1      -1.919   3.716 -24.188  0.00  0.00    +0.059 A 
ATOM     21  C   UNL     1      -1.668   2.983 -23.144  0.00  0.00    +0.008 A 
ATOM     22  C   UNL     1      -0.451   2.602 -22.897  0.00  0.00    +0.100 C 
ATOM     23  C   UNL     1       0.516   2.953 -23.692  0.00  0.00    +0.095 C 
ATOM     24  O   UNL     1       5.274   1.305 -22.484  0.00  0.00    -0.453 OA
ATOM     25  C   UNL     1       1.733   2.572 -23.444  0.00  0.00    -0.030 A 
ENDROOT
TORSDOF 0
ENDMDL
MODEL 5
REMARK VINA RESULT:    -9.811      1.423      7.305
REMARK INTER + INTRA:          -9.811
REMARK INTER:                  -9.811
REMARK INTRA:                   0.000
REMARK UNBOUND:                 0.000
REMARK  Name = ZINC000020470300
REMARK  0 active torsions:
REMARK  status: ('A' for Active; 'I' for Inactive)
REMARK                            x       y       z     vdW  Elec       q    Type
REMARK                         _______ _______ _______ _____ _____    ______ ____
ROOT
ATOM      1  C   UNL     1       2.888   4.117 -23.823  0.00  0.00    +0.008 A 
ATOM      2  C   UNL     1       4.152   3.925 -23.591  0.00  0.00    +0.050 A 
ATOM      3  C   UNL     1       4.525   3.007 -22.750  0.00  0.00    +0.167 A 
ATOM      4  C   UNL     1       3.635   2.281 -22.141  0.00  0.00    +0.175 A 
ATOM      5  O   UNL     1       4.259   1.447 -21.363  0.00  0.00    -0.452 OA
ATOM      6  C   UNL     1       5.535   1.657 -21.491  0.00  0.00    +0.466 C 
ATOM      7  C   UNL     1       2.370   2.475 -22.374  0.00  0.00    +0.046 A 
ATOM      8  C   UNL     1       1.479   1.749 -21.765  0.00  0.00    +0.172 C 
ATOM      9  N   UNL     1       0.215   1.942 -21.997  0.00  0.00    +0.244 N 
ATOM     10  H   UNL     1      -0.547   1.420 -21.565  0.00  0.00    +0.204 HD
ATOM     11  C   UNL     1      -0.676   1.217 -21.388  0.00  0.00    +0.137 C 
ATOM     12  C   UNL     1      -1.940   1.410 -21.621  0.00  0.00    +0.086 C 
ATOM     13  C   UNL     1      -2.314   2.328 -22.462  0.00  0.00    -0.030 A 
ATOM     14  C   UNL     1      -3.578   2.521 -22.694  0.00  0.00    +0.053 A 
ATOM     15  C   UNL     1      -3.952   3.439 -23.536  0.00  0.00    +0.167 A 
ATOM     16  O   UNL     1      -5.126   3.825 -23.937  0.00  0.00    -0.453 OA
ATOM     17  C   UNL     1      -4.962   4.789 -24.794  0.00  0.00    +0.466 C 
ATOM     18  O   UNL     1      -3.686   4.998 -24.922  0.00  0.00    -0.453 OA
ATOM     19  C   UNL     1      -3.061   4.164 -24.144  0.00  0.00    +0.167 A 
ATOM     20  C   UNL     1      -1.796   3.971 -23.912  0.00  0.00    +0.059 A 
ATOM     21  C   UNL     1      -1.423   3.053 -23.071  0.00  0.00    +0.008 A 
ATOM     22  C   UNL     1      -0.159   2.860 -22.838  0.00  0.00    +0.100 C 
ATOM     23  C   UNL     1       0.732   3.585 -23.447  0.00  0.00    +0.095 C 
ATOM     24  O   UNL     1       5.700   2.621 -22.348  0.00  0.00    -0.453 OA
ATOM     25  C   UNL     1       1.996   3.393 -23.215  0.00  0.00    -0.030 A 
ENDROOT
TORSDOF 0
ENDMDL
