MODEL 1
REMARK VINA RESULT:    -8.440      0.000      0.000
REMARK INTER + INTRA:         -13.662
REMARK INTER:                 -13.363
REMARK INTRA:                  -0.299
REMARK UNBOUND:                -0.042
REMARK  Name = ZINC000085340902
REMARK  15 active torsions:
REMARK  status: ('A' for Active; 'I' for Inactive)
REMARK    1  A    between atoms: C_1  and  C_2
REMARK    2  A    between atoms: C_2  and  C_3
REMARK    3  A    between atoms: C_3  and  C_4
REMARK    4  A    between atoms: C_4  and  C_5
REMARK    5  A    between atoms: C_5  and  C_6
REMARK    6  A    between atoms: C_6  and  C_7
REMARK    7  A    between atoms: C_7  and  C_8
REMARK    8  A    between atoms: C_8  and  C_9
REMARK    9  A    between atoms: C_9  and  C_10
REMARK   10  A    between atoms: C_10  and  C_11
REMARK   11  A    between atoms: C_11  and  C_12
REMARK   12  A    between atoms: N_16  and  C_17
REMARK   13  A    between atoms: C_18  and  C_19
REMARK   14  A    between atoms: C_23  and  C_24
REMARK   15  A    between atoms: C_26  and  O_27
REMARK                            x       y       z     vdW  Elec       q    Type
REMARK                         _______ _______ _______ _____ _____    ______ ____
ROOT
ATOM      1  C   UNL     1       3.144   2.907 -23.559  0.00  0.00    -0.008 C 
ATOM      2  C   UNL     1       4.367   3.048 -23.214  0.00  0.00    +0.207 C 
ATOM      3  C   UNL     1       5.013   2.056 -22.750  0.00  0.00    +0.115 C 
ATOM      4  C   UNL     1       4.442   0.916 -22.627  0.00  0.00    +0.076 C 
ATOM      5  C   UNL     1       3.218   0.778 -22.974  0.00  0.00    +0.106 C 
ATOM      6  N   UNL     1       6.434   2.468 -22.414  0.00  0.00    -0.243 NA
ATOM      7  O   UNL     1       4.963   4.125 -23.312  0.00  0.00    -0.285 OA
ATOM      8  C   UNL     1       2.567   1.774 -23.441  0.00  0.00    -0.091 C 
ATOM      9  O   UNL     1       1.346   1.649 -23.790  0.00  0.00    -0.826 OA
ENDROOT
BRANCH   6  10
ATOM     10  C   UNL     1       7.126   4.008 -22.605  0.00  0.00    +0.070 A 
ATOM     11  C   UNL     1       7.661   4.433 -23.689  0.00  0.00    -0.025 A 
ATOM     12  C   UNL     1       8.159   5.608 -23.742  0.00  0.00    +0.005 A 
ATOM     13  C   UNL     1       8.121   6.358 -22.708  0.00  0.00    +0.001 A 
ATOM     14  C   UNL     1       7.588   5.937 -21.622  0.00  0.00    +0.005 A 
ATOM     15  C   UNL     1       7.716   3.686 -24.775  0.00  0.00    +0.046 C 
ATOM     16  C   UNL     1       7.091   4.762 -21.573  0.00  0.00    -0.025 A 
ATOM     17  C   UNL     1       6.557   4.337 -20.491  0.00  0.00    +0.046 C 
ENDBRANCH   6  10
BRANCH   5  18
ATOM     18  O   UNL     1       2.634  -0.353 -22.858  0.00  0.00    -0.508 OA
ATOM     19  H   UNL     1       2.085  -0.523 -22.119  0.00  0.00    +0.292 HD
ENDBRANCH   5  18
BRANCH   1  20
ATOM     20  C   UNL     1       2.505   3.914 -24.025  0.00  0.00    +0.038 C 
BRANCH  20  21
ATOM     21  C   UNL     1       1.813   4.645 -23.246  0.00  0.00    +0.005 C 
BRANCH  21  22
ATOM     22  C   UNL     1       0.676   5.091 -23.622  0.00  0.00    +0.000 C 
BRANCH  22  23
ATOM     23  C   UNL     1      -0.390   4.704 -23.027  0.00  0.00    +0.000 C 
BRANCH  23  24
ATOM     24  C   UNL     1      -1.525   4.819 -23.604  0.00  0.00    +0.000 C 
BRANCH  24  25
ATOM     25  C   UNL     1      -2.060   3.808 -24.174  0.00  0.00    +0.000 C 
BRANCH  25  26
ATOM     26  C   UNL     1      -2.802   3.014 -23.501  0.00  0.00    -0.000 C 
BRANCH  26  27
ATOM     27  C   UNL     1      -3.923   3.421 -23.041  0.00  0.00    -0.000 C 
BRANCH  27  28
ATOM     28  C   UNL     1      -4.314   3.041 -21.885  0.00  0.00    -0.000 C 
BRANCH  28  30
ATOM     29  C   UNL     1      -3.147   3.791 -20.161  0.00  0.00    +0.004 C 
ATOM     30  C   UNL     1      -3.460   2.841 -20.956  0.00  0.00    -0.003 C 
ENDBRANCH  28  30
ENDBRANCH  27  28
ENDBRANCH  26  27
ENDBRANCH  25  26
ENDBRANCH  24  25
ENDBRANCH  23  24
ENDBRANCH  22  23
ENDBRANCH  21  22
ENDBRANCH  20  21
ENDBRANCH   1  20
TORSDOF 12
ENDMDL
MODEL 2
REMARK VINA RESULT:    -8.383      0.667      1.833
REMARK INTER + INTRA:         -13.570
REMARK INTER:                 -13.510
REMARK INTRA:                  -0.060
REMARK UNBOUND:                -0.042
REMARK  Name = ZINC000085340902
REMARK  15 active torsions:
REMARK  status: ('A' for Active; 'I' for Inactive)
REMARK    1  A    between atoms: C_1  and  C_2
REMARK    2  A    between atoms: C_2  and  C_3
REMARK    3  A    between atoms: C_3  and  C_4
REMARK    4  A    between atoms: C_4  and  C_5
REMARK    5  A    between atoms: C_5  and  C_6
REMARK    6  A    between atoms: C_6  and  C_7
REMARK    7  A    between atoms: C_7  and  C_8
REMARK    8  A    between atoms: C_8  and  C_9
REMARK    9  A    between atoms: C_9  and  C_10
REMARK   10  A    between atoms: C_10  and  C_11
REMARK   11  A    between atoms: C_11  and  C_12
REMARK   12  A    between atoms: N_16  and  C_17
REMARK   13  A    between atoms: C_18  and  C_19
REMARK   14  A    between atoms: C_23  and  C_24
REMARK   15  A    between atoms: C_26  and  O_27
REMARK                            x       y       z     vdW  Elec       q    Type
REMARK                         _______ _______ _______ _____ _____    ______ ____
ROOT
ATOM      1  C   UNL     1       3.082   3.038 -23.568  0.00  0.00    -0.008 C 
ATOM      2  C   UNL     1       4.303   3.200 -23.227  0.00  0.00    +0.207 C 
ATOM      3  C   UNL     1       4.972   2.216 -22.778  0.00  0.00    +0.115 C 
ATOM      4  C   UNL     1       4.426   1.063 -22.668  0.00  0.00    +0.076 C 
ATOM      5  C   UNL     1       3.203   0.904 -23.011  0.00  0.00    +0.106 C 
ATOM      6  N   UNL     1       6.385   2.654 -22.444  0.00  0.00    -0.243 NA
ATOM      7  O   UNL     1       4.875   4.290 -23.314  0.00  0.00    -0.285 OA
ATOM      8  C   UNL     1       2.529   1.891 -23.461  0.00  0.00    -0.091 C 
ATOM      9  O   UNL     1       1.309   1.745 -23.806  0.00  0.00    -0.826 OA
ENDROOT
BRANCH   6  10
ATOM     10  C   UNL     1       7.044   4.210 -22.618  0.00  0.00    +0.070 A 
ATOM     11  C   UNL     1       7.009   5.117 -21.713  0.00  0.00    -0.025 A 
ATOM     12  C   UNL     1       7.531   6.263 -21.930  0.00  0.00    +0.005 A 
ATOM     13  C   UNL     1       8.089   6.499 -23.055  0.00  0.00    +0.001 A 
ATOM     14  C   UNL     1       8.127   5.596 -23.962  0.00  0.00    +0.005 A 
ATOM     15  C   UNL     1       6.440   4.906 -20.541  0.00  0.00    +0.046 C 
ATOM     16  C   UNL     1       7.604   4.452 -23.742  0.00  0.00    -0.025 A 
ATOM     17  C   UNL     1       7.639   3.547 -24.644  0.00  0.00    +0.046 C 
ENDBRANCH   6  10
BRANCH   5  18
ATOM     18  O   UNL     1       2.644  -0.241 -22.906  0.00  0.00    -0.508 OA
ATOM     19  H   UNL     1       3.165  -1.005 -22.763  0.00  0.00    +0.292 HD
ENDBRANCH   5  18
BRANCH   1  20
ATOM     20  C   UNL     1       2.419   4.037 -24.018  0.00  0.00    +0.038 C 
BRANCH  20  21
ATOM     21  C   UNL     1       1.635   4.680 -23.247  0.00  0.00    +0.005 C 
BRANCH  21  22
ATOM     22  C   UNL     1       0.451   4.972 -23.631  0.00  0.00    +0.000 C 
BRANCH  22  23
ATOM     23  C   UNL     1      -0.521   4.914 -22.801  0.00  0.00    +0.000 C 
BRANCH  23  24
ATOM     24  C   UNL     1      -1.291   3.893 -22.785  0.00  0.00    +0.000 C 
BRANCH  24  25
ATOM     25  C   UNL     1      -1.163   3.006 -21.874  0.00  0.00    +0.000 C 
BRANCH  25  26
ATOM     26  C   UNL     1      -2.189   2.598 -21.231  0.00  0.00    -0.000 C 
BRANCH  26  27
ATOM     27  C   UNL     1      -3.257   3.300 -21.217  0.00  0.00    -0.000 C 
BRANCH  27  28
ATOM     28  C   UNL     1      -4.388   2.746 -21.435  0.00  0.00    -0.000 C 
BRANCH  28  30
ATOM     29  C   UNL     1      -5.142   3.674 -23.297  0.00  0.00    +0.004 C 
ATOM     30  C   UNL     1      -5.300   3.382 -22.063  0.00  0.00    -0.003 C 
ENDBRANCH  28  30
ENDBRANCH  27  28
ENDBRANCH  26  27
ENDBRANCH  25  26
ENDBRANCH  24  25
ENDBRANCH  23  24
ENDBRANCH  22  23
ENDBRANCH  21  22
ENDBRANCH  20  21
ENDBRANCH   1  20
TORSDOF 12
ENDMDL
MODEL 3
REMARK VINA RESULT:    -8.149      2.347      4.552
REMARK INTER + INTRA:         -13.193
REMARK INTER:                 -13.271
REMARK INTRA:                   0.079
REMARK UNBOUND:                -0.042
REMARK  Name = ZINC000085340902
REMARK  15 active torsions:
REMARK  status: ('A' for Active; 'I' for Inactive)
REMARK    1  A    between atoms: C_1  and  C_2
REMARK    2  A    between atoms: C_2  and  C_3
REMARK    3  A    between atoms: C_3  and  C_4
REMARK    4  A    between atoms: C_4  and  C_5
REMARK    5  A    between atoms: C_5  and  C_6
REMARK    6  A    between atoms: C_6  and  C_7
REMARK    7  A    between atoms: C_7  and  C_8
REMARK    8  A    between atoms: C_8  and  C_9
REMARK    9  A    between atoms: C_9  and  C_10
REMARK   10  A    between atoms: C_10  and  C_11
REMARK   11  A    between atoms: C_11  and  C_12
REMARK   12  A    between atoms: N_16  and  C_17
REMARK   13  A    between atoms: C_18  and  C_19
REMARK   14  A    between atoms: C_23  and  C_24
REMARK   15  A    between atoms: C_26  and  O_27
REMARK                            x       y       z     vdW  Elec       q    Type
REMARK                         _______ _______ _______ _____ _____    ______ ____
ROOT
ATOM      1  C   UNL     1      -0.184   3.702 -23.292  0.00  0.00    -0.008 C 
ATOM      2  C   UNL     1       0.971   3.164 -23.401  0.00  0.00    +0.207 C 
ATOM      3  C   UNL     1       1.412   2.838 -24.548  0.00  0.00    +0.115 C 
ATOM      4  C   UNL     1       0.703   3.049 -25.594  0.00  0.00    +0.076 C 
ATOM      5  C   UNL     1      -0.452   3.588 -25.481  0.00  0.00    +0.106 C 
ATOM      6  N   UNL     1       2.792   2.223 -24.421  0.00  0.00    -0.243 NA
ATOM      7  O   UNL     1       1.692   2.941 -22.424  0.00  0.00    -0.285 OA
ATOM      8  C   UNL     1      -0.897   3.915 -24.329  0.00  0.00    -0.091 C 
ATOM      9  O   UNL     1      -2.047   4.454 -24.204  0.00  0.00    -0.826 OA
ENDROOT
BRANCH   6  10
ATOM     10  C   UNL     1       3.676   1.974 -22.992  0.00  0.00    +0.070 A 
ATOM     11  C   UNL     1       3.520   0.972 -22.208  0.00  0.00    -0.025 A 
ATOM     12  C   UNL     1       4.231   0.865 -21.152  0.00  0.00    +0.005 A 
ATOM     13  C   UNL     1       5.098   1.763 -20.881  0.00  0.00    +0.001 A 
ATOM     14  C   UNL     1       5.258   2.767 -21.661  0.00  0.00    +0.005 A 
ATOM     15  C   UNL     1       2.634   0.027 -22.458  0.00  0.00    +0.046 C 
ATOM     16  C   UNL     1       4.546   2.870 -22.716  0.00  0.00    -0.025 A 
ATOM     17  C   UNL     1       4.701   3.869 -23.498  0.00  0.00    +0.046 C 
ENDBRANCH   6  10
BRANCH   5  18
ATOM     18  O   UNL     1      -1.171   3.804 -26.515  0.00  0.00    -0.508 OA
ATOM     19  H   UNL     1      -2.079   3.575 -26.511  0.00  0.00    +0.292 HD
ENDBRANCH   5  18
BRANCH   1  20
ATOM     20  C   UNL     1      -0.617   4.026 -22.131  0.00  0.00    +0.038 C 
BRANCH  20  21
ATOM     21  C   UNL     1      -1.558   3.357 -21.593  0.00  0.00    +0.005 C 
BRANCH  21  22
ATOM     22  C   UNL     1      -2.238   3.859 -20.634  0.00  0.00    +0.000 C 
BRANCH  22  23
ATOM     23  C   UNL     1      -3.395   3.386 -20.357  0.00  0.00    +0.000 C 
BRANCH  23  24
ATOM     24  C   UNL     1      -3.911   2.480 -21.097  0.00  0.00    +0.000 C 
BRANCH  24  25
ATOM     25  C   UNL     1      -5.156   2.521 -21.388  0.00  0.00    +0.000 C 
BRANCH  25  26
ATOM     26  C   UNL     1      -5.588   3.391 -22.218  0.00  0.00    -0.000 C 
BRANCH  26  27
ATOM     27  C   UNL     1      -4.931   3.641 -23.285  0.00  0.00    -0.000 C 
BRANCH  27  28
ATOM     28  C   UNL     1      -5.550   3.801 -24.392  0.00  0.00    -0.000 C 
BRANCH  28  30
ATOM     29  C   UNL     1      -4.519   2.930 -26.146  0.00  0.00    +0.004 C 
ATOM     30  C   UNL     1      -4.890   3.952 -25.476  0.00  0.00    -0.003 C 
ENDBRANCH  28  30
ENDBRANCH  27  28
ENDBRANCH  26  27
ENDBRANCH  25  26
ENDBRANCH  24  25
ENDBRANCH  23  24
ENDBRANCH  22  23
ENDBRANCH  21  22
ENDBRANCH  20  21
ENDBRANCH   1  20
TORSDOF 12
ENDMDL
MODEL 4
REMARK VINA RESULT:    -7.374      3.119      6.532
REMARK INTER + INTRA:         -11.942
REMARK INTER:                 -11.482
REMARK INTRA:                  -0.461
REMARK UNBOUND:                -0.042
REMARK  Name = ZINC000085340902
REMARK  15 active torsions:
REMARK  status: ('A' for Active; 'I' for Inactive)
REMARK    1  A    between atoms: C_1  and  C_2
REMARK    2  A    between atoms: C_2  and  C_3
REMARK    3  A    between atoms: C_3  and  C_4
REMARK    4  A    between atoms: C_4  and  C_5
REMARK    5  A    between atoms: C_5  and  C_6
REMARK    6  A    between atoms: C_6  and  C_7
REMARK    7  A    between atoms: C_7  and  C_8
REMARK    8  A    between atoms: C_8  and  C_9
REMARK    9  A    between atoms: C_9  and  C_10
REMARK   10  A    between atoms: C_10  and  C_11
REMARK   11  A    between atoms: C_11  and  C_12
REMARK   12  A    between atoms: N_16  and  C_17
REMARK   13  A    between atoms: C_18  and  C_19
REMARK   14  A    between atoms: C_23  and  C_24
REMARK   15  A    between atoms: C_26  and  O_27
REMARK                            x       y       z     vdW  Elec       q    Type
REMARK                         _______ _______ _______ _____ _____    ______ ____
ROOT
ATOM      1  C   UNL     1      -2.365   3.630 -23.261  0.00  0.00    -0.008 C 
ATOM      2  C   UNL     1      -1.237   3.714 -23.856  0.00  0.00    +0.207 C 
ATOM      3  C   UNL     1      -1.192   3.792 -25.124  0.00  0.00    +0.115 C 
ATOM      4  C   UNL     1      -2.276   3.786 -25.807  0.00  0.00    +0.076 C 
ATOM      5  C   UNL     1      -3.404   3.701 -25.209  0.00  0.00    +0.106 C 
ATOM      6  N   UNL     1       0.247   3.882 -25.592  0.00  0.00    -0.243 NA
ATOM      7  O   UNL     1      -0.165   3.724 -23.243  0.00  0.00    -0.285 OA
ATOM      8  C   UNL     1      -3.450   3.623 -23.935  0.00  0.00    -0.091 C 
ATOM      9  O   UNL     1      -4.569   3.538 -23.327  0.00  0.00    -0.826 OA
ENDROOT
BRANCH   6  10
ATOM     10  C   UNL     1       1.642   3.885 -24.623  0.00  0.00    +0.070 A 
ATOM     11  C   UNL     1       1.992   4.853 -23.859  0.00  0.00    -0.025 A 
ATOM     12  C   UNL     1       3.060   4.769 -23.163  0.00  0.00    +0.005 A 
ATOM     13  C   UNL     1       3.778   3.714 -23.232  0.00  0.00    +0.001 A 
ATOM     14  C   UNL     1       3.432   2.744 -23.994  0.00  0.00    +0.005 A 
ATOM     15  C   UNL     1       1.274   5.956 -23.763  0.00  0.00    +0.046 C 
ATOM     16  C   UNL     1       2.364   2.832 -24.689  0.00  0.00    -0.025 A 
ATOM     17  C   UNL     1       2.014   1.866 -25.451  0.00  0.00    +0.046 C 
ENDBRANCH   6  10
BRANCH   5  18
ATOM     18  O   UNL     1      -4.494   3.693 -25.877  0.00  0.00    -0.508 OA
ATOM     19  H   UNL     1      -4.686   4.394 -26.467  0.00  0.00    +0.292 HD
ENDBRANCH   5  18
BRANCH   1  20
ATOM     20  C   UNL     1      -2.396   3.552 -21.983  0.00  0.00    +0.038 C 
BRANCH  20  21
ATOM     21  C   UNL     1      -2.378   2.413 -21.414  0.00  0.00    +0.005 C 
BRANCH  21  22
ATOM     22  C   UNL     1      -1.291   1.955 -20.922  0.00  0.00    +0.000 C 
BRANCH  22  23
ATOM     23  C   UNL     1      -0.690   0.983 -21.498  0.00  0.00    +0.000 C 
BRANCH  23  24
ATOM     24  C   UNL     1       0.535   1.101 -21.844  0.00  0.00    +0.000 C 
BRANCH  24  25
ATOM     25  C   UNL     1       1.313   1.883 -21.196  0.00  0.00    +0.000 C 
BRANCH  25  26
ATOM     26  C   UNL     1       2.326   1.408 -20.579  0.00  0.00    -0.000 C 
BRANCH  26  27
ATOM     27  C   UNL     1       3.051   0.513 -21.133  0.00  0.00    -0.000 C 
BRANCH  27  28
ATOM     28  C   UNL     1       4.214   0.257 -20.668  0.00  0.00    -0.000 C 
BRANCH  28  30
ATOM     29  C   UNL     1       5.739   0.881 -22.145  0.00  0.00    +0.004 C 
ATOM     30  C   UNL     1       5.206   0.994 -20.989  0.00  0.00    -0.003 C 
ENDBRANCH  28  30
ENDBRANCH  27  28
ENDBRANCH  26  27
ENDBRANCH  25  26
ENDBRANCH  24  25
ENDBRANCH  23  24
ENDBRANCH  22  23
ENDBRANCH  21  22
ENDBRANCH  20  21
ENDBRANCH   1  20
TORSDOF 12
ENDMDL
MODEL 5
REMARK VINA RESULT:    -7.320      2.221      7.294
REMARK INTER + INTRA:         -11.855
REMARK INTER:                 -11.037
REMARK INTRA:                  -0.818
REMARK UNBOUND:                -0.042
REMARK  Name = ZINC000085340902
REMARK  15 active torsions:
REMARK  status: ('A' for Active; 'I' for Inactive)
REMARK    1  A    between atoms: C_1  and  C_2
REMARK    2  A    between atoms: C_2  and  C_3
REMARK    3  A    between atoms: C_3  and  C_4
REMARK    4  A    between atoms: C_4  and  C_5
REMARK    5  A    between atoms: C_5  and  C_6
REMARK    6  A    between atoms: C_6  and  C_7
REMARK    7  A    between atoms: C_7  and  C_8
REMARK    8  A    between atoms: C_8  and  C_9
REMARK    9  A    between atoms: C_9  and  C_10
REMARK   10  A    between atoms: C_10  and  C_11
REMARK   11  A    between atoms: C_11  and  C_12
REMARK   12  A    between atoms: N_16  and  C_17
REMARK   13  A    between atoms: C_18  and  C_19
REMARK   14  A    between atoms: C_23  and  C_24
REMARK   15  A    between atoms: C_26  and  O_27
REMARK                            x       y       z     vdW  Elec       q    Type
REMARK                         _______ _______ _______ _____ _____    ______ ____
ROOT
ATOM      1  C   UNL     1       4.337   2.841 -21.793  0.00  0.00    -0.008 C 
ATOM      2  C   UNL     1       3.209   2.499 -22.286  0.00  0.00    +0.207 C 
ATOM      3  C   UNL     1       2.783   1.311 -22.134  0.00  0.00    +0.115 C 
ATOM      4  C   UNL     1       3.483   0.456 -21.486  0.00  0.00    +0.076 C 
ATOM      5  C   UNL     1       4.613   0.801 -20.993  0.00  0.00    +0.106 C 
ATOM      6  N   UNL     1       1.433   1.149 -22.803  0.00  0.00    -0.243 NA
ATOM      7  O   UNL     1       2.497   3.286 -22.918  0.00  0.00    -0.285 OA
ATOM      8  C   UNL     1       5.041   1.995 -21.146  0.00  0.00    -0.091 C 
ATOM      9  O   UNL     1       6.166   2.351 -20.660  0.00  0.00    -0.826 OA
ENDROOT
BRANCH   6  10
ATOM     10  C   UNL     1       0.559   2.335 -23.649  0.00  0.00    +0.070 A 
ATOM     11  C   UNL     1       0.830   2.724 -24.840  0.00  0.00    -0.025 A 
ATOM     12  C   UNL     1       0.118   3.624 -25.401  0.00  0.00    +0.005 A 
ATOM     13  C   UNL     1      -0.868   4.135 -24.767  0.00  0.00    +0.001 A 
ATOM     14  C   UNL     1      -1.142   3.750 -23.576  0.00  0.00    +0.005 A 
ATOM     15  C   UNL     1       1.839   2.217 -25.522  0.00  0.00    +0.046 C 
ATOM     16  C   UNL     1      -0.428   2.850 -23.019  0.00  0.00    -0.025 A 
ATOM     17  C   UNL     1      -0.698   2.462 -21.831  0.00  0.00    +0.046 C 
ENDBRANCH   6  10
BRANCH   5  18
ATOM     18  O   UNL     1       5.323  -0.041 -20.345  0.00  0.00    -0.508 OA
ATOM     19  H   UNL     1       6.174   0.200 -20.040  0.00  0.00    +0.292 HD
ENDBRANCH   5  18
BRANCH   1  20
ATOM     20  C   UNL     1       4.754   4.041 -21.954  0.00  0.00    +0.038 C 
BRANCH  20  21
ATOM     21  C   UNL     1       5.135   4.434 -23.105  0.00  0.00    +0.005 C 
BRANCH  21  22
ATOM     22  C   UNL     1       6.311   4.158 -23.523  0.00  0.00    +0.000 C 
BRANCH  22  23
ATOM     23  C   UNL     1       7.266   4.989 -23.333  0.00  0.00    +0.000 C 
BRANCH  23  24
ATOM     24  C   UNL     1       8.184   4.727 -22.483  0.00  0.00    +0.000 C 
BRANCH  24  25
ATOM     25  C   UNL     1       8.412   5.532 -21.516  0.00  0.00    +0.000 C 
BRANCH  25  26
ATOM     26  C   UNL     1       7.865   5.335 -20.378  0.00  0.00    -0.000 C 
BRANCH  26  27
ATOM     27  C   UNL     1       7.128   6.238 -19.857  0.00  0.00    -0.000 C 
BRANCH  27  28
ATOM     28  C   UNL     1       6.768   7.248 -20.553  0.00  0.00    -0.000 C 
BRANCH  28  30
ATOM     29  C   UNL     1       4.990   7.878 -21.711  0.00  0.00    +0.004 C 
ATOM     30  C   UNL     1       5.538   7.591 -20.593  0.00  0.00    -0.003 C 
ENDBRANCH  28  30
ENDBRANCH  27  28
ENDBRANCH  26  27
ENDBRANCH  25  26
ENDBRANCH  24  25
ENDBRANCH  23  24
ENDBRANCH  22  23
ENDBRANCH  21  22
ENDBRANCH  20  21
ENDBRANCH   1  20
TORSDOF 12
ENDMDL
MODEL 6
REMARK VINA RESULT:    -7.182      2.381      7.804
REMARK INTER + INTRA:         -11.632
REMARK INTER:                 -11.982
REMARK INTRA:                   0.350
REMARK UNBOUND:                -0.042
REMARK  Name = ZINC000085340902
REMARK  15 active torsions:
REMARK  status: ('A' for Active; 'I' for Inactive)
REMARK    1  A    between atoms: C_1  and  C_2
REMARK    2  A    between atoms: C_2  and  C_3
REMARK    3  A    between atoms: C_3  and  C_4
REMARK    4  A    between atoms: C_4  and  C_5
REMARK    5  A    between atoms: C_5  and  C_6
REMARK    6  A    between atoms: C_6  and  C_7
REMARK    7  A    between atoms: C_7  and  C_8
REMARK    8  A    between atoms: C_8  and  C_9
REMARK    9  A    between atoms: C_9  and  C_10
REMARK   10  A    between atoms: C_10  and  C_11
REMARK   11  A    between atoms: C_11  and  C_12
REMARK   12  A    between atoms: N_16  and  C_17
REMARK   13  A    between atoms: C_18  and  C_19
REMARK   14  A    between atoms: C_23  and  C_24
REMARK   15  A    between atoms: C_26  and  O_27
REMARK                            x       y       z     vdW  Elec       q    Type
REMARK                         _______ _______ _______ _____ _____    ______ ____
ROOT
ATOM      1  C   UNL     1       3.295   4.691 -23.165  0.00  0.00    -0.008 C 
ATOM      2  C   UNL     1       2.276   3.923 -23.239  0.00  0.00    +0.207 C 
ATOM      3  C   UNL     1       2.428   2.693 -23.522  0.00  0.00    +0.115 C 
ATOM      4  C   UNL     1       3.600   2.221 -23.733  0.00  0.00    +0.076 C 
ATOM      5  C   UNL     1       4.618   2.993 -23.658  0.00  0.00    +0.106 C 
ATOM      6  N   UNL     1       1.083   1.993 -23.551  0.00  0.00    -0.243 NA
ATOM      7  O   UNL     1       1.126   4.328 -23.044  0.00  0.00    -0.285 OA
ATOM      8  C   UNL     1       4.467   4.229 -23.374  0.00  0.00    -0.091 C 
ATOM      9  O   UNL     1       5.474   5.008 -23.297  0.00  0.00    -0.826 OA
ENDROOT
BRANCH   6  10
ATOM     10  C   UNL     1      -0.440   2.686 -23.259  0.00  0.00    +0.070 A 
ATOM     11  C   UNL     1      -1.112   3.352 -24.124  0.00  0.00    -0.025 A 
ATOM     12  C   UNL     1      -2.252   3.839 -23.817  0.00  0.00    +0.005 A 
ATOM     13  C   UNL     1      -2.720   3.659 -22.642  0.00  0.00    +0.001 A 
ATOM     14  C   UNL     1      -2.053   2.995 -21.773  0.00  0.00    +0.005 A 
ATOM     15  C   UNL     1      -0.658   3.556 -25.346  0.00  0.00    +0.046 C 
ATOM     16  C   UNL     1      -0.913   2.509 -22.084  0.00  0.00    -0.025 A 
ATOM     17  C   UNL     1      -0.243   1.845 -21.221  0.00  0.00    +0.046 C 
ENDBRANCH   6  10
BRANCH   5  18
ATOM     18  O   UNL     1       5.794   2.537 -23.866  0.00  0.00    -0.508 OA
ATOM     19  H   UNL     1       5.918   1.628 -24.051  0.00  0.00    +0.292 HD
ENDBRANCH   5  18
BRANCH   1  20
ATOM     20  C   UNL     1       3.127   5.928 -22.880  0.00  0.00    +0.038 C 
BRANCH  20  21
ATOM     21  C   UNL     1       3.970   6.530 -22.138  0.00  0.00    +0.005 C 
BRANCH  21  22
ATOM     22  C   UNL     1       3.985   7.807 -22.086  0.00  0.00    +0.000 C 
BRANCH  22  23
ATOM     23  C   UNL     1       4.465   8.397 -21.056  0.00  0.00    +0.000 C 
BRANCH  23  24
ATOM     24  C   UNL     1       5.442   9.212 -21.180  0.00  0.00    +0.000 C 
BRANCH  24  25
ATOM     25  C   UNL     1       6.579   8.935 -20.665  0.00  0.00    +0.000 C 
BRANCH  25  26
ATOM     26  C   UNL     1       7.479   8.366 -21.371  0.00  0.00    -0.000 C 
BRANCH  26  27
ATOM     27  C   UNL     1       8.095   7.342 -20.919  0.00  0.00    -0.000 C 
BRANCH  27  28
ATOM     28  C   UNL     1       7.599   6.675 -19.948  0.00  0.00    -0.000 C 
BRANCH  28  30
ATOM     29  C   UNL     1       7.824   4.672 -20.861  0.00  0.00    +0.004 C 
ATOM     30  C   UNL     1       7.156   5.494 -20.146  0.00  0.00    -0.003 C 
ENDBRANCH  28  30
ENDBRANCH  27  28
ENDBRANCH  26  27
ENDBRANCH  25  26
ENDBRANCH  24  25
ENDBRANCH  23  24
ENDBRANCH  22  23
ENDBRANCH  21  22
ENDBRANCH  20  21
ENDBRANCH   1  20
TORSDOF 12
ENDMDL
MODEL 7
REMARK VINA RESULT:    -6.891      1.386      2.080
REMARK INTER + INTRA:         -11.163
REMARK INTER:                 -11.569
REMARK INTRA:                   0.406
REMARK UNBOUND:                -0.042
REMARK  Name = ZINC000085340902
REMARK  15 active torsions:
REMARK  status: ('A' for Active; 'I' for Inactive)
REMARK    1  A    between atoms: C_1  and  C_2
REMARK    2  A    between atoms: C_2  and  C_3
REMARK    3  A    between atoms: C_3  and  C_4
REMARK    4  A    between atoms: C_4  and  C_5
REMARK    5  A    between atoms: C_5  and  C_6
REMARK    6  A    between atoms: C_6  and  C_7
REMARK    7  A    between atoms: C_7  and  C_8
REMARK    8  A    between atoms: C_8  and  C_9
REMARK    9  A    between atoms: C_9  and  C_10
REMARK   10  A    between atoms: C_10  and  C_11
REMARK   11  A    between atoms: C_11  and  C_12
REMARK   12  A    between atoms: N_16  and  C_17
REMARK   13  A    between atoms: C_18  and  C_19
REMARK   14  A    between atoms: C_23  and  C_24
REMARK   15  A    between atoms: C_26  and  O_27
REMARK                            x       y       z     vdW  Elec       q    Type
REMARK                         _______ _______ _______ _____ _____    ______ ____
ROOT
ATOM      1  C   UNL     1       3.465   3.017 -22.527  0.00  0.00    -0.008 C 
ATOM      2  C   UNL     1       4.684   3.379 -22.399  0.00  0.00    +0.207 C 
ATOM      3  C   UNL     1       5.449   2.758 -21.597  0.00  0.00    +0.115 C 
ATOM      4  C   UNL     1       5.002   1.770 -20.915  0.00  0.00    +0.076 C 
ATOM      5  C   UNL     1       3.780   1.410 -21.045  0.00  0.00    +0.106 C 
ATOM      6  N   UNL     1       6.837   3.369 -21.620  0.00  0.00    -0.243 NA
ATOM      7  O   UNL     1       5.163   4.325 -23.033  0.00  0.00    -0.285 OA
ATOM      8  C   UNL     1       3.010   2.033 -21.851  0.00  0.00    -0.091 C 
ATOM      9  O   UNL     1       1.791   1.683 -21.989  0.00  0.00    -0.826 OA
ENDROOT
BRANCH   6  10
ATOM     10  C   UNL     1       7.362   4.686 -22.555  0.00  0.00    +0.070 A 
ATOM     11  C   UNL     1       7.258   5.914 -22.200  0.00  0.00    -0.025 A 
ATOM     12  C   UNL     1       7.680   6.843 -22.968  0.00  0.00    +0.005 A 
ATOM     13  C   UNL     1       8.208   6.542 -24.093  0.00  0.00    +0.001 A 
ATOM     14  C   UNL     1       8.314   5.317 -24.452  0.00  0.00    +0.005 A 
ATOM     15  C   UNL     1       6.719   6.259 -21.046  0.00  0.00    +0.046 C 
ATOM     16  C   UNL     1       7.890   4.391 -23.681  0.00  0.00    -0.025 A 
ATOM     17  C   UNL     1       7.994   3.166 -24.034  0.00  0.00    +0.046 C 
ENDBRANCH   6  10
BRANCH   5  18
ATOM     18  O   UNL     1       3.319   0.426 -20.372  0.00  0.00    -0.508 OA
ATOM     19  H   UNL     1       2.451   0.463 -20.024  0.00  0.00    +0.292 HD
ENDBRANCH   5  18
BRANCH   1  20
ATOM     20  C   UNL     1       2.704   3.651 -23.339  0.00  0.00    +0.038 C 
BRANCH  20  21
ATOM     21  C   UNL     1       1.820   3.023 -24.006  0.00  0.00    +0.005 C 
BRANCH  21  22
ATOM     22  C   UNL     1       1.275   3.567 -25.026  0.00  0.00    +0.000 C 
BRANCH  22  23
ATOM     23  C   UNL     1       0.110   4.089 -24.924  0.00  0.00    +0.000 C 
BRANCH  23  24
ATOM     24  C   UNL     1      -0.847   3.669 -25.660  0.00  0.00    +0.000 C 
BRANCH  24  25
ATOM     25  C   UNL     1      -1.951   3.302 -25.129  0.00  0.00    +0.000 C 
BRANCH  25  26
ATOM     26  C   UNL     1      -2.515   4.041 -24.252  0.00  0.00    -0.000 C 
BRANCH  26  27
ATOM     27  C   UNL     1      -3.173   3.510 -23.294  0.00  0.00    -0.000 C 
BRANCH  27  28
ATOM     28  C   UNL     1      -2.789   3.677 -22.087  0.00  0.00    -0.000 C 
BRANCH  28  30
ATOM     29  C   UNL     1      -1.407   2.083 -21.419  0.00  0.00    +0.004 C 
ATOM     30  C   UNL     1      -1.621   3.304 -21.731  0.00  0.00    -0.003 C 
ENDBRANCH  28  30
ENDBRANCH  27  28
ENDBRANCH  26  27
ENDBRANCH  25  26
ENDBRANCH  24  25
ENDBRANCH  23  24
ENDBRANCH  22  23
ENDBRANCH  21  22
ENDBRANCH  20  21
ENDBRANCH   1  20
TORSDOF 12
ENDMDL
MODEL 8
REMARK VINA RESULT:    -6.878      3.149      7.162
REMARK INTER + INTRA:         -11.142
REMARK INTER:                 -11.473
REMARK INTRA:                   0.330
REMARK UNBOUND:                -0.042
REMARK  Name = ZINC000085340902
REMARK  15 active torsions:
REMARK  status: ('A' for Active; 'I' for Inactive)
REMARK    1  A    between atoms: C_1  and  C_2
REMARK    2  A    between atoms: C_2  and  C_3
REMARK    3  A    between atoms: C_3  and  C_4
REMARK    4  A    between atoms: C_4  and  C_5
REMARK    5  A    between atoms: C_5  and  C_6
REMARK    6  A    between atoms: C_6  and  C_7
REMARK    7  A    between atoms: C_7  and  C_8
REMARK    8  A    between atoms: C_8  and  C_9
REMARK    9  A    between atoms: C_9  and  C_10
REMARK   10  A    between atoms: C_10  and  C_11
REMARK   11  A    between atoms: C_11  and  C_12
REMARK   12  A    between atoms: N_16  and  C_17
REMARK   13  A    between atoms: C_18  and  C_19
REMARK   14  A    between atoms: C_23  and  C_24
REMARK   15  A    between atoms: C_26  and  O_27
REMARK                            x       y       z     vdW  Elec       q    Type
REMARK                         _______ _______ _______ _____ _____    ______ ____
ROOT
ATOM      1  C   UNL     1       4.405   3.252 -22.431  0.00  0.00    -0.008 C 
ATOM      2  C   UNL     1       3.236   2.832 -22.733  0.00  0.00    +0.207 C 
ATOM      3  C   UNL     1       3.035   1.590 -22.914  0.00  0.00    +0.115 C 
ATOM      4  C   UNL     1       4.002   0.758 -22.795  0.00  0.00    +0.076 C 
ATOM      5  C   UNL     1       5.171   1.181 -22.492  0.00  0.00    +0.106 C 
ATOM      6  N   UNL     1       1.580   1.340 -23.260  0.00  0.00    -0.243 NA
ATOM      7  O   UNL     1       2.272   3.593 -22.859  0.00  0.00    -0.285 OA
ATOM      8  C   UNL     1       5.374   2.429 -22.310  0.00  0.00    -0.091 C 
ATOM      9  O   UNL     1       6.536   2.863 -22.008  0.00  0.00    -0.826 OA
ENDROOT
BRANCH   6  10
ATOM     10  C   UNL     1       0.347   2.500 -23.401  0.00  0.00    +0.070 A 
ATOM     11  C   UNL     1       0.160   3.238 -24.432  0.00  0.00    -0.025 A 
ATOM     12  C   UNL     1      -0.795   4.086 -24.452  0.00  0.00    +0.005 A 
ATOM     13  C   UNL     1      -1.564   4.195 -23.437  0.00  0.00    +0.001 A 
ATOM     14  C   UNL     1      -1.382   3.459 -22.404  0.00  0.00    +0.005 A 
ATOM     15  C   UNL     1       0.935   3.152 -25.496  0.00  0.00    +0.046 C 
ATOM     16  C   UNL     1      -0.426   2.612 -22.388  0.00  0.00    -0.025 A 
ATOM     17  C   UNL     1      -0.240   1.876 -21.359  0.00  0.00    +0.046 C 
ENDBRANCH   6  10
BRANCH   5  18
ATOM     18  O   UNL     1       6.146   0.363 -22.370  0.00  0.00    -0.508 OA
ATOM     19  H   UNL     1       6.519   0.202 -21.527  0.00  0.00    +0.292 HD
ENDBRANCH   5  18
BRANCH   1  20
ATOM     20  C   UNL     1       4.593   4.505 -22.251  0.00  0.00    +0.038 C 
BRANCH  20  21
ATOM     21  C   UNL     1       5.461   5.125 -22.947  0.00  0.00    +0.005 C 
BRANCH  21  22
ATOM     22  C   UNL     1       5.920   6.251 -22.551  0.00  0.00    +0.000 C 
BRANCH  22  23
ATOM     23  C   UNL     1       6.435   6.354 -21.384  0.00  0.00    +0.000 C 
BRANCH  23  24
ATOM     24  C   UNL     1       6.360   7.459 -20.745  0.00  0.00    +0.000 C 
BRANCH  24  25
ATOM     25  C   UNL     1       5.253   8.097 -20.694  0.00  0.00    +0.000 C 
BRANCH  25  26
ATOM     26  C   UNL     1       5.252   9.375 -20.707  0.00  0.00    -0.000 C 
BRANCH  26  27
ATOM     27  C   UNL     1       4.176  10.011 -20.972  0.00  0.00    -0.000 C 
BRANCH  27  28
ATOM     28  C   UNL     1       3.809  10.166 -22.187  0.00  0.00    -0.000 C 
BRANCH  28  30
ATOM     29  C   UNL     1       3.196  11.522 -23.825  0.00  0.00    +0.004 C 
ATOM     30  C   UNL     1       3.767  11.336 -22.697  0.00  0.00    -0.003 C 
ENDBRANCH  28  30
ENDBRANCH  27  28
ENDBRANCH  26  27
ENDBRANCH  25  26
ENDBRANCH  24  25
ENDBRANCH  23  24
ENDBRANCH  22  23
ENDBRANCH  21  22
ENDBRANCH  20  21
ENDBRANCH   1  20
TORSDOF 12
ENDMDL
MODEL 9
REMARK VINA RESULT:    -6.489      3.494      5.360
REMARK INTER + INTRA:         -10.514
REMARK INTER:                 -10.472
REMARK INTRA:                  -0.042
REMARK UNBOUND:                -0.042
REMARK  Name = ZINC000085340902
REMARK  15 active torsions:
REMARK  status: ('A' for Active; 'I' for Inactive)
REMARK    1  A    between atoms: C_1  and  C_2
REMARK    2  A    between atoms: C_2  and  C_3
REMARK    3  A    between atoms: C_3  and  C_4
REMARK    4  A    between atoms: C_4  and  C_5
REMARK    5  A    between atoms: C_5  and  C_6
REMARK    6  A    between atoms: C_6  and  C_7
REMARK    7  A    between atoms: C_7  and  C_8
REMARK    8  A    between atoms: C_8  and  C_9
REMARK    9  A    between atoms: C_9  and  C_10
REMARK   10  A    between atoms: C_10  and  C_11
REMARK   11  A    between atoms: C_11  and  C_12
REMARK   12  A    between atoms: N_16  and  C_17
REMARK   13  A    between atoms: C_18  and  C_19
REMARK   14  A    between atoms: C_23  and  C_24
REMARK   15  A    between atoms: C_26  and  O_27
REMARK                            x       y       z     vdW  Elec       q    Type
REMARK                         _______ _______ _______ _____ _____    ______ ____
ROOT
ATOM      1  C   UNL     1       6.507   5.804 -21.878  0.00  0.00    -0.008 C 
ATOM      2  C   UNL     1       6.385   7.061 -21.678  0.00  0.00    +0.207 C 
ATOM      3  C   UNL     1       6.990   7.611 -20.705  0.00  0.00    +0.115 C 
ATOM      4  C   UNL     1       7.722   6.908 -19.923  0.00  0.00    +0.076 C 
ATOM      5  C   UNL     1       7.843   5.650 -20.125  0.00  0.00    +0.106 C 
ATOM      6  N   UNL     1       6.692   9.097 -20.676  0.00  0.00    -0.243 NA
ATOM      7  O   UNL     1       5.692   7.781 -22.403  0.00  0.00    -0.285 OA
ATOM      8  C   UNL     1       7.235   5.096 -21.103  0.00  0.00    -0.091 C 
ATOM      9  O   UNL     1       7.348   3.843 -21.314  0.00  0.00    -0.826 OA
ENDROOT
BRANCH   6  10
ATOM     10  C   UNL     1       5.705   9.965 -21.753  0.00  0.00    +0.070 A 
ATOM     11  C   UNL     1       6.108  10.468 -22.861  0.00  0.00    -0.025 A 
ATOM     12  C   UNL     1       5.295  11.107 -23.610  0.00  0.00    +0.005 A 
ATOM     13  C   UNL     1       4.076  11.243 -23.249  0.00  0.00    +0.001 A 
ATOM     14  C   UNL     1       3.669  10.742 -22.142  0.00  0.00    +0.005 A 
ATOM     15  C   UNL     1       7.358  10.346 -23.264  0.00  0.00    +0.046 C 
ATOM     16  C   UNL     1       4.485  10.104 -21.396  0.00  0.00    -0.025 A 
ATOM     17  C   UNL     1       4.083   9.602 -20.290  0.00  0.00    +0.046 C 
ENDBRANCH   6  10
BRANCH   5  18
ATOM     18  O   UNL     1       8.570   4.936 -19.354  0.00  0.00    -0.508 OA
ATOM     19  H   UNL     1       9.472   5.153 -19.227  0.00  0.00    +0.292 HD
ENDBRANCH   5  18
BRANCH   1  20
ATOM     20  C   UNL     1       5.893   5.263 -22.862  0.00  0.00    +0.038 C 
BRANCH  20  21
ATOM     21  C   UNL     1       4.650   4.999 -22.769  0.00  0.00    +0.005 C 
BRANCH  21  22
ATOM     22  C   UNL     1       4.180   3.923 -23.275  0.00  0.00    +0.000 C 
BRANCH  22  23
ATOM     23  C   UNL     1       2.914   3.759 -23.360  0.00  0.00    +0.000 C 
BRANCH  23  24
ATOM     24  C   UNL     1       2.156   4.749 -23.643  0.00  0.00    +0.000 C 
BRANCH  24  25
ATOM     25  C   UNL     1       1.022   4.551 -24.199  0.00  0.00    +0.000 C 
BRANCH  25  26
ATOM     26  C   UNL     1       0.051   4.074 -23.518  0.00  0.00    -0.000 C 
BRANCH  26  27
ATOM     27  C   UNL     1      -0.723   4.858 -22.870  0.00  0.00    -0.000 C 
BRANCH  27  28
ATOM     28  C   UNL     1      -1.855   4.436 -22.453  0.00  0.00    -0.000 C 
BRANCH  28  30
ATOM     29  C   UNL     1      -3.049   2.862 -21.455  0.00  0.00    +0.004 C 
ATOM     30  C   UNL     1      -1.916   3.389 -21.723  0.00  0.00    -0.003 C 
ENDBRANCH  28  30
ENDBRANCH  27  28
ENDBRANCH  26  27
ENDBRANCH  25  26
ENDBRANCH  24  25
ENDBRANCH  23  24
ENDBRANCH  22  23
ENDBRANCH  21  22
ENDBRANCH  20  21
ENDBRANCH   1  20
TORSDOF 12
ENDMDL
