MODEL 1
REMARK VINA RESULT:    -9.113      0.000      0.000
REMARK INTER + INTRA:         -11.811
REMARK INTER:                 -11.994
REMARK INTRA:                   0.183
REMARK UNBOUND:                 0.499
REMARK  Name = ZINC000005999141
REMARK  11 active torsions:
REMARK  status: ('A' for Active; 'I' for Inactive)
REMARK    1  A    between atoms: C_1  and  O_2
REMARK    2  A    between atoms: O_2  and  C_3
REMARK    3  A    between atoms: C_5  and  C_6
REMARK    4  A    between atoms: C_10  and  O_11
REMARK    5  A    between atoms: O_11  and  C_12
REMARK    6  A    between atoms: C_13  and  O_14
REMARK    7  A    between atoms: O_14  and  C_15
REMARK    8  A    between atoms: C_16  and  O_17
REMARK    9  A    between atoms: C_21  and  O_22
REMARK   10  A    between atoms: O_22  and  C_23
REMARK   11  A    between atoms: C_26  and  O_27
REMARK                            x       y       z     vdW  Elec       q    Type
REMARK                         _______ _______ _______ _____ _____    ______ ____
ROOT
ATOM      1  C   UNL     1       1.859   2.245 -22.699  0.00  0.00    +0.181 A 
ATOM      2  O   UNL     1       0.708   2.511 -22.158  0.00  0.00    -0.451 OA
ATOM      3  C   UNL     1      -0.287   2.894 -22.903  0.00  0.00    +0.147 A 
ATOM      4  C   UNL     1      -1.439   3.160 -22.363  0.00  0.00    +0.096 A 
ATOM      5  C   UNL     1      -2.433   3.543 -23.108  0.00  0.00    +0.169 A 
ATOM      6  C   UNL     1      -2.276   3.659 -24.393  0.00  0.00    +0.204 A 
ATOM      7  C   UNL     1      -1.124   3.393 -24.933  0.00  0.00    +0.177 A 
ATOM      8  C   UNL     1      -0.129   3.010 -24.188  0.00  0.00    +0.113 A 
ATOM      9  C   UNL     1       1.023   2.744 -24.730  0.00  0.00    +0.238 A 
ATOM     10  O   UNL     1       1.180   2.861 -26.014  0.00  0.00    -0.283 OA
ATOM     11  C   UNL     1       2.017   2.362 -23.984  0.00  0.00    +0.211 A 
ENDROOT
BRANCH   1  14
ATOM     12  C   UNL     1       4.849   2.282 -20.998  0.00  0.00    +0.162 A 
ATOM     13  C   UNL     1       3.854   2.665 -21.743  0.00  0.00    +0.061 A 
ATOM     14  C   UNL     1       2.853   1.862 -21.955  0.00  0.00    +0.025 A 
ATOM     15  C   UNL     1       2.847   0.677 -21.422  0.00  0.00    +0.015 A 
ATOM     16  C   UNL     1       3.843   0.293 -20.678  0.00  0.00    +0.050 A 
ATOM     17  C   UNL     1       4.843   1.096 -20.466  0.00  0.00    +0.158 A 
BRANCH  12  19
ATOM     18  C   UNL     1       6.457   3.645 -21.790  0.00  0.00    +0.277 C 
ATOM     19  O   UNL     1       5.849   3.084 -20.786  0.00  0.00    -0.491 OA
ENDBRANCH  12  19
BRANCH  17  20
ATOM     20  O   UNL     1       5.837   0.712 -19.722  0.00  0.00    -0.503 OA
ATOM     21  H   UNL     1       5.917  -0.187 -19.473  0.00  0.00    +0.292 HD
ENDBRANCH  17  20
ENDBRANCH   1  14
BRANCH   7  22
ATOM     22  O   UNL     1      -0.966   3.510 -26.219  0.00  0.00    -0.503 OA
ATOM     23  H   UNL     1      -1.218   2.809 -26.787  0.00  0.00    +0.292 HD
ENDBRANCH   7  22
BRANCH   6  24
ATOM     24  O   UNL     1      -3.270   4.042 -25.138  0.00  0.00    -0.488 OA
ATOM     25  C   UNL     1      -4.031   3.157 -25.711  0.00  0.00    +0.277 C 
ENDBRANCH   6  24
BRANCH   5  26
ATOM     26  O   UNL     1      -3.585   3.809 -22.568  0.00  0.00    -0.491 OA
ATOM     27  C   UNL     1      -4.131   2.959 -21.749  0.00  0.00    +0.277 C 
ENDBRANCH   5  26
BRANCH  11  28
ATOM     28  O   UNL     1       3.169   2.096 -24.525  0.00  0.00    -0.488 OA
ATOM     29  C   UNL     1       3.436   0.886 -24.922  0.00  0.00    +0.277 C 
ENDBRANCH  11  28
TORSDOF 7
ENDMDL
MODEL 2
REMARK VINA RESULT:    -8.419      1.606      7.566
REMARK INTER + INTRA:         -10.873
REMARK INTER:                 -12.465
REMARK INTRA:                   1.591
REMARK UNBOUND:                 0.499
REMARK  Name = ZINC000005999141
REMARK  11 active torsions:
REMARK  status: ('A' for Active; 'I' for Inactive)
REMARK    1  A    between atoms: C_1  and  O_2
REMARK    2  A    between atoms: O_2  and  C_3
REMARK    3  A    between atoms: C_5  and  C_6
REMARK    4  A    between atoms: C_10  and  O_11
REMARK    5  A    between atoms: O_11  and  C_12
REMARK    6  A    between atoms: C_13  and  O_14
REMARK    7  A    between atoms: O_14  and  C_15
REMARK    8  A    between atoms: C_16  and  O_17
REMARK    9  A    between atoms: C_21  and  O_22
REMARK   10  A    between atoms: O_22  and  C_23
REMARK   11  A    between atoms: C_26  and  O_27
REMARK                            x       y       z     vdW  Elec       q    Type
REMARK                         _______ _______ _______ _____ _____    ______ ____
ROOT
ATOM      1  C   UNL     1      -0.701   2.896 -23.521  0.00  0.00    +0.181 A 
ATOM      2  O   UNL     1       0.463   3.276 -23.956  0.00  0.00    -0.451 OA
ATOM      3  C   UNL     1       1.539   2.947 -23.305  0.00  0.00    +0.147 A 
ATOM      4  C   UNL     1       2.704   3.326 -23.740  0.00  0.00    +0.096 A 
ATOM      5  C   UNL     1       3.780   2.997 -23.090  0.00  0.00    +0.169 A 
ATOM      6  C   UNL     1       3.692   2.288 -22.004  0.00  0.00    +0.204 A 
ATOM      7  C   UNL     1       2.527   1.908 -21.569  0.00  0.00    +0.177 A 
ATOM      8  C   UNL     1       1.451   2.237 -22.219  0.00  0.00    +0.113 A 
ATOM      9  C   UNL     1       0.286   1.857 -21.783  0.00  0.00    +0.238 A 
ATOM     10  O   UNL     1       0.198   1.148 -20.698  0.00  0.00    -0.283 OA
ATOM     11  C   UNL     1      -0.790   2.187 -22.435  0.00  0.00    +0.211 A 
ENDROOT
BRANCH   1  14
ATOM     12  C   UNL     1      -3.937   3.864 -24.172  0.00  0.00    +0.162 A 
ATOM     13  C   UNL     1      -2.861   3.535 -23.521  0.00  0.00    +0.061 A 
ATOM     14  C   UNL     1      -1.777   3.225 -24.170  0.00  0.00    +0.025 A 
ATOM     15  C   UNL     1      -1.771   3.245 -25.470  0.00  0.00    +0.015 A 
ATOM     16  C   UNL     1      -2.847   3.574 -26.121  0.00  0.00    +0.050 A 
ATOM     17  C   UNL     1      -3.930   3.883 -25.472  0.00  0.00    +0.158 A 
BRANCH  12  19
ATOM     18  C   UNL     1      -5.394   3.457 -22.504  0.00  0.00    +0.277 C 
ATOM     19  O   UNL     1      -5.019   4.174 -23.523  0.00  0.00    -0.491 OA
ENDBRANCH  12  19
BRANCH  17  20
ATOM     20  O   UNL     1      -5.006   4.212 -26.123  0.00  0.00    -0.503 OA
ATOM     21  H   UNL     1      -5.085   4.006 -27.033  0.00  0.00    +0.292 HD
ENDBRANCH  17  20
ENDBRANCH   1  14
BRANCH   7  22
ATOM     22  O   UNL     1       2.439   1.198 -20.483  0.00  0.00    -0.503 OA
ATOM     23  H   UNL     1       1.687   0.661 -20.335  0.00  0.00    +0.292 HD
ENDBRANCH   7  22
BRANCH   6  24
ATOM     24  O   UNL     1       4.768   1.958 -21.353  0.00  0.00    -0.488 OA
ATOM     25  C   UNL     1       5.360   0.828 -21.606  0.00  0.00    +0.277 C 
ENDBRANCH   6  24
BRANCH   5  26
ATOM     26  O   UNL     1       4.944   3.377 -23.525  0.00  0.00    -0.491 OA
ATOM     27  C   UNL     1       5.388   4.566 -23.243  0.00  0.00    +0.277 C 
ENDBRANCH   5  26
BRANCH  11  28
ATOM     28  O   UNL     1      -1.954   1.807 -21.999  0.00  0.00    -0.488 OA
ATOM     29  C   UNL     1      -2.436   2.317 -20.904  0.00  0.00    +0.277 C 
ENDBRANCH  11  28
TORSDOF 7
ENDMDL
MODEL 3
REMARK VINA RESULT:    -8.083      1.807      7.377
REMARK INTER + INTRA:         -10.419
REMARK INTER:                 -11.093
REMARK INTRA:                   0.673
REMARK UNBOUND:                 0.499
REMARK  Name = ZINC000005999141
REMARK  11 active torsions:
REMARK  status: ('A' for Active; 'I' for Inactive)
REMARK    1  A    between atoms: C_1  and  O_2
REMARK    2  A    between atoms: O_2  and  C_3
REMARK    3  A    between atoms: C_5  and  C_6
REMARK    4  A    between atoms: C_10  and  O_11
REMARK    5  A    between atoms: O_11  and  C_12
REMARK    6  A    between atoms: C_13  and  O_14
REMARK    7  A    between atoms: O_14  and  C_15
REMARK    8  A    between atoms: C_16  and  O_17
REMARK    9  A    between atoms: C_21  and  O_22
REMARK   10  A    between atoms: O_22  and  C_23
REMARK   11  A    between atoms: C_26  and  O_27
REMARK                            x       y       z     vdW  Elec       q    Type
REMARK                         _______ _______ _______ _____ _____    ______ ____
ROOT
ATOM      1  C   UNL     1      -0.157   3.199 -23.719  0.00  0.00    +0.181 A 
ATOM      2  O   UNL     1       0.813   4.048 -23.886  0.00  0.00    -0.451 OA
ATOM      3  C   UNL     1       1.972   3.825 -23.343  0.00  0.00    +0.147 A 
ATOM      4  C   UNL     1       2.943   4.675 -23.509  0.00  0.00    +0.096 A 
ATOM      5  C   UNL     1       4.102   4.452 -22.967  0.00  0.00    +0.169 A 
ATOM      6  C   UNL     1       4.293   3.378 -22.258  0.00  0.00    +0.204 A 
ATOM      7  C   UNL     1       3.324   2.529 -22.092  0.00  0.00    +0.177 A 
ATOM      8  C   UNL     1       2.163   2.752 -22.634  0.00  0.00    +0.113 A 
ATOM      9  C   UNL     1       1.194   1.901 -22.468  0.00  0.00    +0.238 A 
ATOM     10  O   UNL     1       1.384   0.829 -21.760  0.00  0.00    -0.283 OA
ATOM     11  C   UNL     1       0.034   2.125 -23.011  0.00  0.00    +0.211 A 
ENDROOT
BRANCH   1  14
ATOM     12  C   UNL     1      -3.517   3.852 -24.053  0.00  0.00    +0.162 A 
ATOM     13  C   UNL     1      -2.357   3.630 -23.510  0.00  0.00    +0.061 A 
ATOM     14  C   UNL     1      -1.316   3.421 -24.261  0.00  0.00    +0.025 A 
ATOM     15  C   UNL     1      -1.437   3.435 -25.556  0.00  0.00    +0.015 A 
ATOM     16  C   UNL     1      -2.597   3.658 -26.099  0.00  0.00    +0.050 A 
ATOM     17  C   UNL     1      -3.637   3.866 -25.347  0.00  0.00    +0.158 A 
BRANCH  12  19
ATOM     18  C   UNL     1      -4.727   3.361 -22.218  0.00  0.00    +0.277 C 
ATOM     19  O   UNL     1      -4.557   4.061 -23.301  0.00  0.00    -0.491 OA
ENDBRANCH  12  19
BRANCH  17  20
ATOM     20  O   UNL     1      -4.797   4.089 -25.890  0.00  0.00    -0.503 OA
ATOM     21  H   UNL     1      -5.081   4.968 -26.044  0.00  0.00    +0.292 HD
ENDBRANCH  17  20
ENDBRANCH   1  14
BRANCH   7  22
ATOM     22  O   UNL     1       3.514   1.456 -21.383  0.00  0.00    -0.503 OA
ATOM     23  H   UNL     1       2.818   0.839 -21.270  0.00  0.00    +0.292 HD
ENDBRANCH   7  22
BRANCH   6  24
ATOM     24  O   UNL     1       5.453   3.155 -21.715  0.00  0.00    -0.488 OA
ATOM     25  C   UNL     1       6.381   2.545 -22.392  0.00  0.00    +0.277 C 
ENDBRANCH   6  24
BRANCH   5  26
ATOM     26  O   UNL     1       5.072   5.301 -23.133  0.00  0.00    -0.491 OA
ATOM     27  C   UNL     1       5.174   6.333 -22.347  0.00  0.00    +0.277 C 
ENDBRANCH   5  26
BRANCH  11  28
ATOM     28  O   UNL     1      -0.935   1.275 -22.844  0.00  0.00    -0.488 OA
ATOM     29  C   UNL     1      -1.450   1.100 -21.663  0.00  0.00    +0.277 C 
ENDBRANCH  11  28
TORSDOF 7
ENDMDL
MODEL 4
REMARK VINA RESULT:    -7.844      1.989      3.618
REMARK INTER + INTRA:         -10.097
REMARK INTER:                 -10.481
REMARK INTRA:                   0.384
REMARK UNBOUND:                 0.499
REMARK  Name = ZINC000005999141
REMARK  11 active torsions:
REMARK  status: ('A' for Active; 'I' for Inactive)
REMARK    1  A    between atoms: C_1  and  O_2
REMARK    2  A    between atoms: O_2  and  C_3
REMARK    3  A    between atoms: C_5  and  C_6
REMARK    4  A    between atoms: C_10  and  O_11
REMARK    5  A    between atoms: O_11  and  C_12
REMARK    6  A    between atoms: C_13  and  O_14
REMARK    7  A    between atoms: O_14  and  C_15
REMARK    8  A    between atoms: C_16  and  O_17
REMARK    9  A    between atoms: C_21  and  O_22
REMARK   10  A    between atoms: O_22  and  C_23
REMARK   11  A    between atoms: C_26  and  O_27
REMARK                            x       y       z     vdW  Elec       q    Type
REMARK                         _______ _______ _______ _____ _____    ______ ____
ROOT
ATOM      1  C   UNL     1       3.335   3.404 -22.901  0.00  0.00    +0.181 A 
ATOM      2  O   UNL     1       2.389   3.878 -23.656  0.00  0.00    -0.451 OA
ATOM      3  C   UNL     1       1.164   3.476 -23.492  0.00  0.00    +0.147 A 
ATOM      4  C   UNL     1       0.217   3.950 -24.247  0.00  0.00    +0.096 A 
ATOM      5  C   UNL     1      -1.008   3.548 -24.083  0.00  0.00    +0.169 A 
ATOM      6  C   UNL     1      -1.287   2.673 -23.164  0.00  0.00    +0.204 A 
ATOM      7  C   UNL     1      -0.341   2.199 -22.409  0.00  0.00    +0.177 A 
ATOM      8  C   UNL     1       0.885   2.601 -22.573  0.00  0.00    +0.113 A 
ATOM      9  C   UNL     1       1.830   2.126 -21.817  0.00  0.00    +0.238 A 
ATOM     10  O   UNL     1       1.551   1.251 -20.899  0.00  0.00    -0.283 OA
ATOM     11  C   UNL     1       3.056   2.528 -21.982  0.00  0.00    +0.211 A 
ENDROOT
BRANCH   1  14
ATOM     12  C   UNL     1       6.172   5.341 -22.725  0.00  0.00    +0.162 A 
ATOM     13  C   UNL     1       4.946   4.940 -22.561  0.00  0.00    +0.061 A 
ATOM     14  C   UNL     1       4.560   3.805 -23.065  0.00  0.00    +0.025 A 
ATOM     15  C   UNL     1       5.400   3.072 -23.733  0.00  0.00    +0.015 A 
ATOM     16  C   UNL     1       6.626   3.473 -23.896  0.00  0.00    +0.050 A 
ATOM     17  C   UNL     1       7.012   4.607 -23.393  0.00  0.00    +0.158 A 
BRANCH  12  19
ATOM     18  C   UNL     1       5.682   7.293 -21.715  0.00  0.00    +0.277 C 
ATOM     19  O   UNL     1       6.557   6.475 -22.221  0.00  0.00    -0.491 OA
ENDBRANCH  12  19
BRANCH  17  20
ATOM     20  O   UNL     1       8.237   5.008 -23.557  0.00  0.00    -0.503 OA
ATOM     21  H   UNL     1       8.698   5.411 -22.848  0.00  0.00    +0.292 HD
ENDBRANCH  17  20
ENDBRANCH   1  14
BRANCH   7  22
ATOM     22  O   UNL     1      -0.621   1.323 -21.490  0.00  0.00    -0.503 OA
ATOM     23  H   UNL     1      -1.328   0.721 -21.616  0.00  0.00    +0.292 HD
ENDBRANCH   7  22
BRANCH   6  24
ATOM     24  O   UNL     1      -2.512   2.271 -23.000  0.00  0.00    -0.488 OA
ATOM     25  C   UNL     1      -3.297   2.896 -22.172  0.00  0.00    +0.277 C 
ENDBRANCH   6  24
BRANCH   5  26
ATOM     26  O   UNL     1      -1.953   4.022 -24.838  0.00  0.00    -0.491 OA
ATOM     27  C   UNL     1      -2.234   3.445 -25.969  0.00  0.00    +0.277 C 
ENDBRANCH   5  26
BRANCH  11  28
ATOM     28  O   UNL     1       4.001   2.054 -21.226  0.00  0.00    -0.488 OA
ATOM     29  C   UNL     1       4.332   0.799 -21.311  0.00  0.00    +0.277 C 
ENDBRANCH  11  28
TORSDOF 7
ENDMDL
MODEL 5
REMARK VINA RESULT:    -7.814      1.730      7.119
REMARK INTER + INTRA:         -10.056
REMARK INTER:                 -10.794
REMARK INTRA:                   0.738
REMARK UNBOUND:                 0.499
REMARK  Name = ZINC000005999141
REMARK  11 active torsions:
REMARK  status: ('A' for Active; 'I' for Inactive)
REMARK    1  A    between atoms: C_1  and  O_2
REMARK    2  A    between atoms: O_2  and  C_3
REMARK    3  A    between atoms: C_5  and  C_6
REMARK    4  A    between atoms: C_10  and  O_11
REMARK    5  A    between atoms: O_11  and  C_12
REMARK    6  A    between atoms: C_13  and  O_14
REMARK    7  A    between atoms: O_14  and  C_15
REMARK    8  A    between atoms: C_16  and  O_17
REMARK    9  A    between atoms: C_21  and  O_22
REMARK   10  A    between atoms: O_22  and  C_23
REMARK   11  A    between atoms: C_26  and  O_27
REMARK                            x       y       z     vdW  Elec       q    Type
REMARK                         _______ _______ _______ _____ _____    ______ ____
ROOT
ATOM      1  C   UNL     1      -0.568   3.115 -22.558  0.00  0.00    +0.181 A 
ATOM      2  O   UNL     1       0.173   2.113 -22.189  0.00  0.00    -0.451 OA
ATOM      3  C   UNL     1       1.460   2.155 -22.368  0.00  0.00    +0.147 A 
ATOM      4  C   UNL     1       2.201   1.153 -21.999  0.00  0.00    +0.096 A 
ATOM      5  C   UNL     1       3.488   1.195 -22.179  0.00  0.00    +0.169 A 
ATOM      6  C   UNL     1       4.034   2.239 -22.727  0.00  0.00    +0.204 A 
ATOM      7  C   UNL     1       3.293   3.241 -23.097  0.00  0.00    +0.177 A 
ATOM      8  C   UNL     1       2.006   3.200 -22.917  0.00  0.00    +0.113 A 
ATOM      9  C   UNL     1       1.265   4.203 -23.287  0.00  0.00    +0.238 A 
ATOM     10  O   UNL     1       1.811   5.246 -23.835  0.00  0.00    -0.283 OA
ATOM     11  C   UNL     1      -0.022   4.160 -23.107  0.00  0.00    +0.211 A 
ENDROOT
BRANCH   1  14
ATOM     12  C   UNL     1      -3.944   3.206 -23.207  0.00  0.00    +0.162 A 
ATOM     13  C   UNL     1      -2.658   3.248 -23.387  0.00  0.00    +0.061 A 
ATOM     14  C   UNL     1      -1.854   3.074 -22.379  0.00  0.00    +0.025 A 
ATOM     15  C   UNL     1      -2.338   2.858 -21.192  0.00  0.00    +0.015 A 
ATOM     16  C   UNL     1      -3.625   2.817 -21.012  0.00  0.00    +0.050 A 
ATOM     17  C   UNL     1      -4.428   2.991 -22.019  0.00  0.00    +0.158 A 
BRANCH  12  19
ATOM     18  C   UNL     1      -4.404   4.169 -25.190  0.00  0.00    +0.277 C 
ATOM     19  O   UNL     1      -4.747   3.381 -24.214  0.00  0.00    -0.491 OA
ENDBRANCH  12  19
BRANCH  17  20
ATOM     20  O   UNL     1      -5.715   2.949 -21.839  0.00  0.00    -0.503 OA
ATOM     21  H   UNL     1      -6.287   2.827 -22.571  0.00  0.00    +0.292 HD
ENDBRANCH  17  20
ENDBRANCH   1  14
BRANCH   7  22
ATOM     22  O   UNL     1       3.839   4.286 -23.645  0.00  0.00    -0.503 OA
ATOM     23  H   UNL     1       4.630   4.642 -23.291  0.00  0.00    +0.292 HD
ENDBRANCH   7  22
BRANCH   6  24
ATOM     24  O   UNL     1       5.320   2.281 -22.907  0.00  0.00    -0.488 OA
ATOM     25  C   UNL     1       6.070   2.957 -22.086  0.00  0.00    +0.277 C 
ENDBRANCH   6  24
BRANCH   5  26
ATOM     26  O   UNL     1       4.228   0.193 -21.809  0.00  0.00    -0.491 OA
ATOM     27  C   UNL     1       4.585   0.072 -20.564  0.00  0.00    +0.277 C 
ENDBRANCH   5  26
BRANCH  11  28
ATOM     28  O   UNL     1      -0.762   5.162 -23.477  0.00  0.00    -0.488 OA
ATOM     29  C   UNL     1      -1.070   6.092 -22.621  0.00  0.00    +0.277 C 
ENDBRANCH  11  28
TORSDOF 7
ENDMDL
MODEL 6
REMARK VINA RESULT:    -7.740      3.007      7.276
REMARK INTER + INTRA:          -9.957
REMARK INTER:                 -10.117
REMARK INTRA:                   0.160
REMARK UNBOUND:                 0.499
REMARK  Name = ZINC000005999141
REMARK  11 active torsions:
REMARK  status: ('A' for Active; 'I' for Inactive)
REMARK    1  A    between atoms: C_1  and  O_2
REMARK    2  A    between atoms: O_2  and  C_3
REMARK    3  A    between atoms: C_5  and  C_6
REMARK    4  A    between atoms: C_10  and  O_11
REMARK    5  A    between atoms: O_11  and  C_12
REMARK    6  A    between atoms: C_13  and  O_14
REMARK    7  A    between atoms: O_14  and  C_15
REMARK    8  A    between atoms: C_16  and  O_17
REMARK    9  A    between atoms: C_21  and  O_22
REMARK   10  A    between atoms: O_22  and  C_23
REMARK   11  A    between atoms: C_26  and  O_27
REMARK                            x       y       z     vdW  Elec       q    Type
REMARK                         _______ _______ _______ _____ _____    ______ ____
ROOT
ATOM      1  C   UNL     1       2.746   4.320 -23.425  0.00  0.00    +0.181 A 
ATOM      2  O   UNL     1       2.848   5.504 -22.900  0.00  0.00    -0.451 OA
ATOM      3  C   UNL     1       4.013   5.961 -22.548  0.00  0.00    +0.147 A 
ATOM      4  C   UNL     1       4.115   7.146 -22.022  0.00  0.00    +0.096 A 
ATOM      5  C   UNL     1       5.280   7.603 -21.670  0.00  0.00    +0.169 A 
ATOM      6  C   UNL     1       6.343   6.876 -21.844  0.00  0.00    +0.204 A 
ATOM      7  C   UNL     1       6.242   5.691 -22.369  0.00  0.00    +0.177 A 
ATOM      8  C   UNL     1       5.076   5.234 -22.722  0.00  0.00    +0.113 A 
ATOM      9  C   UNL     1       4.975   4.049 -23.248  0.00  0.00    +0.238 A 
ATOM     10  O   UNL     1       6.038   3.322 -23.421  0.00  0.00    -0.283 OA
ATOM     11  C   UNL     1       3.810   3.593 -23.599  0.00  0.00    +0.211 A 
ENDROOT
BRANCH   1  14
ATOM     12  C   UNL     1      -0.278   2.687 -23.299  0.00  0.00    +0.162 A 
ATOM     13  C   UNL     1       0.887   3.144 -22.946  0.00  0.00    +0.061 A 
ATOM     14  C   UNL     1       1.582   3.863 -23.777  0.00  0.00    +0.025 A 
ATOM     15  C   UNL     1       1.113   4.124 -24.961  0.00  0.00    +0.015 A 
ATOM     16  C   UNL     1      -0.052   3.666 -25.314  0.00  0.00    +0.050 A 
ATOM     17  C   UNL     1      -0.747   2.948 -24.483  0.00  0.00    +0.158 A 
BRANCH  12  19
ATOM     18  C   UNL     1      -0.384   1.371 -21.475  0.00  0.00    +0.277 C 
ATOM     19  O   UNL     1      -0.973   1.969 -22.468  0.00  0.00    -0.491 OA
ENDBRANCH  12  19
BRANCH  17  20
ATOM     20  O   UNL     1      -1.912   2.491 -24.836  0.00  0.00    -0.503 OA
ATOM     21  H   UNL     1      -2.601   2.425 -24.205  0.00  0.00    +0.292 HD
ENDBRANCH  17  20
ENDBRANCH   1  14
BRANCH   7  22
ATOM     22  O   UNL     1       7.305   4.964 -22.543  0.00  0.00    -0.503 OA
ATOM     23  H   UNL     1       7.750   4.601 -21.803  0.00  0.00    +0.292 HD
ENDBRANCH   7  22
BRANCH   6  24
ATOM     24  O   UNL     1       7.508   7.332 -21.492  0.00  0.00    -0.488 OA
ATOM     25  C   UNL     1       7.927   7.175 -20.271  0.00  0.00    +0.277 C 
ENDBRANCH   6  24
BRANCH   5  26
ATOM     26  O   UNL     1       5.382   8.787 -21.144  0.00  0.00    -0.491 OA
ATOM     27  C   UNL     1       4.392   9.626 -21.235  0.00  0.00    +0.277 C 
ENDBRANCH   5  26
BRANCH  11  28
ATOM     28  O   UNL     1       3.709   2.408 -24.125  0.00  0.00    -0.488 OA
ATOM     29  C   UNL     1       3.852   1.352 -23.380  0.00  0.00    +0.277 C 
ENDBRANCH  11  28
TORSDOF 7
ENDMDL
MODEL 7
REMARK VINA RESULT:    -7.724      1.363      2.338
REMARK INTER + INTRA:          -9.935
REMARK INTER:                 -10.444
REMARK INTRA:                   0.509
REMARK UNBOUND:                 0.499
REMARK  Name = ZINC000005999141
REMARK  11 active torsions:
REMARK  status: ('A' for Active; 'I' for Inactive)
REMARK    1  A    between atoms: C_1  and  O_2
REMARK    2  A    between atoms: O_2  and  C_3
REMARK    3  A    between atoms: C_5  and  C_6
REMARK    4  A    between atoms: C_10  and  O_11
REMARK    5  A    between atoms: O_11  and  C_12
REMARK    6  A    between atoms: C_13  and  O_14
REMARK    7  A    between atoms: O_14  and  C_15
REMARK    8  A    between atoms: C_16  and  O_17
REMARK    9  A    between atoms: C_21  and  O_22
REMARK   10  A    between atoms: O_22  and  C_23
REMARK   11  A    between atoms: C_26  and  O_27
REMARK                            x       y       z     vdW  Elec       q    Type
REMARK                         _______ _______ _______ _____ _____    ______ ____
ROOT
ATOM      1  C   UNL     1       1.116   3.349 -23.393  0.00  0.00    +0.181 A 
ATOM      2  O   UNL     1       0.232   3.418 -22.444  0.00  0.00    -0.451 OA
ATOM      3  C   UNL     1      -1.034   3.453 -22.736  0.00  0.00    +0.147 A 
ATOM      4  C   UNL     1      -1.920   3.521 -21.786  0.00  0.00    +0.096 A 
ATOM      5  C   UNL     1      -3.186   3.556 -22.079  0.00  0.00    +0.169 A 
ATOM      6  C   UNL     1      -3.567   3.523 -23.322  0.00  0.00    +0.204 A 
ATOM      7  C   UNL     1      -2.683   3.454 -24.271  0.00  0.00    +0.177 A 
ATOM      8  C   UNL     1      -1.416   3.419 -23.979  0.00  0.00    +0.113 A 
ATOM      9  C   UNL     1      -0.531   3.351 -24.929  0.00  0.00    +0.238 A 
ATOM     10  O   UNL     1      -0.912   3.317 -26.171  0.00  0.00    -0.283 OA
ATOM     11  C   UNL     1       0.735   3.316 -24.636  0.00  0.00    +0.211 A 
ENDROOT
BRANCH   1  14
ATOM     12  C   UNL     1       4.156   2.227 -22.241  0.00  0.00    +0.162 A 
ATOM     13  C   UNL     1       2.890   2.261 -22.532  0.00  0.00    +0.061 A 
ATOM     14  C   UNL     1       2.382   3.314 -23.102  0.00  0.00    +0.025 A 
ATOM     15  C   UNL     1       3.141   4.333 -23.379  0.00  0.00    +0.015 A 
ATOM     16  C   UNL     1       4.408   4.298 -23.087  0.00  0.00    +0.050 A 
ATOM     17  C   UNL     1       4.915   3.246 -22.518  0.00  0.00    +0.158 A 
BRANCH  12  19
ATOM     18  C   UNL     1       3.915   0.412 -20.929  0.00  0.00    +0.277 C 
ATOM     19  O   UNL     1       4.663   1.175 -21.672  0.00  0.00    -0.491 OA
ENDBRANCH  12  19
BRANCH  17  20
ATOM     20  O   UNL     1       6.181   3.211 -22.227  0.00  0.00    -0.503 OA
ATOM     21  H   UNL     1       6.455   3.055 -21.345  0.00  0.00    +0.292 HD
ENDBRANCH  17  20
ENDBRANCH   1  14
BRANCH   7  22
ATOM     22  O   UNL     1      -3.064   3.420 -25.514  0.00  0.00    -0.503 OA
ATOM     23  H   UNL     1      -3.548   4.137 -25.875  0.00  0.00    +0.292 HD
ENDBRANCH   7  22
BRANCH   6  24
ATOM     24  O   UNL     1      -4.833   3.558 -23.614  0.00  0.00    -0.488 OA
ATOM     25  C   UNL     1      -5.302   4.515 -24.358  0.00  0.00    +0.277 C 
ENDBRANCH   6  24
BRANCH   5  26
ATOM     26  O   UNL     1      -4.070   3.625 -21.129  0.00  0.00    -0.491 OA
ATOM     27  C   UNL     1      -3.704   3.493 -19.889  0.00  0.00    +0.277 C 
ENDBRANCH   5  26
BRANCH  11  28
ATOM     28  O   UNL     1       1.619   3.247 -25.586  0.00  0.00    -0.488 OA
ATOM     29  C   UNL     1       1.968   2.090 -26.067  0.00  0.00    +0.277 C 
ENDBRANCH  11  28
TORSDOF 7
ENDMDL
MODEL 8
REMARK VINA RESULT:    -7.675      1.940      3.200
REMARK INTER + INTRA:          -9.868
REMARK INTER:                 -10.366
REMARK INTRA:                   0.499
REMARK UNBOUND:                 0.499
REMARK  Name = ZINC000005999141
REMARK  11 active torsions:
REMARK  status: ('A' for Active; 'I' for Inactive)
REMARK    1  A    between atoms: C_1  and  O_2
REMARK    2  A    between atoms: O_2  and  C_3
REMARK    3  A    between atoms: C_5  and  C_6
REMARK    4  A    between atoms: C_10  and  O_11
REMARK    5  A    between atoms: O_11  and  C_12
REMARK    6  A    between atoms: C_13  and  O_14
REMARK    7  A    between atoms: O_14  and  C_15
REMARK    8  A    between atoms: C_16  and  O_17
REMARK    9  A    between atoms: C_21  and  O_22
REMARK   10  A    between atoms: O_22  and  C_23
REMARK   11  A    between atoms: C_26  and  O_27
REMARK                            x       y       z     vdW  Elec       q    Type
REMARK                         _______ _______ _______ _____ _____    ______ ____
ROOT
ATOM      1  C   UNL     1       1.358   2.741 -23.054  0.00  0.00    +0.181 A 
ATOM      2  O   UNL     1       0.543   3.465 -23.761  0.00  0.00    -0.451 OA
ATOM      3  C   UNL     1      -0.738   3.391 -23.553  0.00  0.00    +0.147 A 
ATOM      4  C   UNL     1      -1.555   4.115 -24.261  0.00  0.00    +0.096 A 
ATOM      5  C   UNL     1      -2.836   4.041 -24.053  0.00  0.00    +0.169 A 
ATOM      6  C   UNL     1      -3.301   3.244 -23.138  0.00  0.00    +0.204 A 
ATOM      7  C   UNL     1      -2.485   2.520 -22.431  0.00  0.00    +0.177 A 
ATOM      8  C   UNL     1      -1.204   2.593 -22.639  0.00  0.00    +0.113 A 
ATOM      9  C   UNL     1      -0.388   1.868 -21.931  0.00  0.00    +0.238 A 
ATOM     10  O   UNL     1      -0.853   1.071 -21.017  0.00  0.00    -0.283 OA
ATOM     11  C   UNL     1       0.893   1.943 -22.140  0.00  0.00    +0.211 A 
ENDROOT
BRANCH   1  14
ATOM     12  C   UNL     1       4.614   3.843 -22.928  0.00  0.00    +0.162 A 
ATOM     13  C   UNL     1       3.333   3.771 -22.720  0.00  0.00    +0.061 A 
ATOM     14  C   UNL     1       2.639   2.814 -23.262  0.00  0.00    +0.025 A 
ATOM     15  C   UNL     1       3.227   1.929 -24.011  0.00  0.00    +0.015 A 
ATOM     16  C   UNL     1       4.509   2.002 -24.219  0.00  0.00    +0.050 A 
ATOM     17  C   UNL     1       5.202   2.959 -23.677  0.00  0.00    +0.158 A 
BRANCH  12  19
ATOM     18  C   UNL     1       4.871   6.025 -22.431  0.00  0.00    +0.277 C 
ATOM     19  O   UNL     1       5.306   4.800 -22.386  0.00  0.00    -0.491 OA
ENDBRANCH  12  19
BRANCH  17  20
ATOM     20  O   UNL     1       6.483   3.032 -23.885  0.00  0.00    -0.503 OA
ATOM     21  H   UNL     1       6.968   2.259 -24.099  0.00  0.00    +0.292 HD
ENDBRANCH  17  20
ENDBRANCH   1  14
BRANCH   7  22
ATOM     22  O   UNL     1      -2.951   1.722 -21.516  0.00  0.00    -0.503 OA
ATOM     23  H   UNL     1      -3.804   1.347 -21.612  0.00  0.00    +0.292 HD
ENDBRANCH   7  22
BRANCH   6  24
ATOM     24  O   UNL     1      -4.582   3.170 -22.930  0.00  0.00    -0.488 OA
ATOM     25  C   UNL     1      -5.070   3.476 -21.764  0.00  0.00    +0.277 C 
ENDBRANCH   6  24
BRANCH   5  26
ATOM     26  O   UNL     1      -3.651   4.765 -24.760  0.00  0.00    -0.491 OA
ATOM     27  C   UNL     1      -4.058   4.342 -25.920  0.00  0.00    +0.277 C 
ENDBRANCH   5  26
BRANCH  11  28
ATOM     28  O   UNL     1       1.708   1.218 -21.432  0.00  0.00    -0.488 OA
ATOM     29  C   UNL     1       2.019   1.583 -20.223  0.00  0.00    +0.277 C 
ENDBRANCH  11  28
TORSDOF 7
ENDMDL
MODEL 9
REMARK VINA RESULT:    -7.563      1.906      7.305
REMARK INTER + INTRA:          -9.718
REMARK INTER:                  -9.919
REMARK INTRA:                   0.201
REMARK UNBOUND:                 0.499
REMARK  Name = ZINC000005999141
REMARK  11 active torsions:
REMARK  status: ('A' for Active; 'I' for Inactive)
REMARK    1  A    between atoms: C_1  and  O_2
REMARK    2  A    between atoms: O_2  and  C_3
REMARK    3  A    between atoms: C_5  and  C_6
REMARK    4  A    between atoms: C_10  and  O_11
REMARK    5  A    between atoms: O_11  and  C_12
REMARK    6  A    between atoms: C_13  and  O_14
REMARK    7  A    between atoms: O_14  and  C_15
REMARK    8  A    between atoms: C_16  and  O_17
REMARK    9  A    between atoms: C_21  and  O_22
REMARK   10  A    between atoms: O_22  and  C_23
REMARK   11  A    between atoms: C_26  and  O_27
REMARK                            x       y       z     vdW  Elec       q    Type
REMARK                         _______ _______ _______ _____ _____    ______ ____
ROOT
ATOM      1  C   UNL     1       1.755   3.523 -23.376  0.00  0.00    +0.181 A 
ATOM      2  O   UNL     1       2.526   4.562 -23.259  0.00  0.00    -0.451 OA
ATOM      3  C   UNL     1       3.793   4.407 -23.013  0.00  0.00    +0.147 A 
ATOM      4  C   UNL     1       4.565   5.446 -22.896  0.00  0.00    +0.096 A 
ATOM      5  C   UNL     1       5.832   5.291 -22.650  0.00  0.00    +0.169 A 
ATOM      6  C   UNL     1       6.327   4.096 -22.520  0.00  0.00    +0.204 A 
ATOM      7  C   UNL     1       5.556   3.056 -22.637  0.00  0.00    +0.177 A 
ATOM      8  C   UNL     1       4.288   3.212 -22.883  0.00  0.00    +0.113 A 
ATOM      9  C   UNL     1       3.517   2.172 -23.000  0.00  0.00    +0.238 A 
ATOM     10  O   UNL     1       4.011   0.977 -22.870  0.00  0.00    -0.283 OA
ATOM     11  C   UNL     1       2.250   2.328 -23.246  0.00  0.00    +0.211 A 
ENDROOT
BRANCH   1  14
ATOM     12  C   UNL     1      -1.611   4.039 -22.892  0.00  0.00    +0.162 A 
ATOM     13  C   UNL     1      -0.345   3.884 -22.645  0.00  0.00    +0.061 A 
ATOM     14  C   UNL     1       0.488   3.678 -23.622  0.00  0.00    +0.025 A 
ATOM     15  C   UNL     1       0.054   3.627 -24.846  0.00  0.00    +0.015 A 
ATOM     16  C   UNL     1      -1.214   3.782 -25.093  0.00  0.00    +0.050 A 
ATOM     17  C   UNL     1      -2.046   3.988 -24.116  0.00  0.00    +0.158 A 
BRANCH  12  19
ATOM     18  C   UNL     1      -2.637   3.320 -21.021  0.00  0.00    +0.277 C 
ATOM     19  O   UNL     1      -2.443   4.244 -21.915  0.00  0.00    -0.491 OA
ENDBRANCH  12  19
BRANCH  17  20
ATOM     20  O   UNL     1      -3.313   4.143 -24.363  0.00  0.00    -0.503 OA
ATOM     21  H   UNL     1      -3.846   3.398 -24.560  0.00  0.00    +0.292 HD
ENDBRANCH  17  20
ENDBRANCH   1  14
BRANCH   7  22
ATOM     22  O   UNL     1       6.051   1.861 -22.507  0.00  0.00    -0.503 OA
ATOM     23  H   UNL     1       5.671   1.261 -21.897  0.00  0.00    +0.292 HD
ENDBRANCH   7  22
BRANCH   6  24
ATOM     24  O   UNL     1       7.594   3.940 -22.274  0.00  0.00    -0.488 OA
ATOM     25  C   UNL     1       8.458   4.003 -23.244  0.00  0.00    +0.277 C 
ENDBRANCH   6  24
BRANCH   5  26
ATOM     26  O   UNL     1       6.604   6.330 -22.533  0.00  0.00    -0.491 OA
ATOM     27  C   UNL     1       6.346   7.234 -21.635  0.00  0.00    +0.277 C 
ENDBRANCH   5  26
BRANCH  11  28
ATOM     28  O   UNL     1       1.478   1.288 -23.363  0.00  0.00    -0.488 OA
ATOM     29  C   UNL     1       0.922   0.770 -22.307  0.00  0.00    +0.277 C 
ENDBRANCH  11  28
TORSDOF 7
ENDMDL
