MODEL 1
REMARK VINA RESULT:   -10.268      0.000      0.000
REMARK INTER + INTRA:         -10.268
REMARK INTER:                 -10.268
REMARK INTRA:                   0.000
REMARK UNBOUND:                 0.000
REMARK  Name = ZINC000000338264
REMARK  0 active torsions:
REMARK  status: ('A' for Active; 'I' for Inactive)
REMARK                            x       y       z     vdW  Elec       q    Type
REMARK                         _______ _______ _______ _____ _____    ______ ____
ROOT
ATOM      1  C   UNL     1       1.118   2.204 -23.199  0.00  0.00    +0.020 C 
ATOM      2  C   UNL     1      -0.071   2.257 -22.677  0.00  0.00    +0.036 C 
ATOM      3  C   UNL     1      -0.408   1.835 -21.495  0.00  0.00    +0.335 C 
ATOM      4  O   UNL     1      -1.678   2.059 -21.334  0.00  0.00    -0.457 OA
ATOM      5  C   UNL     1      -2.127   2.619 -22.419  0.00  0.00    +0.192 C 
ATOM      6  C   UNL     1      -3.368   2.971 -22.582  0.00  0.00    +0.063 C 
ATOM      7  C   UNL     1      -4.286   2.801 -21.677  0.00  0.00    -0.069 C 
ATOM      8  C   UNL     1      -4.113   2.267 -20.504  0.00  0.00    +0.008 C 
ATOM      9  C   UNL     1      -5.406   3.257 -22.151  0.00  0.00    +0.031 C 
ATOM     10  C   UNL     1      -5.181   3.710 -23.349  0.00  0.00    +0.013 C 
ATOM     11  C   UNL     1      -3.922   3.533 -23.614  0.00  0.00    +0.025 C 
ATOM     12  C   UNL     1      -3.372   3.882 -24.740  0.00  0.00    -0.073 C 
ATOM     13  C   UNL     1      -4.167   4.430 -25.610  0.00  0.00    +0.008 C 
ATOM     14  C   UNL     1      -2.132   3.754 -25.111  0.00  0.00    +0.031 C 
ATOM     15  C   UNL     1      -1.136   3.246 -24.446  0.00  0.00    +0.016 C 
ATOM     16  O   UNL     1       0.388   1.286 -20.624  0.00  0.00    -0.245 OA
ATOM     17  C   UNL     1      -1.134   2.741 -23.249  0.00  0.00    +0.067 C 
ENDROOT
TORSDOF 0
ENDMDL
MODEL 2
REMARK VINA RESULT:   -10.179      1.307      3.043
REMARK INTER + INTRA:         -10.179
REMARK INTER:                 -10.179
REMARK INTRA:                   0.000
REMARK UNBOUND:                 0.000
REMARK  Name = ZINC000000338264
REMARK  0 active torsions:
REMARK  status: ('A' for Active; 'I' for Inactive)
REMARK                            x       y       z     vdW  Elec       q    Type
REMARK                         _______ _______ _______ _____ _____    ______ ____
ROOT
ATOM      1  C   UNL     1       0.000   1.517 -21.036  0.00  0.00    +0.020 C 
ATOM      2  C   UNL     1      -0.549   1.978 -22.120  0.00  0.00    +0.036 C 
ATOM      3  C   UNL     1       0.046   2.158 -23.262  0.00  0.00    +0.335 C 
ATOM      4  O   UNL     1      -0.827   2.630 -24.101  0.00  0.00    -0.457 OA
ATOM      5  C   UNL     1      -1.963   2.743 -23.476  0.00  0.00    +0.192 C 
ATOM      6  C   UNL     1      -3.048   3.190 -24.037  0.00  0.00    +0.063 C 
ATOM      7  C   UNL     1      -3.107   3.569 -25.279  0.00  0.00    -0.069 C 
ATOM      8  C   UNL     1      -2.123   3.562 -26.129  0.00  0.00    +0.008 C 
ATOM      9  C   UNL     1      -4.324   3.957 -25.522  0.00  0.00    +0.031 C 
ATOM     10  C   UNL     1      -5.016   3.817 -24.431  0.00  0.00    +0.013 C 
ATOM     11  C   UNL     1      -4.227   3.343 -23.514  0.00  0.00    +0.025 C 
ATOM     12  C   UNL     1      -4.614   3.088 -22.299  0.00  0.00    -0.073 C 
ATOM     13  C   UNL     1      -5.863   3.337 -22.041  0.00  0.00    +0.008 C 
ATOM     14  C   UNL     1      -3.916   2.616 -21.308  0.00  0.00    +0.031 C 
ATOM     15  C   UNL     1      -2.659   2.283 -21.288  0.00  0.00    +0.016 C 
ATOM     16  O   UNL     1       1.296   1.908 -23.520  0.00  0.00    -0.245 OA
ATOM     17  C   UNL     1      -1.791   2.340 -22.253  0.00  0.00    +0.067 C 
ENDROOT
TORSDOF 0
ENDMDL
MODEL 3
REMARK VINA RESULT:    -9.541      1.411      1.689
REMARK INTER + INTRA:          -9.541
REMARK INTER:                  -9.541
REMARK INTRA:                   0.000
REMARK UNBOUND:                 0.000
REMARK  Name = ZINC000000338264
REMARK  0 active torsions:
REMARK  status: ('A' for Active; 'I' for Inactive)
REMARK                            x       y       z     vdW  Elec       q    Type
REMARK                         _______ _______ _______ _____ _____    ______ ____
ROOT
ATOM      1  C   UNL     1       0.758   3.454 -25.478  0.00  0.00    +0.020 C 
ATOM      2  C   UNL     1      -0.073   3.443 -24.480  0.00  0.00    +0.036 C 
ATOM      3  C   UNL     1       0.244   3.386 -23.221  0.00  0.00    +0.335 C 
ATOM      4  O   UNL     1      -0.855   3.396 -22.527  0.00  0.00    -0.457 OA
ATOM      5  C   UNL     1      -1.853   3.459 -23.359  0.00  0.00    +0.192 C 
ATOM      6  C   UNL     1      -3.098   3.484 -22.984  0.00  0.00    +0.063 C 
ATOM      7  C   UNL     1      -3.471   3.450 -21.739  0.00  0.00    -0.069 C 
ATOM      8  C   UNL     1      -2.683   3.386 -20.706  0.00  0.00    +0.008 C 
ATOM      9  C   UNL     1      -4.769   3.490 -21.708  0.00  0.00    +0.031 C 
ATOM     10  C   UNL     1      -5.199   3.549 -22.934  0.00  0.00    +0.013 C 
ATOM     11  C   UNL     1      -4.166   3.546 -23.721  0.00  0.00    +0.025 C 
ATOM     12  C   UNL     1      -4.254   3.597 -25.017  0.00  0.00    -0.073 C 
ATOM     13  C   UNL     1      -5.460   3.653 -25.499  0.00  0.00    +0.008 C 
ATOM     14  C   UNL     1      -3.294   3.599 -25.896  0.00  0.00    +0.031 C 
ATOM     15  C   UNL     1      -2.011   3.550 -25.694  0.00  0.00    +0.016 C 
ATOM     16  O   UNL     1       1.451   3.330 -22.738  0.00  0.00    -0.245 OA
ATOM     17  C   UNL     1      -1.370   3.488 -24.565  0.00  0.00    +0.067 C 
ENDROOT
TORSDOF 0
ENDMDL
MODEL 4
REMARK VINA RESULT:    -9.059      1.758      4.575
REMARK INTER + INTRA:          -9.059
REMARK INTER:                  -9.059
REMARK INTRA:                   0.000
REMARK UNBOUND:                 0.000
REMARK  Name = ZINC000000338264
REMARK  0 active torsions:
REMARK  status: ('A' for Active; 'I' for Inactive)
REMARK                            x       y       z     vdW  Elec       q    Type
REMARK                         _______ _______ _______ _____ _____    ______ ____
ROOT
ATOM      1  C   UNL     1      -4.298   2.372 -20.129  0.00  0.00    +0.020 C 
ATOM      2  C   UNL     1      -3.981   2.723 -21.339  0.00  0.00    +0.036 C 
ATOM      3  C   UNL     1      -4.796   3.182 -22.241  0.00  0.00    +0.335 C 
ATOM      4  O   UNL     1      -4.112   3.420 -23.320  0.00  0.00    -0.457 OA
ATOM      5  C   UNL     1      -2.871   3.106 -23.084  0.00  0.00    +0.192 C 
ATOM      6  C   UNL     1      -1.923   3.227 -23.965  0.00  0.00    +0.063 C 
ATOM      7  C   UNL     1      -2.117   3.673 -25.171  0.00  0.00    -0.069 C 
ATOM      8  C   UNL     1      -3.255   4.056 -25.670  0.00  0.00    +0.008 C 
ATOM      9  C   UNL     1      -0.974   3.668 -25.790  0.00  0.00    +0.031 C 
ATOM     10  C   UNL     1      -0.074   3.219 -24.967  0.00  0.00    +0.013 C 
ATOM     11  C   UNL     1      -0.660   2.947 -23.840  0.00  0.00    +0.025 C 
ATOM     12  C   UNL     1      -0.033   2.477 -22.803  0.00  0.00    -0.073 C 
ATOM     13  C   UNL     1       1.244   2.288 -22.953  0.00  0.00    +0.008 C 
ATOM     14  C   UNL     1      -0.515   2.171 -21.633  0.00  0.00    +0.031 C 
ATOM     15  C   UNL     1      -1.743   2.260 -21.215  0.00  0.00    +0.016 C 
ATOM     16  O   UNL     1      -6.075   3.371 -22.090  0.00  0.00    -0.245 OA
ATOM     17  C   UNL     1      -2.791   2.676 -21.861  0.00  0.00    +0.067 C 
ENDROOT
TORSDOF 0
ENDMDL
MODEL 5
REMARK VINA RESULT:    -9.029      1.978      5.264
REMARK INTER + INTRA:          -9.029
REMARK INTER:                  -9.029
REMARK INTRA:                   0.000
REMARK UNBOUND:                 0.000
REMARK  Name = ZINC000000338264
REMARK  0 active torsions:
REMARK  status: ('A' for Active; 'I' for Inactive)
REMARK                            x       y       z     vdW  Elec       q    Type
REMARK                         _______ _______ _______ _____ _____    ______ ____
ROOT
ATOM      1  C   UNL     1      -4.999   3.742 -23.404  0.00  0.00    +0.020 C 
ATOM      2  C   UNL     1      -3.771   3.754 -23.829  0.00  0.00    +0.036 C 
ATOM      3  C   UNL     1      -3.353   4.266 -24.947  0.00  0.00    +0.335 C 
ATOM      4  O   UNL     1      -2.068   4.084 -25.019  0.00  0.00    -0.457 OA
ATOM      5  C   UNL     1      -1.691   3.458 -23.943  0.00  0.00    +0.192 C 
ATOM      6  C   UNL     1      -0.458   3.123 -23.704  0.00  0.00    +0.063 C 
ATOM      7  C   UNL     1       0.524   3.379 -24.516  0.00  0.00    -0.069 C 
ATOM      8  C   UNL     1       0.430   3.991 -25.660  0.00  0.00    +0.008 C 
ATOM      9  C   UNL     1       1.615   2.915 -23.985  0.00  0.00    +0.031 C 
ATOM     10  C   UNL     1       1.308   2.372 -22.844  0.00  0.00    +0.013 C 
ATOM     11  C   UNL     1       0.027   2.501 -22.671  0.00  0.00    +0.025 C 
ATOM     12  C   UNL     1      -0.601   2.060 -21.622  0.00  0.00    -0.073 C 
ATOM     13  C   UNL     1       0.137   1.469 -20.730  0.00  0.00    +0.008 C 
ATOM     14  C   UNL     1      -1.870   2.133 -21.345  0.00  0.00    +0.031 C 
ATOM     15  C   UNL     1      -2.823   2.665 -22.052  0.00  0.00    +0.016 C 
ATOM     16  O   UNL     1      -4.092   4.858 -25.840  0.00  0.00    -0.245 OA
ATOM     17  C   UNL     1      -2.744   3.254 -23.207  0.00  0.00    +0.067 C 
ENDROOT
TORSDOF 0
ENDMDL
MODEL 6
REMARK VINA RESULT:    -8.844      1.146      4.094
REMARK INTER + INTRA:          -8.844
REMARK INTER:                  -8.844
REMARK INTRA:                   0.000
REMARK UNBOUND:                 0.000
REMARK  Name = ZINC000000338264
REMARK  0 active torsions:
REMARK  status: ('A' for Active; 'I' for Inactive)
REMARK                            x       y       z     vdW  Elec       q    Type
REMARK                         _______ _______ _______ _____ _____    ______ ____
ROOT
ATOM      1  C   UNL     1      -5.023   3.503 -22.921  0.00  0.00    +0.020 C 
ATOM      2  C   UNL     1      -3.856   3.073 -22.543  0.00  0.00    +0.036 C 
ATOM      3  C   UNL     1      -3.591   2.457 -21.431  0.00  0.00    +0.335 C 
ATOM      4  O   UNL     1      -2.320   2.187 -21.412  0.00  0.00    -0.457 OA
ATOM      5  C   UNL     1      -1.798   2.637 -22.516  0.00  0.00    +0.192 C 
ATOM      6  C   UNL     1      -0.537   2.526 -22.809  0.00  0.00    +0.063 C 
ATOM      7  C   UNL     1       0.332   1.954 -22.030  0.00  0.00    -0.069 C 
ATOM      8  C   UNL     1       0.084   1.419 -20.871  0.00  0.00    +0.008 C 
ATOM      9  C   UNL     1       1.492   2.009 -22.613  0.00  0.00    +0.031 C 
ATOM     10  C   UNL     1       1.341   2.616 -23.753  0.00  0.00    +0.013 C 
ATOM     11  C   UNL     1       0.087   2.935 -23.874  0.00  0.00    +0.025 C 
ATOM     12  C   UNL     1      -0.397   3.556 -24.908  0.00  0.00    -0.073 C 
ATOM     13  C   UNL     1       0.460   3.851 -25.840  0.00  0.00    +0.008 C 
ATOM     14  C   UNL     1      -1.625   3.922 -25.133  0.00  0.00    +0.031 C 
ATOM     15  C   UNL     1      -2.670   3.756 -24.379  0.00  0.00    +0.016 C 
ATOM     16  O   UNL     1      -4.448   2.162 -20.497  0.00  0.00    -0.245 OA
ATOM     17  C   UNL     1      -2.748   3.185 -23.215  0.00  0.00    +0.067 C 
ENDROOT
TORSDOF 0
ENDMDL
MODEL 7
REMARK VINA RESULT:    -8.458      1.682      3.473
REMARK INTER + INTRA:          -8.458
REMARK INTER:                  -8.458
REMARK INTRA:                   0.000
REMARK UNBOUND:                 0.000
REMARK  Name = ZINC000000338264
REMARK  0 active torsions:
REMARK  status: ('A' for Active; 'I' for Inactive)
REMARK                            x       y       z     vdW  Elec       q    Type
REMARK                         _______ _______ _______ _____ _____    ______ ____
ROOT
ATOM      1  C   UNL     1       2.289   1.333 -21.791  0.00  0.00    +0.020 C 
ATOM      2  C   UNL     1       1.426   1.822 -22.631  0.00  0.00    +0.036 C 
ATOM      3  C   UNL     1       1.668   2.174 -23.858  0.00  0.00    +0.335 C 
ATOM      4  O   UNL     1       0.561   2.615 -24.377  0.00  0.00    -0.457 OA
ATOM      5  C   UNL     1      -0.367   2.536 -23.469  0.00  0.00    +0.192 C 
ATOM      6  C   UNL     1      -1.598   2.901 -23.669  0.00  0.00    +0.063 C 
ATOM      7  C   UNL     1      -2.028   3.383 -24.798  0.00  0.00    -0.069 C 
ATOM      8  C   UNL     1      -1.316   3.568 -25.870  0.00  0.00    +0.008 C 
ATOM      9  C   UNL     1      -3.293   3.645 -24.666  0.00  0.00    +0.031 C 
ATOM     10  C   UNL     1      -3.646   3.326 -23.456  0.00  0.00    +0.013 C 
ATOM     11  C   UNL     1      -2.599   2.867 -22.841  0.00  0.00    +0.025 C 
ATOM     12  C   UNL     1      -2.616   2.459 -21.607  0.00  0.00    -0.073 C 
ATOM     13  C   UNL     1      -3.764   2.535 -21.003  0.00  0.00    +0.008 C 
ATOM     14  C   UNL     1      -1.635   1.984 -20.896  0.00  0.00    +0.031 C 
ATOM     15  C   UNL     1      -0.396   1.801 -21.246  0.00  0.00    +0.016 C 
ATOM     16  O   UNL     1       2.818   2.097 -24.463  0.00  0.00    -0.245 OA
ATOM     17  C   UNL     1       0.168   2.046 -22.390  0.00  0.00    +0.067 C 
ENDROOT
TORSDOF 0
ENDMDL
MODEL 8
REMARK VINA RESULT:    -8.427      2.069      4.755
REMARK INTER + INTRA:          -8.427
REMARK INTER:                  -8.427
REMARK INTRA:                   0.000
REMARK UNBOUND:                 0.000
REMARK  Name = ZINC000000338264
REMARK  0 active torsions:
REMARK  status: ('A' for Active; 'I' for Inactive)
REMARK                            x       y       z     vdW  Elec       q    Type
REMARK                         _______ _______ _______ _____ _____    ______ ____
ROOT
ATOM      1  C   UNL     1      -5.333   3.779 -25.873  0.00  0.00    +0.020 C 
ATOM      2  C   UNL     1      -4.148   3.504 -25.417  0.00  0.00    +0.036 C 
ATOM      3  C   UNL     1      -3.075   3.334 -26.130  0.00  0.00    +0.335 C 
ATOM      4  O   UNL     1      -2.091   3.074 -25.321  0.00  0.00    -0.457 OA
ATOM      5  C   UNL     1      -2.557   3.084 -24.107  0.00  0.00    +0.192 C 
ATOM      6  C   UNL     1      -1.824   2.860 -23.057  0.00  0.00    +0.063 C 
ATOM      7  C   UNL     1      -0.551   2.602 -23.113  0.00  0.00    -0.069 C 
ATOM      8  C   UNL     1       0.167   2.531 -24.195  0.00  0.00    +0.008 C 
ATOM      9  C   UNL     1      -0.122   2.429 -21.899  0.00  0.00    +0.031 C 
ATOM     10  C   UNL     1      -1.130   2.578 -21.092  0.00  0.00    +0.013 C 
ATOM     11  C   UNL     1      -2.181   2.845 -21.807  0.00  0.00    +0.025 C 
ATOM     12  C   UNL     1      -3.359   3.051 -21.298  0.00  0.00    -0.073 C 
ATOM     13  C   UNL     1      -3.436   2.975 -20.003  0.00  0.00    +0.008 C 
ATOM     14  C   UNL     1      -4.473   3.323 -21.914  0.00  0.00    +0.031 C 
ATOM     15  C   UNL     1      -4.680   3.455 -23.191  0.00  0.00    +0.016 C 
ATOM     16  O   UNL     1      -2.998   3.409 -27.427  0.00  0.00    -0.245 OA
ATOM     17  C   UNL     1      -3.828   3.349 -24.166  0.00  0.00    +0.067 C 
ENDROOT
TORSDOF 0
ENDMDL
MODEL 9
REMARK VINA RESULT:    -8.360      1.723      4.382
REMARK INTER + INTRA:          -8.360
REMARK INTER:                  -8.360
REMARK INTRA:                   0.000
REMARK UNBOUND:                 0.000
REMARK  Name = ZINC000000338264
REMARK  0 active torsions:
REMARK  status: ('A' for Active; 'I' for Inactive)
REMARK                            x       y       z     vdW  Elec       q    Type
REMARK                         _______ _______ _______ _____ _____    ______ ____
ROOT
ATOM      1  C   UNL     1      -3.574   4.466 -25.938  0.00  0.00    +0.020 C 
ATOM      2  C   UNL     1      -3.120   3.862 -24.881  0.00  0.00    +0.036 C 
ATOM      3  C   UNL     1      -3.823   3.480 -23.857  0.00  0.00    +0.335 C 
ATOM      4  O   UNL     1      -3.020   2.916 -23.005  0.00  0.00    -0.457 OA
ATOM      5  C   UNL     1      -1.819   2.950 -23.503  0.00  0.00    +0.192 C 
ATOM      6  C   UNL     1      -0.777   2.465 -22.895  0.00  0.00    +0.063 C 
ATOM      7  C   UNL     1      -0.830   1.896 -21.727  0.00  0.00    -0.069 C 
ATOM      8  C   UNL     1      -1.899   1.728 -21.006  0.00  0.00    +0.008 C 
ATOM      9  C   UNL     1       0.373   1.525 -21.406  0.00  0.00    +0.031 C 
ATOM     10  C   UNL     1       1.170   1.864 -22.376  0.00  0.00    +0.013 C 
ATOM     11  C   UNL     1       0.459   2.445 -23.295  0.00  0.00    +0.025 C 
ATOM     12  C   UNL     1       0.960   2.905 -24.403  0.00  0.00    -0.073 C 
ATOM     13  C   UNL     1       2.242   2.751 -24.549  0.00  0.00    +0.008 C 
ATOM     14  C   UNL     1       0.347   3.499 -25.385  0.00  0.00    +0.031 C 
ATOM     15  C   UNL     1      -0.917   3.779 -25.499  0.00  0.00    +0.016 C 
ATOM     16  O   UNL     1      -5.107   3.634 -23.710  0.00  0.00    -0.245 OA
ATOM     17  C   UNL     1      -1.881   3.535 -24.662  0.00  0.00    +0.067 C 
ENDROOT
TORSDOF 0
ENDMDL
