MODEL 1
REMARK VINA RESULT:    -8.568      0.000      0.000
REMARK INTER + INTRA:         -19.923
REMARK INTER:                 -16.049
REMARK INTRA:                  -3.874
REMARK UNBOUND:                -2.840
REMARK  Name = ZINC000008382368
REMARK  19 active torsions:
REMARK  status: ('A' for Active; 'I' for Inactive)
REMARK    1  A    between atoms: C_1  and  C_2
REMARK    2  A    between atoms: C_2  and  C_3
REMARK    3  A    between atoms: C_3  and  C_4
REMARK    4  A    between atoms: C_4  and  C_5
REMARK    5  A    between atoms: C_6  and  C_7
REMARK    6  A    between atoms: C_7  and  C_8
REMARK    7  A    between atoms: C_8  and  C_9
REMARK    8  A    between atoms: C_9  and  C_10
REMARK    9  A    between atoms: C_10  and  C_11
REMARK   10  A    between atoms: C_11  and  C_12
REMARK   11  A    between atoms: C_12  and  C_13
REMARK   12  A    between atoms: C_13  and  C_14
REMARK   13  A    between atoms: C_14  and  C_15
REMARK   14  A    between atoms: C_15  and  C_16
REMARK   15  A    between atoms: C_16  and  C_17
REMARK   16  A    between atoms: C_17  and  C_18
REMARK   17  A    between atoms: C_18  and  C_19
REMARK   18  A    between atoms: C_19  and  C_20
REMARK   19  A    between atoms: C_25  and  C_26
REMARK                            x       y       z     vdW  Elec       q    Type
REMARK                         _______ _______ _______ _____ _____    ______ ____
ROOT
ATOM      1  C   UNL     1      -3.617   4.546 -24.629  0.00  0.00    +0.000 C 
ENDROOT
BRANCH   1   2
ATOM      2  C   UNL     1      -4.891   4.303 -24.716  0.00  0.00    +0.000 C 
BRANCH   2   3
ATOM      3  C   UNL     1      -5.454   3.481 -23.881  0.00  0.00    -0.000 C 
BRANCH   3   4
ATOM      4  C   UNL     1      -5.434   3.735 -22.605  0.00  0.00    +0.000 C 
BRANCH   4   5
ATOM      5  C   UNL     1      -5.405   2.758 -21.748  0.00  0.00    +0.000 C 
BRANCH   5   6
ATOM      6  C   UNL     1      -4.345   2.561 -21.023  0.00  0.00    +0.000 C 
BRANCH   6   7
ATOM      7  C   UNL     1      -3.499   3.530 -20.834  0.00  0.00    +0.000 C 
BRANCH   7   8
ATOM      8  C   UNL     1      -2.253   3.380 -21.174  0.00  0.00    +0.004 C 
BRANCH   8   9
ATOM      9  C   UNL     1      -1.730   2.191 -21.221  0.00  0.00    +0.027 C 
BRANCH   9  11
ATOM     10  C   UNL     1       0.176   1.246 -21.960  0.00  0.00    -0.031 C 
ATOM     11  C   UNL     1      -0.441   2.045 -21.139  0.00  0.00    -0.031 C 
BRANCH  10  12
ATOM     12  C   UNL     1       1.465   1.100 -21.878  0.00  0.00    +0.027 C 
BRANCH  12  13
ATOM     13  C   UNL     1       2.114   1.611 -20.875  0.00  0.00    +0.004 C 
BRANCH  13  15
ATOM     14  C   UNL     1       3.957   0.364 -21.225  0.00  0.00    +0.004 C 
ATOM     15  C   UNL     1       3.403   1.455 -20.787  0.00  0.00    -0.003 C 
ENDBRANCH  13  15
ENDBRANCH  12  13
ENDBRANCH  10  12
ENDBRANCH   9  11
ENDBRANCH   8   9
ENDBRANCH   7   8
ENDBRANCH   6   7
ENDBRANCH   5   6
ENDBRANCH   4   5
ENDBRANCH   3   4
ENDBRANCH   2   3
ENDBRANCH   1   2
BRANCH   1  16
ATOM     16  C   UNL     1      -2.789   3.982 -25.458  0.00  0.00    +0.000 C 
BRANCH  16  17
ATOM     17  C   UNL     1      -2.091   2.953 -25.081  0.00  0.00    +0.000 C 
BRANCH  17  18
ATOM     18  C   UNL     1      -0.938   3.125 -24.507  0.00  0.00    +0.005 C 
BRANCH  18  19
ATOM     19  C   UNL     1       0.067   3.588 -25.191  0.00  0.00    +0.038 C 
BRANCH  19  20
ATOM     20  C   UNL     1       1.234   3.706 -24.632  0.00  0.00    -0.011 C 
ATOM     21  C   UNL     1       1.495   4.738 -23.885  0.00  0.00    +0.169 C 
ATOM     22  C   UNL     1       2.662   4.856 -23.326  0.00  0.00    -0.086 C 
ATOM     23  C   UNL     1       3.569   3.943 -23.513  0.00  0.00    -0.014 C 
ATOM     24  C   UNL     1       3.308   2.911 -24.259  0.00  0.00    +0.169 C 
ATOM     25  O   UNL     1       4.214   1.998 -24.447  0.00  0.00    -0.289 OA
ATOM     26  C   UNL     1       4.736   4.062 -22.954  0.00  0.00    +0.047 C 
ATOM     27  O   UNL     1       2.924   5.888 -22.579  0.00  0.00    -0.826 OA
ATOM     28  O   UNL     1       0.589   5.651 -23.698  0.00  0.00    -0.289 OA
ATOM     29  C   UNL     1       2.140   2.793 -24.819  0.00  0.00    -0.086 C 
ATOM     30  O   UNL     1       1.878   1.761 -25.565  0.00  0.00    -0.826 OA
ENDBRANCH  19  20
ENDBRANCH  18  19
ENDBRANCH  17  18
ENDBRANCH  16  17
ENDBRANCH   1  16
TORSDOF 17
ENDMDL
MODEL 2
REMARK VINA RESULT:    -7.925      1.420      3.842
REMARK INTER + INTRA:         -18.642
REMARK INTER:                 -15.572
REMARK INTRA:                  -3.070
REMARK UNBOUND:                -2.840
REMARK  Name = ZINC000008382368
REMARK  19 active torsions:
REMARK  status: ('A' for Active; 'I' for Inactive)
REMARK    1  A    between atoms: C_1  and  C_2
REMARK    2  A    between atoms: C_2  and  C_3
REMARK    3  A    between atoms: C_3  and  C_4
REMARK    4  A    between atoms: C_4  and  C_5
REMARK    5  A    between atoms: C_6  and  C_7
REMARK    6  A    between atoms: C_7  and  C_8
REMARK    7  A    between atoms: C_8  and  C_9
REMARK    8  A    between atoms: C_9  and  C_10
REMARK    9  A    between atoms: C_10  and  C_11
REMARK   10  A    between atoms: C_11  and  C_12
REMARK   11  A    between atoms: C_12  and  C_13
REMARK   12  A    between atoms: C_13  and  C_14
REMARK   13  A    between atoms: C_14  and  C_15
REMARK   14  A    between atoms: C_15  and  C_16
REMARK   15  A    between atoms: C_16  and  C_17
REMARK   16  A    between atoms: C_17  and  C_18
REMARK   17  A    between atoms: C_18  and  C_19
REMARK   18  A    between atoms: C_19  and  C_20
REMARK   19  A    between atoms: C_25  and  C_26
REMARK                            x       y       z     vdW  Elec       q    Type
REMARK                         _______ _______ _______ _____ _____    ______ ____
ROOT
ATOM      1  C   UNL     1      -0.091   3.494 -25.261  0.00  0.00    +0.000 C 
ENDROOT
BRANCH   1   2
ATOM      2  C   UNL     1      -1.275   3.624 -24.741  0.00  0.00    +0.000 C 
BRANCH   2   3
ATOM      3  C   UNL     1      -2.130   2.649 -24.820  0.00  0.00    -0.000 C 
BRANCH   3   4
ATOM      4  C   UNL     1      -3.315   2.862 -25.312  0.00  0.00    +0.000 C 
BRANCH   4   5
ATOM      5  C   UNL     1      -3.693   4.072 -25.597  0.00  0.00    +0.000 C 
BRANCH   5   6
ATOM      6  C   UNL     1      -4.746   4.575 -25.025  0.00  0.00    +0.000 C 
BRANCH   6   7
ATOM      7  C   UNL     1      -5.518   3.818 -24.304  0.00  0.00    +0.000 C 
BRANCH   7   8
ATOM      8  C   UNL     1      -5.634   4.036 -23.027  0.00  0.00    +0.004 C 
BRANCH   8   9
ATOM      9  C   UNL     1      -5.725   3.034 -22.203  0.00  0.00    +0.027 C 
BRANCH   9  11
ATOM     10  C   UNL     1      -3.562   3.256 -21.618  0.00  0.00    -0.031 C 
ATOM     11  C   UNL     1      -4.749   2.779 -21.383  0.00  0.00    -0.031 C 
BRANCH  10  12
ATOM     12  C   UNL     1      -2.585   3.002 -20.799  0.00  0.00    +0.027 C 
BRANCH  12  13
ATOM     13  C   UNL     1      -1.364   2.954 -21.239  0.00  0.00    +0.004 C 
BRANCH  13  15
ATOM     14  C   UNL     1       0.316   1.500 -20.869  0.00  0.00    +0.004 C 
ATOM     15  C   UNL     1      -0.798   1.804 -21.465  0.00  0.00    -0.003 C 
ENDBRANCH  13  15
ENDBRANCH  12  13
ENDBRANCH  10  12
ENDBRANCH   9  11
ENDBRANCH   8   9
ENDBRANCH   7   8
ENDBRANCH   6   7
ENDBRANCH   5   6
ENDBRANCH   4   5
ENDBRANCH   3   4
ENDBRANCH   2   3
ENDBRANCH   1   2
BRANCH   1  16
ATOM     16  C   UNL     1       0.805   4.420 -25.081  0.00  0.00    +0.000 C 
BRANCH  16  17
ATOM     17  C   UNL     1       1.038   4.875 -23.886  0.00  0.00    +0.000 C 
BRANCH  17  18
ATOM     18  C   UNL     1       2.240   4.821 -23.393  0.00  0.00    +0.005 C 
BRANCH  18  19
ATOM     19  C   UNL     1       3.082   3.930 -23.828  0.00  0.00    +0.038 C 
BRANCH  19  20
ATOM     20  C   UNL     1       3.538   3.019 -23.022  0.00  0.00    -0.011 C 
ATOM     21  C   UNL     1       4.466   3.317 -22.163  0.00  0.00    +0.169 C 
ATOM     22  C   UNL     1       4.922   2.405 -21.357  0.00  0.00    -0.086 C 
ATOM     23  C   UNL     1       4.450   1.194 -21.410  0.00  0.00    -0.014 C 
ATOM     24  C   UNL     1       3.522   0.896 -22.270  0.00  0.00    +0.169 C 
ATOM     25  O   UNL     1       3.049  -0.314 -22.324  0.00  0.00    -0.289 OA
ATOM     26  C   UNL     1       4.906   0.282 -20.604  0.00  0.00    +0.047 C 
ATOM     27  O   UNL     1       5.851   2.703 -20.497  0.00  0.00    -0.826 OA
ATOM     28  O   UNL     1       4.939   4.526 -22.109  0.00  0.00    -0.289 OA
ATOM     29  C   UNL     1       3.066   1.809 -23.076  0.00  0.00    -0.086 C 
ATOM     30  O   UNL     1       2.137   1.511 -23.936  0.00  0.00    -0.826 OA
ENDBRANCH  19  20
ENDBRANCH  18  19
ENDBRANCH  17  18
ENDBRANCH  16  17
ENDBRANCH   1  16
TORSDOF 17
ENDMDL
MODEL 3
REMARK VINA RESULT:    -7.911      0.862      5.365
REMARK INTER + INTRA:         -18.614
REMARK INTER:                 -15.801
REMARK INTRA:                  -2.813
REMARK UNBOUND:                -2.840
REMARK  Name = ZINC000008382368
REMARK  19 active torsions:
REMARK  status: ('A' for Active; 'I' for Inactive)
REMARK    1  A    between atoms: C_1  and  C_2
REMARK    2  A    between atoms: C_2  and  C_3
REMARK    3  A    between atoms: C_3  and  C_4
REMARK    4  A    between atoms: C_4  and  C_5
REMARK    5  A    between atoms: C_6  and  C_7
REMARK    6  A    between atoms: C_7  and  C_8
REMARK    7  A    between atoms: C_8  and  C_9
REMARK    8  A    between atoms: C_9  and  C_10
REMARK    9  A    between atoms: C_10  and  C_11
REMARK   10  A    between atoms: C_11  and  C_12
REMARK   11  A    between atoms: C_12  and  C_13
REMARK   12  A    between atoms: C_13  and  C_14
REMARK   13  A    between atoms: C_14  and  C_15
REMARK   14  A    between atoms: C_15  and  C_16
REMARK   15  A    between atoms: C_16  and  C_17
REMARK   16  A    between atoms: C_17  and  C_18
REMARK   17  A    between atoms: C_18  and  C_19
REMARK   18  A    between atoms: C_19  and  C_20
REMARK   19  A    between atoms: C_25  and  C_26
REMARK                            x       y       z     vdW  Elec       q    Type
REMARK                         _______ _______ _______ _____ _____    ______ ____
ROOT
ATOM      1  C   UNL     1       2.660   1.336 -20.772  0.00  0.00    +0.000 C 
ENDROOT
BRANCH   1   2
ATOM      2  C   UNL     1       1.650   1.072 -21.545  0.00  0.00    +0.000 C 
BRANCH   2   3
ATOM      3  C   UNL     1       0.656   1.906 -21.625  0.00  0.00    -0.000 C 
BRANCH   3   4
ATOM      4  C   UNL     1      -0.423   1.573 -22.269  0.00  0.00    +0.000 C 
BRANCH   4   5
ATOM      5  C   UNL     1      -1.471   2.339 -22.221  0.00  0.00    +0.000 C 
BRANCH   5   6
ATOM      6  C   UNL     1      -1.765   2.971 -21.124  0.00  0.00    +0.000 C 
BRANCH   6   7
ATOM      7  C   UNL     1      -3.002   3.265 -20.855  0.00  0.00    +0.000 C 
BRANCH   7   8
ATOM      8  C   UNL     1      -3.912   2.336 -20.881  0.00  0.00    +0.004 C 
BRANCH   8   9
ATOM      9  C   UNL     1      -5.068   2.576 -21.425  0.00  0.00    +0.027 C 
BRANCH   9  11
ATOM     10  C   UNL     1      -4.841   3.454 -23.486  0.00  0.00    -0.031 C 
ATOM     11  C   UNL     1      -5.205   3.577 -22.243  0.00  0.00    -0.031 C 
BRANCH  10  12
ATOM     12  C   UNL     1      -4.978   4.455 -24.305  0.00  0.00    +0.027 C 
BRANCH  12  13
ATOM     13  C   UNL     1      -4.026   4.744 -25.141  0.00  0.00    +0.004 C 
BRANCH  13  15
ATOM     14  C   UNL     1      -2.858   3.364 -26.483  0.00  0.00    +0.004 C 
ATOM     15  C   UNL     1      -3.042   3.913 -25.320  0.00  0.00    -0.003 C 
ENDBRANCH  13  15
ENDBRANCH  12  13
ENDBRANCH  10  12
ENDBRANCH   9  11
ENDBRANCH   8   9
ENDBRANCH   7   8
ENDBRANCH   6   7
ENDBRANCH   5   6
ENDBRANCH   4   5
ENDBRANCH   3   4
ENDBRANCH   2   3
ENDBRANCH   1   2
BRANCH   1  16
ATOM     16  C   UNL     1       3.717   0.579 -20.800  0.00  0.00    +0.000 C 
BRANCH  16  17
ATOM     17  C   UNL     1       4.789   0.981 -21.414  0.00  0.00    +0.000 C 
BRANCH  17  18
ATOM     18  C   UNL     1       4.938   2.238 -21.707  0.00  0.00    +0.005 C 
BRANCH  18  19
ATOM     19  C   UNL     1       4.975   2.616 -22.951  0.00  0.00    +0.038 C 
BRANCH  19  20
ATOM     20  C   UNL     1       3.885   2.994 -23.549  0.00  0.00    -0.011 C 
ATOM     21  C   UNL     1       3.389   4.172 -23.313  0.00  0.00    +0.169 C 
ATOM     22  C   UNL     1       2.299   4.550 -23.911  0.00  0.00    -0.086 C 
ATOM     23  C   UNL     1       1.703   3.749 -24.745  0.00  0.00    -0.014 C 
ATOM     24  C   UNL     1       2.200   2.571 -24.981  0.00  0.00    +0.169 C 
ATOM     25  O   UNL     1       1.605   1.771 -25.816  0.00  0.00    -0.289 OA
ATOM     26  C   UNL     1       0.613   4.127 -25.343  0.00  0.00    +0.047 C 
ATOM     27  O   UNL     1       1.802   5.728 -23.674  0.00  0.00    -0.826 OA
ATOM     28  O   UNL     1       3.983   4.972 -22.479  0.00  0.00    -0.289 OA
ATOM     29  C   UNL     1       3.291   2.194 -24.383  0.00  0.00    -0.086 C 
ATOM     30  O   UNL     1       3.787   1.015 -24.619  0.00  0.00    -0.826 OA
ENDBRANCH  19  20
ENDBRANCH  18  19
ENDBRANCH  17  18
ENDBRANCH  16  17
ENDBRANCH   1  16
TORSDOF 17
ENDMDL
MODEL 4
REMARK VINA RESULT:    -7.868      1.992      4.702
REMARK INTER + INTRA:         -18.528
REMARK INTER:                 -15.054
REMARK INTRA:                  -3.474
REMARK UNBOUND:                -2.840
REMARK  Name = ZINC000008382368
REMARK  19 active torsions:
REMARK  status: ('A' for Active; 'I' for Inactive)
REMARK    1  A    between atoms: C_1  and  C_2
REMARK    2  A    between atoms: C_2  and  C_3
REMARK    3  A    between atoms: C_3  and  C_4
REMARK    4  A    between atoms: C_4  and  C_5
REMARK    5  A    between atoms: C_6  and  C_7
REMARK    6  A    between atoms: C_7  and  C_8
REMARK    7  A    between atoms: C_8  and  C_9
REMARK    8  A    between atoms: C_9  and  C_10
REMARK    9  A    between atoms: C_10  and  C_11
REMARK   10  A    between atoms: C_11  and  C_12
REMARK   11  A    between atoms: C_12  and  C_13
REMARK   12  A    between atoms: C_13  and  C_14
REMARK   13  A    between atoms: C_14  and  C_15
REMARK   14  A    between atoms: C_15  and  C_16
REMARK   15  A    between atoms: C_16  and  C_17
REMARK   16  A    between atoms: C_17  and  C_18
REMARK   17  A    between atoms: C_18  and  C_19
REMARK   18  A    between atoms: C_19  and  C_20
REMARK   19  A    between atoms: C_25  and  C_26
REMARK                            x       y       z     vdW  Elec       q    Type
REMARK                         _______ _______ _______ _____ _____    ______ ____
ROOT
ATOM      1  C   UNL     1      -0.310   1.378 -21.310  0.00  0.00    +0.000 C 
ENDROOT
BRANCH   1   2
ATOM      2  C   UNL     1      -1.459   1.880 -21.654  0.00  0.00    +0.000 C 
BRANCH   2   3
ATOM      3  C   UNL     1      -1.805   3.059 -21.231  0.00  0.00    -0.000 C 
BRANCH   3   4
ATOM      4  C   UNL     1      -2.975   3.240 -20.694  0.00  0.00    +0.000 C 
BRANCH   4   5
ATOM      5  C   UNL     1      -4.038   2.773 -21.278  0.00  0.00    +0.000 C 
BRANCH   5   6
ATOM      6  C   UNL     1      -4.924   3.590 -21.764  0.00  0.00    +0.000 C 
BRANCH   6   7
ATOM      7  C   UNL     1      -5.408   3.391 -22.954  0.00  0.00    +0.000 C 
BRANCH   7   8
ATOM      8  C   UNL     1      -5.054   4.166 -23.937  0.00  0.00    +0.004 C 
BRANCH   8   9
ATOM      9  C   UNL     1      -4.138   3.776 -24.773  0.00  0.00    +0.027 C 
BRANCH   9  11
ATOM     10  C   UNL     1      -1.925   3.416 -24.990  0.00  0.00    -0.031 C 
ATOM     11  C   UNL     1      -2.911   4.183 -24.627  0.00  0.00    -0.031 C 
BRANCH  10  12
ATOM     12  C   UNL     1      -0.699   3.822 -24.844  0.00  0.00    +0.027 C 
BRANCH  12  13
ATOM     13  C   UNL     1      -0.410   4.702 -23.933  0.00  0.00    +0.004 C 
BRANCH  13  15
ATOM     14  C   UNL     1       1.783   4.433 -24.364  0.00  0.00    +0.004 C 
ATOM     15  C   UNL     1       0.832   4.986 -23.673  0.00  0.00    -0.003 C 
ENDBRANCH  13  15
ENDBRANCH  12  13
ENDBRANCH  10  12
ENDBRANCH   9  11
ENDBRANCH   8   9
ENDBRANCH   7   8
ENDBRANCH   6   7
ENDBRANCH   5   6
ENDBRANCH   4   5
ENDBRANCH   3   4
ENDBRANCH   2   3
ENDBRANCH   1   2
BRANCH   1  16
ATOM     16  C   UNL     1       0.756   1.662 -21.998  0.00  0.00    +0.000 C 
BRANCH  16  17
ATOM     17  C   UNL     1       1.931   1.539 -21.458  0.00  0.00    +0.000 C 
BRANCH  17  18
ATOM     18  C   UNL     1       2.915   2.284 -21.865  0.00  0.00    +0.005 C 
BRANCH  18  19
ATOM     19  C   UNL     1       4.107   1.778 -21.986  0.00  0.00    +0.038 C 
BRANCH  19  20
ATOM     20  C   UNL     1       5.132   2.560 -22.150  0.00  0.00    -0.011 C 
ATOM     21  C   UNL     1       5.494   2.914 -23.347  0.00  0.00    +0.169 C 
ATOM     22  C   UNL     1       6.519   3.696 -23.511  0.00  0.00    -0.086 C 
ATOM     23  C   UNL     1       7.182   4.125 -22.478  0.00  0.00    -0.014 C 
ATOM     24  C   UNL     1       6.820   3.771 -21.281  0.00  0.00    +0.169 C 
ATOM     25  O   UNL     1       7.482   4.199 -20.248  0.00  0.00    -0.289 OA
ATOM     26  C   UNL     1       8.207   4.907 -22.642  0.00  0.00    +0.047 C 
ATOM     27  O   UNL     1       6.882   4.050 -24.709  0.00  0.00    -0.826 OA
ATOM     28  O   UNL     1       4.832   2.486 -24.380  0.00  0.00    -0.289 OA
ATOM     29  C   UNL     1       5.794   2.988 -21.117  0.00  0.00    -0.086 C 
ATOM     30  O   UNL     1       5.432   2.634 -19.920  0.00  0.00    -0.826 OA
ENDBRANCH  19  20
ENDBRANCH  18  19
ENDBRANCH  17  18
ENDBRANCH  16  17
ENDBRANCH   1  16
TORSDOF 17
ENDMDL
MODEL 5
REMARK VINA RESULT:    -7.662      1.748      5.640
REMARK INTER + INTRA:         -18.117
REMARK INTER:                 -15.255
REMARK INTRA:                  -2.863
REMARK UNBOUND:                -2.840
REMARK  Name = ZINC000008382368
REMARK  19 active torsions:
REMARK  status: ('A' for Active; 'I' for Inactive)
REMARK    1  A    between atoms: C_1  and  C_2
REMARK    2  A    between atoms: C_2  and  C_3
REMARK    3  A    between atoms: C_3  and  C_4
REMARK    4  A    between atoms: C_4  and  C_5
REMARK    5  A    between atoms: C_6  and  C_7
REMARK    6  A    between atoms: C_7  and  C_8
REMARK    7  A    between atoms: C_8  and  C_9
REMARK    8  A    between atoms: C_9  and  C_10
REMARK    9  A    between atoms: C_10  and  C_11
REMARK   10  A    between atoms: C_11  and  C_12
REMARK   11  A    between atoms: C_12  and  C_13
REMARK   12  A    between atoms: C_13  and  C_14
REMARK   13  A    between atoms: C_14  and  C_15
REMARK   14  A    between atoms: C_15  and  C_16
REMARK   15  A    between atoms: C_16  and  C_17
REMARK   16  A    between atoms: C_17  and  C_18
REMARK   17  A    between atoms: C_18  and  C_19
REMARK   18  A    between atoms: C_19  and  C_20
REMARK   19  A    between atoms: C_25  and  C_26
REMARK                            x       y       z     vdW  Elec       q    Type
REMARK                         _______ _______ _______ _____ _____    ______ ____
ROOT
ATOM      1  C   UNL     1       3.049   5.737 -22.910  0.00  0.00    +0.000 C 
ENDROOT
BRANCH   1   2
ATOM      2  C   UNL     1       2.003   5.262 -23.520  0.00  0.00    +0.000 C 
BRANCH   2   3
ATOM      3  C   UNL     1       0.880   5.135 -22.879  0.00  0.00    -0.000 C 
BRANCH   3   4
ATOM      4  C   UNL     1      -0.248   5.214 -23.521  0.00  0.00    +0.000 C 
BRANCH   4   5
ATOM      5  C   UNL     1      -1.345   4.797 -22.963  0.00  0.00    +0.000 C 
BRANCH   5   6
ATOM      6  C   UNL     1      -1.437   4.750 -21.667  0.00  0.00    +0.000 C 
BRANCH   6   7
ATOM      7  C   UNL     1      -2.606   4.713 -21.100  0.00  0.00    +0.000 C 
BRANCH   7   8
ATOM      8  C   UNL     1      -2.998   3.635 -20.488  0.00  0.00    +0.004 C 
BRANCH   8   9
ATOM      9  C   UNL     1      -4.014   2.963 -20.943  0.00  0.00    +0.027 C 
BRANCH   9  11
ATOM     10  C   UNL     1      -5.233   3.704 -22.685  0.00  0.00    -0.031 C 
ATOM     11  C   UNL     1      -4.272   2.962 -22.217  0.00  0.00    -0.031 C 
BRANCH  10  12
ATOM     12  C   UNL     1      -5.493   3.704 -23.958  0.00  0.00    +0.027 C 
BRANCH  12  13
ATOM     13  C   UNL     1      -4.603   4.135 -24.802  0.00  0.00    +0.004 C 
BRANCH  13  15
ATOM     14  C   UNL     1      -3.144   3.441 -26.371  0.00  0.00    +0.004 C 
ATOM     15  C   UNL     1      -4.348   3.456 -25.882  0.00  0.00    -0.003 C 
ENDBRANCH  13  15
ENDBRANCH  12  13
ENDBRANCH  10  12
ENDBRANCH   9  11
ENDBRANCH   8   9
ENDBRANCH   7   8
ENDBRANCH   6   7
ENDBRANCH   5   6
ENDBRANCH   4   5
ENDBRANCH   3   4
ENDBRANCH   2   3
ENDBRANCH   1   2
BRANCH   1  16
ATOM     16  C   UNL     1       4.150   5.046 -22.875  0.00  0.00    +0.000 C 
BRANCH  16  17
ATOM     17  C   UNL     1       4.315   4.042 -23.684  0.00  0.00    +0.000 C 
BRANCH  17  18
ATOM     18  C   UNL     1       4.769   2.912 -23.233  0.00  0.00    +0.005 C 
BRANCH  18  19
ATOM     19  C   UNL     1       4.071   1.824 -23.380  0.00  0.00    +0.038 C 
BRANCH  19  20
ATOM     20  C   UNL     1       2.914   1.711 -22.798  0.00  0.00    -0.011 C 
ATOM     21  C   UNL     1       1.825   1.738 -23.507  0.00  0.00    +0.169 C 
ATOM     22  C   UNL     1       0.668   1.625 -22.925  0.00  0.00    -0.086 C 
ATOM     23  C   UNL     1       0.600   1.485 -21.634  0.00  0.00    -0.014 C 
ATOM     24  C   UNL     1       1.690   1.458 -20.925  0.00  0.00    +0.169 C 
ATOM     25  O   UNL     1       1.623   1.318 -19.635  0.00  0.00    -0.289 OA
ATOM     26  C   UNL     1      -0.556   1.372 -21.052  0.00  0.00    +0.047 C 
ATOM     27  O   UNL     1      -0.422   1.652 -23.634  0.00  0.00    -0.826 OA
ATOM     28  O   UNL     1       1.892   1.878 -24.798  0.00  0.00    -0.289 OA
ATOM     29  C   UNL     1       2.847   1.571 -21.508  0.00  0.00    -0.086 C 
ATOM     30  O   UNL     1       3.937   1.544 -20.799  0.00  0.00    -0.826 OA
ENDBRANCH  19  20
ENDBRANCH  18  19
ENDBRANCH  17  18
ENDBRANCH  16  17
ENDBRANCH   1  16
TORSDOF 17
ENDMDL
MODEL 6
REMARK VINA RESULT:    -7.624      1.661      4.764
REMARK INTER + INTRA:         -18.041
REMARK INTER:                 -14.588
REMARK INTRA:                  -3.453
REMARK UNBOUND:                -2.840
REMARK  Name = ZINC000008382368
REMARK  19 active torsions:
REMARK  status: ('A' for Active; 'I' for Inactive)
REMARK    1  A    between atoms: C_1  and  C_2
REMARK    2  A    between atoms: C_2  and  C_3
REMARK    3  A    between atoms: C_3  and  C_4
REMARK    4  A    between atoms: C_4  and  C_5
REMARK    5  A    between atoms: C_6  and  C_7
REMARK    6  A    between atoms: C_7  and  C_8
REMARK    7  A    between atoms: C_8  and  C_9
REMARK    8  A    between atoms: C_9  and  C_10
REMARK    9  A    between atoms: C_10  and  C_11
REMARK   10  A    between atoms: C_11  and  C_12
REMARK   11  A    between atoms: C_12  and  C_13
REMARK   12  A    between atoms: C_13  and  C_14
REMARK   13  A    between atoms: C_14  and  C_15
REMARK   14  A    between atoms: C_15  and  C_16
REMARK   15  A    between atoms: C_16  and  C_17
REMARK   16  A    between atoms: C_17  and  C_18
REMARK   17  A    between atoms: C_18  and  C_19
REMARK   18  A    between atoms: C_19  and  C_20
REMARK   19  A    between atoms: C_25  and  C_26
REMARK                            x       y       z     vdW  Elec       q    Type
REMARK                         _______ _______ _______ _____ _____    ______ ____
ROOT
ATOM      1  C   UNL     1       0.131   1.398 -22.026  0.00  0.00    +0.000 C 
ENDROOT
BRANCH   1   2
ATOM      2  C   UNL     1      -0.795   1.837 -21.227  0.00  0.00    +0.000 C 
BRANCH   2   3
ATOM      3  C   UNL     1      -1.872   2.378 -21.715  0.00  0.00    -0.000 C 
BRANCH   3   4
ATOM      4  C   UNL     1      -2.306   3.507 -21.239  0.00  0.00    +0.000 C 
BRANCH   4   5
ATOM      5  C   UNL     1      -3.569   3.657 -20.971  0.00  0.00    +0.000 C 
BRANCH   5   6
ATOM      6  C   UNL     1      -4.453   2.921 -21.575  0.00  0.00    +0.000 C 
BRANCH   6   7
ATOM      7  C   UNL     1      -5.381   3.478 -22.295  0.00  0.00    +0.000 C 
BRANCH   7   8
ATOM      8  C   UNL     1      -5.284   3.481 -23.592  0.00  0.00    +0.004 C 
BRANCH   8   9
ATOM      9  C   UNL     1      -4.828   4.531 -24.207  0.00  0.00    +0.027 C 
BRANCH   9  11
ATOM     10  C   UNL     1      -3.137   3.493 -25.272  0.00  0.00    -0.031 C 
ATOM     11  C   UNL     1      -3.609   4.539 -24.660  0.00  0.00    -0.031 C 
BRANCH  10  12
ATOM     12  C   UNL     1      -1.919   3.500 -25.725  0.00  0.00    +0.027 C 
BRANCH  12  13
ATOM     13  C   UNL     1      -0.923   3.309 -24.912  0.00  0.00    +0.004 C 
BRANCH  13  15
ATOM     14  C   UNL     1       0.100   4.908 -23.701  0.00  0.00    +0.004 C 
ATOM     15  C   UNL     1       0.004   4.214 -24.795  0.00  0.00    -0.003 C 
ENDBRANCH  13  15
ENDBRANCH  12  13
ENDBRANCH  10  12
ENDBRANCH   9  11
ENDBRANCH   8   9
ENDBRANCH   7   8
ENDBRANCH   6   7
ENDBRANCH   5   6
ENDBRANCH   4   5
ENDBRANCH   3   4
ENDBRANCH   2   3
ENDBRANCH   1   2
BRANCH   1  16
ATOM     16  C   UNL     1       1.366   1.769 -21.857  0.00  0.00    +0.000 C 
BRANCH  16  17
ATOM     17  C   UNL     1       2.152   1.900 -22.883  0.00  0.00    +0.000 C 
BRANCH  17  18
ATOM     18  C   UNL     1       3.348   2.384 -22.728  0.00  0.00    +0.005 C 
BRANCH  18  19
ATOM     19  C   UNL     1       3.778   3.322 -23.520  0.00  0.00    +0.038 C 
BRANCH  19  20
ATOM     20  C   UNL     1       4.628   4.203 -23.083  0.00  0.00    -0.011 C 
ATOM     21  C   UNL     1       5.896   3.919 -23.044  0.00  0.00    +0.169 C 
ATOM     22  C   UNL     1       6.746   4.799 -22.606  0.00  0.00    -0.086 C 
ATOM     23  C   UNL     1       6.328   5.965 -22.209  0.00  0.00    -0.014 C 
ATOM     24  C   UNL     1       5.060   6.249 -22.248  0.00  0.00    +0.169 C 
ATOM     25  O   UNL     1       4.642   7.414 -21.850  0.00  0.00    -0.289 OA
ATOM     26  C   UNL     1       7.178   6.846 -21.772  0.00  0.00    +0.047 C 
ATOM     27  O   UNL     1       8.014   4.515 -22.567  0.00  0.00    -0.826 OA
ATOM     28  O   UNL     1       6.313   2.754 -23.441  0.00  0.00    -0.289 OA
ATOM     29  C   UNL     1       4.210   5.368 -22.685  0.00  0.00    -0.086 C 
ATOM     30  O   UNL     1       2.942   5.652 -22.725  0.00  0.00    -0.826 OA
ENDBRANCH  19  20
ENDBRANCH  18  19
ENDBRANCH  17  18
ENDBRANCH  16  17
ENDBRANCH   1  16
TORSDOF 17
ENDMDL
MODEL 7
REMARK VINA RESULT:    -7.451      1.717      5.705
REMARK INTER + INTRA:         -17.697
REMARK INTER:                 -15.318
REMARK INTRA:                  -2.379
REMARK UNBOUND:                -2.840
REMARK  Name = ZINC000008382368
REMARK  19 active torsions:
REMARK  status: ('A' for Active; 'I' for Inactive)
REMARK    1  A    between atoms: C_1  and  C_2
REMARK    2  A    between atoms: C_2  and  C_3
REMARK    3  A    between atoms: C_3  and  C_4
REMARK    4  A    between atoms: C_4  and  C_5
REMARK    5  A    between atoms: C_6  and  C_7
REMARK    6  A    between atoms: C_7  and  C_8
REMARK    7  A    between atoms: C_8  and  C_9
REMARK    8  A    between atoms: C_9  and  C_10
REMARK    9  A    between atoms: C_10  and  C_11
REMARK   10  A    between atoms: C_11  and  C_12
REMARK   11  A    between atoms: C_12  and  C_13
REMARK   12  A    between atoms: C_13  and  C_14
REMARK   13  A    between atoms: C_14  and  C_15
REMARK   14  A    between atoms: C_15  and  C_16
REMARK   15  A    between atoms: C_16  and  C_17
REMARK   16  A    between atoms: C_17  and  C_18
REMARK   17  A    between atoms: C_18  and  C_19
REMARK   18  A    between atoms: C_19  and  C_20
REMARK   19  A    between atoms: C_25  and  C_26
REMARK                            x       y       z     vdW  Elec       q    Type
REMARK                         _______ _______ _______ _____ _____    ______ ____
ROOT
ATOM      1  C   UNL     1       3.015   5.122 -22.848  0.00  0.00    +0.000 C 
ENDROOT
BRANCH   1   2
ATOM      2  C   UNL     1       2.125   5.502 -23.715  0.00  0.00    +0.000 C 
BRANCH   2   3
ATOM      3  C   UNL     1       0.970   4.908 -23.764  0.00  0.00    -0.000 C 
BRANCH   3   4
ATOM      4  C   UNL     1       0.042   5.218 -22.908  0.00  0.00    +0.000 C 
BRANCH   4   5
ATOM      5  C   UNL     1      -1.120   4.640 -22.971  0.00  0.00    +0.000 C 
BRANCH   5   6
ATOM      6  C   UNL     1      -1.959   4.970 -23.907  0.00  0.00    +0.000 C 
BRANCH   6   7
ATOM      7  C   UNL     1      -2.436   4.058 -24.702  0.00  0.00    +0.000 C 
BRANCH   7   8
ATOM      8  C   UNL     1      -3.356   4.367 -25.568  0.00  0.00    +0.004 C 
BRANCH   8   9
ATOM      9  C   UNL     1      -4.605   4.122 -25.303  0.00  0.00    +0.027 C 
BRANCH   9  11
ATOM     10  C   UNL     1      -5.166   3.219 -23.318  0.00  0.00    -0.031 C 
ATOM     11  C   UNL     1      -5.050   4.260 -24.089  0.00  0.00    -0.031 C 
BRANCH  10  12
ATOM     12  C   UNL     1      -5.611   3.357 -22.104  0.00  0.00    +0.027 C 
BRANCH  12  13
ATOM     13  C   UNL     1      -5.077   2.674 -21.135  0.00  0.00    +0.004 C 
BRANCH  13  15
ATOM     14  C   UNL     1      -3.310   3.705 -20.194  0.00  0.00    +0.004 C 
ATOM     15  C   UNL     1      -3.796   2.743 -20.920  0.00  0.00    -0.003 C 
ENDBRANCH  13  15
ENDBRANCH  12  13
ENDBRANCH  10  12
ENDBRANCH   9  11
ENDBRANCH   8   9
ENDBRANCH   7   8
ENDBRANCH   6   7
ENDBRANCH   5   6
ENDBRANCH   4   5
ENDBRANCH   3   4
ENDBRANCH   2   3
ENDBRANCH   1   2
BRANCH   1  16
ATOM     16  C   UNL     1       4.245   4.926 -23.222  0.00  0.00    +0.000 C 
BRANCH  16  17
ATOM     17  C   UNL     1       4.842   3.808 -22.936  0.00  0.00    +0.000 C 
BRANCH  17  18
ATOM     18  C   UNL     1       4.694   2.775 -23.711  0.00  0.00    +0.005 C 
BRANCH  18  19
ATOM     19  C   UNL     1       4.260   1.651 -23.222  0.00  0.00    +0.038 C 
BRANCH  19  20
ATOM     20  C   UNL     1       3.081   1.591 -22.678  0.00  0.00    -0.011 C 
ATOM     21  C   UNL     1       2.018   1.635 -23.424  0.00  0.00    +0.169 C 
ATOM     22  C   UNL     1       0.839   1.576 -22.880  0.00  0.00    -0.086 C 
ATOM     23  C   UNL     1       0.723   1.472 -21.589  0.00  0.00    -0.014 C 
ATOM     24  C   UNL     1       1.787   1.427 -20.842  0.00  0.00    +0.169 C 
ATOM     25  O   UNL     1       1.671   1.323 -19.552  0.00  0.00    -0.289 OA
ATOM     26  C   UNL     1      -0.456   1.412 -21.045  0.00  0.00    +0.047 C 
ATOM     27  O   UNL     1      -0.224   1.620 -23.627  0.00  0.00    -0.826 OA
ATOM     28  O   UNL     1       2.133   1.739 -24.715  0.00  0.00    -0.289 OA
ATOM     29  C   UNL     1       2.966   1.487 -21.387  0.00  0.00    -0.086 C 
ATOM     30  O   UNL     1       4.029   1.443 -20.641  0.00  0.00    -0.826 OA
ENDBRANCH  19  20
ENDBRANCH  18  19
ENDBRANCH  17  18
ENDBRANCH  16  17
ENDBRANCH   1  16
TORSDOF 17
ENDMDL
MODEL 8
REMARK VINA RESULT:    -7.448      1.620      4.462
REMARK INTER + INTRA:         -17.690
REMARK INTER:                 -14.276
REMARK INTRA:                  -3.413
REMARK UNBOUND:                -2.840
REMARK  Name = ZINC000008382368
REMARK  19 active torsions:
REMARK  status: ('A' for Active; 'I' for Inactive)
REMARK    1  A    between atoms: C_1  and  C_2
REMARK    2  A    between atoms: C_2  and  C_3
REMARK    3  A    between atoms: C_3  and  C_4
REMARK    4  A    between atoms: C_4  and  C_5
REMARK    5  A    between atoms: C_6  and  C_7
REMARK    6  A    between atoms: C_7  and  C_8
REMARK    7  A    between atoms: C_8  and  C_9
REMARK    8  A    between atoms: C_9  and  C_10
REMARK    9  A    between atoms: C_10  and  C_11
REMARK   10  A    between atoms: C_11  and  C_12
REMARK   11  A    between atoms: C_12  and  C_13
REMARK   12  A    between atoms: C_13  and  C_14
REMARK   13  A    between atoms: C_14  and  C_15
REMARK   14  A    between atoms: C_15  and  C_16
REMARK   15  A    between atoms: C_16  and  C_17
REMARK   16  A    between atoms: C_17  and  C_18
REMARK   17  A    between atoms: C_18  and  C_19
REMARK   18  A    between atoms: C_19  and  C_20
REMARK   19  A    between atoms: C_25  and  C_26
REMARK                            x       y       z     vdW  Elec       q    Type
REMARK                         _______ _______ _______ _____ _____    ______ ____
ROOT
ATOM      1  C   UNL     1       0.231   1.247 -21.902  0.00  0.00    +0.000 C 
ENDROOT
BRANCH   1   2
ATOM      2  C   UNL     1      -0.663   1.802 -21.139  0.00  0.00    +0.000 C 
BRANCH   2   3
ATOM      3  C   UNL     1      -1.696   2.387 -21.669  0.00  0.00    -0.000 C 
BRANCH   3   4
ATOM      4  C   UNL     1      -1.995   3.608 -21.336  0.00  0.00    +0.000 C 
BRANCH   4   5
ATOM      5  C   UNL     1      -3.223   3.922 -21.051  0.00  0.00    +0.000 C 
BRANCH   5   6
ATOM      6  C   UNL     1      -4.184   3.085 -21.306  0.00  0.00    +0.000 C 
BRANCH   6   7
ATOM      7  C   UNL     1      -5.207   3.466 -22.012  0.00  0.00    +0.000 C 
BRANCH   7   8
ATOM      8  C   UNL     1      -5.213   3.283 -23.299  0.00  0.00    +0.004 C 
BRANCH   8   9
ATOM      9  C   UNL     1      -5.009   4.287 -24.099  0.00  0.00    +0.027 C 
BRANCH   9  11
ATOM     10  C   UNL     1      -3.177   3.362 -25.026  0.00  0.00    -0.031 C 
ATOM     11  C   UNL     1      -3.861   4.418 -24.696  0.00  0.00    -0.031 C 
BRANCH  10  12
ATOM     12  C   UNL     1      -2.029   3.492 -25.623  0.00  0.00    +0.027 C 
BRANCH  12  13
ATOM     13  C   UNL     1      -1.011   3.974 -24.975  0.00  0.00    +0.004 C 
BRANCH  13  15
ATOM     14  C   UNL     1       1.137   3.803 -25.630  0.00  0.00    +0.004 C 
ATOM     15  C   UNL     1       0.120   3.333 -24.970  0.00  0.00    -0.003 C 
ENDBRANCH  13  15
ENDBRANCH  12  13
ENDBRANCH  10  12
ENDBRANCH   9  11
ENDBRANCH   8   9
ENDBRANCH   7   8
ENDBRANCH   6   7
ENDBRANCH   5   6
ENDBRANCH   4   5
ENDBRANCH   3   4
ENDBRANCH   2   3
ENDBRANCH   1   2
BRANCH   1  16
ATOM     16  C   UNL     1       1.492   1.514 -21.726  0.00  0.00    +0.000 C 
BRANCH  16  17
ATOM     17  C   UNL     1       2.304   1.512 -22.740  0.00  0.00    +0.000 C 
BRANCH  17  18
ATOM     18  C   UNL     1       3.485   2.043 -22.628  0.00  0.00    +0.005 C 
BRANCH  18  19
ATOM     19  C   UNL     1       3.882   2.936 -23.487  0.00  0.00    +0.038 C 
BRANCH  19  20
ATOM     20  C   UNL     1       4.534   3.984 -23.081  0.00  0.00    -0.011 C 
ATOM     21  C   UNL     1       3.892   5.076 -22.789  0.00  0.00    +0.169 C 
ATOM     22  C   UNL     1       4.544   6.124 -22.383  0.00  0.00    -0.086 C 
ATOM     23  C   UNL     1       5.839   6.081 -22.269  0.00  0.00    -0.014 C 
ATOM     24  C   UNL     1       6.481   4.989 -22.561  0.00  0.00    +0.169 C 
ATOM     25  O   UNL     1       7.775   4.945 -22.447  0.00  0.00    -0.289 OA
ATOM     26  C   UNL     1       6.491   7.129 -21.863  0.00  0.00    +0.047 C 
ATOM     27  O   UNL     1       3.902   7.216 -22.090  0.00  0.00    -0.826 OA
ATOM     28  O   UNL     1       2.598   5.120 -22.902  0.00  0.00    -0.289 OA
ATOM     29  C   UNL     1       5.828   3.940 -22.967  0.00  0.00    -0.086 C 
ATOM     30  O   UNL     1       6.470   2.848 -23.259  0.00  0.00    -0.826 OA
ENDBRANCH  19  20
ENDBRANCH  18  19
ENDBRANCH  17  18
ENDBRANCH  16  17
ENDBRANCH   1  16
TORSDOF 17
ENDMDL
MODEL 9
REMARK VINA RESULT:    -7.399      1.467      3.906
REMARK INTER + INTRA:         -17.593
REMARK INTER:                 -14.753
REMARK INTRA:                  -2.840
REMARK UNBOUND:                -2.840
REMARK  Name = ZINC000008382368
REMARK  19 active torsions:
REMARK  status: ('A' for Active; 'I' for Inactive)
REMARK    1  A    between atoms: C_1  and  C_2
REMARK    2  A    between atoms: C_2  and  C_3
REMARK    3  A    between atoms: C_3  and  C_4
REMARK    4  A    between atoms: C_4  and  C_5
REMARK    5  A    between atoms: C_6  and  C_7
REMARK    6  A    between atoms: C_7  and  C_8
REMARK    7  A    between atoms: C_8  and  C_9
REMARK    8  A    between atoms: C_9  and  C_10
REMARK    9  A    between atoms: C_10  and  C_11
REMARK   10  A    between atoms: C_11  and  C_12
REMARK   11  A    between atoms: C_12  and  C_13
REMARK   12  A    between atoms: C_13  and  C_14
REMARK   13  A    between atoms: C_14  and  C_15
REMARK   14  A    between atoms: C_15  and  C_16
REMARK   15  A    between atoms: C_16  and  C_17
REMARK   16  A    between atoms: C_17  and  C_18
REMARK   17  A    between atoms: C_18  and  C_19
REMARK   18  A    between atoms: C_19  and  C_20
REMARK   19  A    between atoms: C_25  and  C_26
REMARK                            x       y       z     vdW  Elec       q    Type
REMARK                         _______ _______ _______ _____ _____    ______ ____
ROOT
ATOM      1  C   UNL     1      -0.593   3.754 -25.415  0.00  0.00    +0.000 C 
ENDROOT
BRANCH   1   2
ATOM      2  C   UNL     1      -1.668   3.565 -24.710  0.00  0.00    +0.000 C 
BRANCH   2   3
ATOM      3  C   UNL     1      -2.553   2.695 -25.095  0.00  0.00    -0.000 C 
BRANCH   3   4
ATOM      4  C   UNL     1      -3.637   3.091 -25.694  0.00  0.00    +0.000 C 
BRANCH   4   5
ATOM      5  C   UNL     1      -4.091   4.292 -25.490  0.00  0.00    +0.000 C 
BRANCH   5   6
ATOM      6  C   UNL     1      -4.976   4.502 -24.562  0.00  0.00    +0.000 C 
BRANCH   6   7
ATOM      7  C   UNL     1      -5.354   3.527 -23.791  0.00  0.00    +0.000 C 
BRANCH   7   8
ATOM      8  C   UNL     1      -5.487   3.722 -22.512  0.00  0.00    +0.004 C 
BRANCH   8   9
ATOM      9  C   UNL     1      -5.197   2.770 -21.676  0.00  0.00    +0.027 C 
BRANCH   9  11
ATOM     10  C   UNL     1      -3.070   3.388 -21.268  0.00  0.00    -0.031 C 
ATOM     11  C   UNL     1      -3.954   2.453 -21.460  0.00  0.00    -0.031 C 
BRANCH  10  12
ATOM     12  C   UNL     1      -1.828   3.073 -21.052  0.00  0.00    +0.027 C 
BRANCH  12  13
ATOM     13  C   UNL     1      -1.378   1.912 -21.425  0.00  0.00    +0.004 C 
BRANCH  13  15
ATOM     14  C   UNL     1       0.663   1.257 -22.114  0.00  0.00    +0.004 C 
ATOM     15  C   UNL     1      -0.153   1.571 -21.153  0.00  0.00    -0.003 C 
ENDBRANCH  13  15
ENDBRANCH  12  13
ENDBRANCH  10  12
ENDBRANCH   9  11
ENDBRANCH   8   9
ENDBRANCH   7   8
ENDBRANCH   6   7
ENDBRANCH   5   6
ENDBRANCH   4   5
ENDBRANCH   3   4
ENDBRANCH   2   3
ENDBRANCH   1   2
BRANCH   1  16
ATOM     16  C   UNL     1       0.560   3.868 -24.825  0.00  0.00    +0.000 C 
BRANCH  16  17
ATOM     17  C   UNL     1       0.629   4.350 -23.620  0.00  0.00    +0.000 C 
BRANCH  17  18
ATOM     18  C   UNL     1       1.785   4.647 -23.104  0.00  0.00    +0.005 C 
BRANCH  18  19
ATOM     19  C   UNL     1       2.865   4.534 -23.819  0.00  0.00    +0.038 C 
BRANCH  19  20
ATOM     20  C   UNL     1       4.030   4.540 -23.242  0.00  0.00    -0.011 C 
ATOM     21  C   UNL     1       4.792   3.488 -23.307  0.00  0.00    +0.169 C 
ATOM     22  C   UNL     1       5.956   3.493 -22.730  0.00  0.00    -0.086 C 
ATOM     23  C   UNL     1       6.360   4.550 -22.089  0.00  0.00    -0.014 C 
ATOM     24  C   UNL     1       5.598   5.602 -22.024  0.00  0.00    +0.169 C 
ATOM     25  O   UNL     1       6.001   6.658 -21.383  0.00  0.00    -0.289 OA
ATOM     26  C   UNL     1       7.525   4.555 -21.512  0.00  0.00    +0.047 C 
ATOM     27  O   UNL     1       6.718   2.442 -22.795  0.00  0.00    -0.826 OA
ATOM     28  O   UNL     1       4.389   2.432 -23.948  0.00  0.00    -0.289 OA
ATOM     29  C   UNL     1       4.433   5.596 -22.601  0.00  0.00    -0.086 C 
ATOM     30  O   UNL     1       3.671   6.647 -22.537  0.00  0.00    -0.826 OA
ENDBRANCH  19  20
ENDBRANCH  18  19
ENDBRANCH  17  18
ENDBRANCH  16  17
ENDBRANCH   1  16
TORSDOF 17
ENDMDL
