MODEL 1
REMARK VINA RESULT:   -10.773      0.000      0.000
REMARK INTER + INTRA:         -11.088
REMARK INTER:                 -11.088
REMARK INTRA:                   0.000
REMARK UNBOUND:                 0.000
REMARK  Name = CN1CC[C@@]23CC(=O)CC[C@@H]2[C@H]1Cc1ccc(O)cc13                       ZINC000169369352
REMARK  2 active torsions:
REMARK  status: ('A' for Active; 'I' for Inactive)
REMARK    1  A    between atoms: C_1  and  N_2
REMARK    2  A    between atoms: C_17  and  O_18
REMARK                            x       y       z     vdW  Elec       q    Type
REMARK                         _______ _______ _______ _____ _____    ______ ____
ROOT
ATOM      1  C   UNL     1      -3.714   2.966 -20.284  0.00  0.00    +0.190 C 
ATOM      2  N   UNL     1      -3.478   3.059 -21.776  0.00  0.00    +0.236 N 
ATOM      3  H   UNL     1      -4.185   3.368 -22.445  0.00  0.00    +0.203 HD
ATOM      4  C   UNL     1      -3.346   3.149 -22.947  0.00  0.00    +0.132 C 
ATOM      5  C   UNL     1      -2.351   2.895 -23.594  0.00  0.00    +0.063 C 
ATOM      6  C   UNL     1      -1.565   2.586 -23.149  0.00  0.00    +0.015 C 
ATOM      7  C   UNL     1      -0.476   2.293 -23.723  0.00  0.00    +0.086 C 
ATOM      8  C   UNL     1       0.544   1.877 -23.021  0.00  0.00    +0.134 C 
ATOM      9  C   UNL     1       0.455   1.755 -21.706  0.00  0.00    +0.075 C 
ATOM     10  C   UNL     1      -0.649   2.046 -21.070  0.00  0.00    +0.017 C 
ATOM     11  O   UNL     1       1.638   1.589 -23.654  0.00  0.00    -0.297 OA
ATOM     12  C   UNL     1      -3.034   3.145 -23.815  0.00  0.00    -0.033 A 
ATOM     13  C   UNL     1      -2.955   3.266 -25.094  0.00  0.00    +0.050 A 
ATOM     14  C   UNL     1      -3.962   3.674 -25.762  0.00  0.00    +0.117 A 
ATOM     15  C   UNL     1      -5.063   3.967 -25.157  0.00  0.00    +0.046 A 
ATOM     16  C   UNL     1      -5.148   3.848 -23.867  0.00  0.00    +0.007 A 
ATOM     17  C   UNL     1      -4.141   3.439 -23.196  0.00  0.00    -0.038 A 
ATOM     18  C   UNL     1      -4.180   3.316 -22.006  0.00  0.00    +0.090 C 
ATOM     19  C   UNL     1      -1.665   2.455 -21.724  0.00  0.00    +0.049 C 
ATOM     20  C   UNL     1      -2.861   2.792 -21.222  0.00  0.00    +0.072 C 
ENDROOT
BRANCH  14  21
ATOM     21  O   UNL     1      -3.717   3.746 -27.098  0.00  0.00    -0.507 OA
ATOM     22  H   UNL     1      -4.112   4.424 -27.611  0.00  0.00    +0.292 HD
ENDBRANCH  14  21
TORSDOF 1
ENDMDL
MODEL 2
REMARK VINA RESULT:   -10.729      2.349      3.641
REMARK INTER + INTRA:         -11.043
REMARK INTER:                 -11.043
REMARK INTRA:                   0.000
REMARK UNBOUND:                 0.000
REMARK  Name = CN1CC[C@@]23CC(=O)CC[C@@H]2[C@H]1Cc1ccc(O)cc13                       ZINC000169369352
REMARK  2 active torsions:
REMARK  status: ('A' for Active; 'I' for Inactive)
REMARK    1  A    between atoms: C_1  and  N_2
REMARK    2  A    between atoms: C_17  and  O_18
REMARK                            x       y       z     vdW  Elec       q    Type
REMARK                         _______ _______ _______ _____ _____    ______ ____
ROOT
ATOM      1  C   UNL     1      -2.988   3.374 -26.340  0.00  0.00    +0.190 C 
ATOM      2  N   UNL     1      -2.795   3.515 -24.846  0.00  0.00    +0.236 N 
ATOM      3  H   UNL     1      -3.556   3.468 -24.167  0.00  0.00    +0.203 HD
ATOM      4  C   UNL     1      -2.697   3.620 -23.672  0.00  0.00    +0.132 C 
ATOM      5  C   UNL     1      -1.681   3.803 -23.034  0.00  0.00    +0.063 C 
ATOM      6  C   UNL     1      -0.845   3.878 -23.490  0.00  0.00    +0.015 C 
ATOM      7  C   UNL     1       0.271   4.069 -22.926  0.00  0.00    +0.086 C 
ATOM      8  C   UNL     1       1.361   4.157 -23.642  0.00  0.00    +0.134 C 
ATOM      9  C   UNL     1       1.314   4.048 -24.959  0.00  0.00    +0.075 C 
ATOM     10  C   UNL     1       0.183   3.850 -25.585  0.00  0.00    +0.017 C 
ATOM     11  O   UNL     1       2.481   4.353 -23.018  0.00  0.00    -0.297 OA
ATOM     12  C   UNL     1      -2.402   3.726 -22.806  0.00  0.00    -0.033 A 
ATOM     13  C   UNL     1      -2.364   3.831 -21.523  0.00  0.00    +0.050 A 
ATOM     14  C   UNL     1      -3.440   3.742 -20.842  0.00  0.00    +0.117 A 
ATOM     15  C   UNL     1      -4.567   3.547 -21.436  0.00  0.00    +0.046 A 
ATOM     16  C   UNL     1      -4.611   3.441 -22.729  0.00  0.00    +0.007 A 
ATOM     17  C   UNL     1      -3.536   3.529 -23.413  0.00  0.00    -0.038 A 
ATOM     18  C   UNL     1      -3.535   3.436 -24.608  0.00  0.00    +0.090 C 
ATOM     19  C   UNL     1      -0.900   3.760 -24.919  0.00  0.00    +0.049 C 
ATOM     20  C   UNL     1      -2.131   3.559 -25.408  0.00  0.00    +0.072 C 
ENDROOT
BRANCH  14  21
ATOM     21  O   UNL     1      -3.230   3.874 -19.504  0.00  0.00    -0.507 OA
ATOM     22  H   UNL     1      -3.790   3.432 -18.897  0.00  0.00    +0.292 HD
ENDBRANCH  14  21
TORSDOF 1
ENDMDL
MODEL 3
REMARK VINA RESULT:   -10.413      2.283      4.483
REMARK INTER + INTRA:         -10.717
REMARK INTER:                 -10.717
REMARK INTRA:                   0.000
REMARK UNBOUND:                 0.000
REMARK  Name = CN1CC[C@@]23CC(=O)CC[C@@H]2[C@H]1Cc1ccc(O)cc13                       ZINC000169369352
REMARK  2 active torsions:
REMARK  status: ('A' for Active; 'I' for Inactive)
REMARK    1  A    between atoms: C_1  and  N_2
REMARK    2  A    between atoms: C_17  and  O_18
REMARK                            x       y       z     vdW  Elec       q    Type
REMARK                         _______ _______ _______ _____ _____    ______ ____
ROOT
ATOM      1  C   UNL     1      -3.863   3.253 -25.924  0.00  0.00    +0.190 C 
ATOM      2  N   UNL     1      -2.613   3.455 -25.095  0.00  0.00    +0.236 N 
ATOM      3  H   UNL     1      -1.677   3.548 -25.491  0.00  0.00    +0.203 HD
ATOM      4  C   UNL     1      -1.608   3.613 -24.494  0.00  0.00    +0.132 C 
ATOM      5  C   UNL     1      -1.479   3.697 -23.290  0.00  0.00    +0.063 C 
ATOM      6  C   UNL     1      -2.248   3.634 -22.727  0.00  0.00    +0.015 C 
ATOM      7  C   UNL     1      -2.228   3.708 -21.465  0.00  0.00    +0.086 C 
ATOM      8  C   UNL     1      -3.340   3.609 -20.785  0.00  0.00    +0.134 C 
ATOM      9  C   UNL     1      -4.496   3.431 -21.403  0.00  0.00    +0.075 C 
ATOM     10  C   UNL     1      -4.565   3.349 -22.706  0.00  0.00    +0.017 C 
ATOM     11  O   UNL     1      -3.269   3.691 -19.493  0.00  0.00    -0.297 OA
ATOM     12  C   UNL     1      -0.962   3.729 -23.846  0.00  0.00    -0.033 A 
ATOM     13  C   UNL     1       0.166   3.903 -23.252  0.00  0.00    +0.050 A 
ATOM     14  C   UNL     1       1.241   3.997 -23.933  0.00  0.00    +0.117 A 
ATOM     15  C   UNL     1       1.200   3.919 -25.220  0.00  0.00    +0.046 A 
ATOM     16  C   UNL     1       0.065   3.744 -25.825  0.00  0.00    +0.007 A 
ATOM     17  C   UNL     1      -1.013   3.650 -25.144  0.00  0.00    -0.038 A 
ATOM     18  C   UNL     1      -2.079   3.488 -25.665  0.00  0.00    +0.090 C 
ATOM     19  C   UNL     1      -3.500   3.441 -23.401  0.00  0.00    +0.049 C 
ATOM     20  C   UNL     1      -3.403   3.377 -24.736  0.00  0.00    +0.072 C 
ENDROOT
BRANCH  14  21
ATOM     21  O   UNL     1       2.345   4.177 -23.158  0.00  0.00    -0.507 OA
ATOM     22  H   UNL     1       2.336   3.908 -22.261  0.00  0.00    +0.292 HD
ENDBRANCH  14  21
TORSDOF 1
ENDMDL
MODEL 4
REMARK VINA RESULT:   -10.048      2.004      3.097
REMARK INTER + INTRA:         -10.342
REMARK INTER:                 -10.342
REMARK INTRA:                   0.000
REMARK UNBOUND:                 0.000
REMARK  Name = CN1CC[C@@]23CC(=O)CC[C@@H]2[C@H]1Cc1ccc(O)cc13                       ZINC000169369352
REMARK  2 active torsions:
REMARK  status: ('A' for Active; 'I' for Inactive)
REMARK    1  A    between atoms: C_1  and  N_2
REMARK    2  A    between atoms: C_17  and  O_18
REMARK                            x       y       z     vdW  Elec       q    Type
REMARK                         _______ _______ _______ _____ _____    ______ ____
ROOT
ATOM      1  C   UNL     1      -0.488   3.753 -25.877  0.00  0.00    +0.190 C 
ATOM      2  N   UNL     1      -1.449   3.495 -24.737  0.00  0.00    +0.236 N 
ATOM      3  H   UNL     1      -2.447   3.710 -24.774  0.00  0.00    +0.203 HD
ATOM      4  C   UNL     1      -2.240   3.314 -23.877  0.00  0.00    +0.132 C 
ATOM      5  C   UNL     1      -2.034   2.838 -22.780  0.00  0.00    +0.063 C 
ATOM      6  C   UNL     1      -1.150   2.566 -22.542  0.00  0.00    +0.015 C 
ATOM      7  C   UNL     1      -0.825   2.061 -21.429  0.00  0.00    +0.086 C 
ATOM      8  C   UNL     1       0.417   1.721 -21.201  0.00  0.00    +0.134 C 
ATOM      9  C   UNL     1       1.346   1.900 -22.126  0.00  0.00    +0.075 C 
ATOM     10  C   UNL     1       1.056   2.419 -23.290  0.00  0.00    +0.017 C 
ATOM     11  O   UNL     1       0.702   1.207 -20.046  0.00  0.00    -0.297 OA
ATOM     12  C   UNL     1      -2.677   3.092 -23.096  0.00  0.00    -0.033 A 
ATOM     13  C   UNL     1      -3.586   2.921 -22.202  0.00  0.00    +0.050 A 
ATOM     14  C   UNL     1      -4.793   3.259 -22.443  0.00  0.00    +0.117 A 
ATOM     15  C   UNL     1      -5.105   3.773 -23.584  0.00  0.00    +0.046 A 
ATOM     16  C   UNL     1      -4.191   3.948 -24.490  0.00  0.00    +0.007 A 
ATOM     17  C   UNL     1      -2.983   3.610 -24.251  0.00  0.00    -0.038 A 
ATOM     18  C   UNL     1      -2.112   3.755 -25.060  0.00  0.00    +0.090 C 
ATOM     19  C   UNL     1      -0.145   2.762 -23.546  0.00  0.00    +0.049 C 
ATOM     20  C   UNL     1      -0.601   3.303 -24.684  0.00  0.00    +0.072 C 
ENDROOT
BRANCH  14  21
ATOM     21  O   UNL     1      -5.630   3.014 -21.399  0.00  0.00    -0.507 OA
ATOM     22  H   UNL     1      -6.507   2.724 -21.559  0.00  0.00    +0.292 HD
ENDBRANCH  14  21
TORSDOF 1
ENDMDL
MODEL 5
REMARK VINA RESULT:    -9.954      2.264      5.437
REMARK INTER + INTRA:         -10.245
REMARK INTER:                 -10.245
REMARK INTRA:                   0.000
REMARK UNBOUND:                 0.000
REMARK  Name = CN1CC[C@@]23CC(=O)CC[C@@H]2[C@H]1Cc1ccc(O)cc13                       ZINC000169369352
REMARK  2 active torsions:
REMARK  status: ('A' for Active; 'I' for Inactive)
REMARK    1  A    between atoms: C_1  and  N_2
REMARK    2  A    between atoms: C_17  and  O_18
REMARK                            x       y       z     vdW  Elec       q    Type
REMARK                         _______ _______ _______ _____ _____    ______ ____
ROOT
ATOM      1  C   UNL     1      -0.526   3.692 -25.488  0.00  0.00    +0.190 C 
ATOM      2  N   UNL     1      -0.204   3.129 -24.122  0.00  0.00    +0.236 N 
ATOM      3  H   UNL     1       0.740   2.889 -23.813  0.00  0.00    +0.203 HD
ATOM      4  C   UNL     1       0.101   2.687 -23.068  0.00  0.00    +0.132 C 
ATOM      5  C   UNL     1      -0.637   2.428 -22.140  0.00  0.00    +0.063 C 
ATOM      6  C   UNL     1      -1.576   2.582 -22.227  0.00  0.00    +0.015 C 
ATOM      7  C   UNL     1      -2.432   2.349 -21.326  0.00  0.00    +0.086 C 
ATOM      8  C   UNL     1      -3.697   2.596 -21.545  0.00  0.00    +0.134 C 
ATOM      9  C   UNL     1      -4.098   3.091 -22.704  0.00  0.00    +0.075 C 
ATOM     10  C   UNL     1      -3.248   3.348 -23.664  0.00  0.00    +0.017 C 
ATOM     11  O   UNL     1      -4.538   2.341 -20.591  0.00  0.00    -0.297 OA
ATOM     12  C   UNL     1       0.116   2.356 -22.208  0.00  0.00    -0.033 A 
ATOM     13  C   UNL     1       0.514   1.875 -21.082  0.00  0.00    +0.050 A 
ATOM     14  C   UNL     1       1.753   1.640 -20.888  0.00  0.00    +0.117 A 
ATOM     15  C   UNL     1       2.611   1.885 -21.819  0.00  0.00    +0.046 A 
ATOM     16  C   UNL     1       2.216   2.371 -22.956  0.00  0.00    +0.007 A 
ATOM     17  C   UNL     1       0.976   2.606 -23.153  0.00  0.00    -0.038 A 
ATOM     18  C   UNL     1       0.572   3.054 -24.188  0.00  0.00    +0.090 C 
ATOM     19  C   UNL     1      -2.007   3.119 -23.486  0.00  0.00    +0.049 C 
ATOM     20  C   UNL     1      -1.016   3.327 -24.364  0.00  0.00    +0.072 C 
ENDROOT
BRANCH  14  21
ATOM     21  O   UNL     1       2.009   1.134 -19.651  0.00  0.00    -0.507 OA
ATOM     22  H   UNL     1       1.337   1.134 -18.998  0.00  0.00    +0.292 HD
ENDBRANCH  14  21
TORSDOF 1
ENDMDL
MODEL 6
REMARK VINA RESULT:    -9.014      2.681      4.450
REMARK INTER + INTRA:          -9.277
REMARK INTER:                  -9.277
REMARK INTRA:                   0.000
REMARK UNBOUND:                 0.000
REMARK  Name = CN1CC[C@@]23CC(=O)CC[C@@H]2[C@H]1Cc1ccc(O)cc13                       ZINC000169369352
REMARK  2 active torsions:
REMARK  status: ('A' for Active; 'I' for Inactive)
REMARK    1  A    between atoms: C_1  and  N_2
REMARK    2  A    between atoms: C_17  and  O_18
REMARK                            x       y       z     vdW  Elec       q    Type
REMARK                         _______ _______ _______ _____ _____    ______ ____
ROOT
ATOM      1  C   UNL     1       1.519   3.060 -25.850  0.00  0.00    +0.190 C 
ATOM      2  N   UNL     1       0.778   2.919 -24.538  0.00  0.00    +0.236 N 
ATOM      3  H   UNL     1      -0.159   3.288 -24.372  0.00  0.00    +0.203 HD
ATOM      4  C   UNL     1       0.158   2.837 -23.535  0.00  0.00    +0.132 C 
ATOM      5  C   UNL     1       0.502   2.301 -22.502  0.00  0.00    +0.063 C 
ATOM      6  C   UNL     1       1.361   1.888 -22.448  0.00  0.00    +0.015 C 
ATOM      7  C   UNL     1       1.819   1.304 -21.424  0.00  0.00    +0.086 C 
ATOM      8  C   UNL     1       3.011   0.768 -21.453  0.00  0.00    +0.134 C 
ATOM      9  C   UNL     1       3.752   0.829 -22.547  0.00  0.00    +0.075 C 
ATOM     10  C   UNL     1       3.320   1.423 -23.629  0.00  0.00    +0.017 C 
ATOM     11  O   UNL     1       3.437   0.180 -20.379  0.00  0.00    -0.297 OA
ATOM     12  C   UNL     1      -0.143   2.662 -22.681  0.00  0.00    -0.033 A 
ATOM     13  C   UNL     1      -0.870   2.607 -21.621  0.00  0.00    +0.050 A 
ATOM     14  C   UNL     1      -2.031   3.136 -21.612  0.00  0.00    +0.117 A 
ATOM     15  C   UNL     1      -2.480   3.727 -22.667  0.00  0.00    +0.046 A 
ATOM     16  C   UNL     1      -1.751   3.786 -23.739  0.00  0.00    +0.007 A 
ATOM     17  C   UNL     1      -0.588   3.257 -23.750  0.00  0.00    -0.038 A 
ATOM     18  C   UNL     1       0.114   3.290 -24.720  0.00  0.00    +0.090 C 
ATOM     19  C   UNL     1       2.162   1.956 -23.636  0.00  0.00    +0.049 C 
ATOM     20  C   UNL     1       1.578   2.597 -24.659  0.00  0.00    +0.072 C 
ENDROOT
BRANCH  14  21
ATOM     21  O   UNL     1      -2.669   2.992 -20.419  0.00  0.00    -0.507 OA
ATOM     22  H   UNL     1      -3.322   3.612 -20.160  0.00  0.00    +0.292 HD
ENDBRANCH  14  21
TORSDOF 1
ENDMDL
MODEL 7
REMARK VINA RESULT:    -8.148      3.592      5.504
REMARK INTER + INTRA:          -8.387
REMARK INTER:                  -8.387
REMARK INTRA:                   0.000
REMARK UNBOUND:                 0.000
REMARK  Name = CN1CC[C@@]23CC(=O)CC[C@@H]2[C@H]1Cc1ccc(O)cc13                       ZINC000169369352
REMARK  2 active torsions:
REMARK  status: ('A' for Active; 'I' for Inactive)
REMARK    1  A    between atoms: C_1  and  N_2
REMARK    2  A    between atoms: C_17  and  O_18
REMARK                            x       y       z     vdW  Elec       q    Type
REMARK                         _______ _______ _______ _____ _____    ______ ____
ROOT
ATOM      1  C   UNL     1       2.249   1.191 -20.243  0.00  0.00    +0.190 C 
ATOM      2  N   UNL     1       2.174   1.892 -21.582  0.00  0.00    +0.236 N 
ATOM      3  H   UNL     1       1.307   2.033 -22.102  0.00  0.00    +0.203 HD
ATOM      4  C   UNL     1       2.062   2.430 -22.629  0.00  0.00    +0.132 C 
ATOM      5  C   UNL     1       2.946   2.924 -23.298  0.00  0.00    +0.063 C 
ATOM      6  C   UNL     1       3.847   2.897 -22.983  0.00  0.00    +0.015 C 
ATOM      7  C   UNL     1       4.842   3.378 -23.598  0.00  0.00    +0.086 C 
ATOM      8  C   UNL     1       6.039   3.289 -23.080  0.00  0.00    +0.134 C 
ATOM      9  C   UNL     1       6.226   2.698 -21.911  0.00  0.00    +0.075 C 
ATOM     10  C   UNL     1       5.228   2.186 -21.240  0.00  0.00    +0.017 C 
ATOM     11  O   UNL     1       7.027   3.798 -23.747  0.00  0.00    -0.297 OA
ATOM     12  C   UNL     1       2.198   2.875 -23.425  0.00  0.00    -0.033 A 
ATOM     13  C   UNL     1       2.008   3.449 -24.561  0.00  0.00    +0.050 A 
ATOM     14  C   UNL     1       0.831   3.526 -25.050  0.00  0.00    +0.117 A 
ATOM     15  C   UNL     1      -0.170   3.028 -24.407  0.00  0.00    +0.046 A 
ATOM     16  C   UNL     1       0.016   2.448 -23.261  0.00  0.00    +0.007 A 
ATOM     17  C   UNL     1       1.193   2.370 -22.769  0.00  0.00    -0.038 A 
ATOM     18  C   UNL     1       1.406   1.843 -21.715  0.00  0.00    +0.090 C 
ATOM     19  C   UNL     1       4.047   2.254 -21.716  0.00  0.00    +0.049 C 
ATOM     20  C   UNL     1       2.925   1.782 -21.155  0.00  0.00    +0.072 C 
ENDROOT
BRANCH  14  21
ATOM     21  O   UNL     1       0.799   4.160 -26.253  0.00  0.00    -0.507 OA
ATOM     22  H   UNL     1       1.296   4.945 -26.382  0.00  0.00    +0.292 HD
ENDBRANCH  14  21
TORSDOF 1
ENDMDL
