MODEL 1
REMARK VINA RESULT:   -10.115      0.000      0.000
REMARK INTER + INTRA:         -10.115
REMARK INTER:                 -10.115
REMARK INTRA:                   0.000
REMARK UNBOUND:                 0.000
REMARK  Name = ZINC000004492886
REMARK  2 active torsions:
REMARK  status: ('A' for Active; 'I' for Inactive)
REMARK    1  A    between atoms: C_10  and  C_11
REMARK    2  A    between atoms: C_15  and  C_16
REMARK                            x       y       z     vdW  Elec       q    Type
REMARK                         _______ _______ _______ _____ _____    ______ ____
ROOT
ATOM      1  C   UNL     1       0.724   2.477 -23.015  0.00  0.00    +0.020 C 
ATOM      2  C   UNL     1      -0.028   2.964 -23.972  0.00  0.00    +0.036 C 
ATOM      3  C   UNL     1       0.374   3.316 -25.167  0.00  0.00    +0.335 C 
ATOM      4  O   UNL     1      -0.667   3.754 -25.834  0.00  0.00    -0.455 OA
ATOM      5  C   UNL     1      -1.714   3.672 -25.050  0.00  0.00    +0.216 C 
ATOM      6  C   UNL     1      -3.060   4.011 -25.282  0.00  0.00    +0.192 C 
ATOM      7  O   UNL     1      -4.293   4.348 -25.567  0.00  0.00    -0.361 OA
ATOM      8  C   UNL     1      -4.003   3.866 -24.381  0.00  0.00    +0.097 C 
ATOM      9  C   UNL     1      -3.329   3.375 -23.370  0.00  0.00    +0.044 C 
ATOM     10  C   UNL     1      -5.276   3.918 -23.849  0.00  0.00    +0.041 C 
ATOM     11  C   UNL     1      -5.303   3.515 -22.713  0.00  0.00    +0.030 C 
ATOM     12  C   UNL     1      -4.166   3.223 -22.503  0.00  0.00    -0.028 C 
ATOM     13  C   UNL     1      -3.606   2.767 -21.531  0.00  0.00    -0.077 C 
ATOM     14  C   UNL     1      -4.197   2.478 -20.412  0.00  0.00    +0.039 C 
ATOM     15  C   UNL     1      -2.369   2.630 -21.804  0.00  0.00    +0.031 C 
ATOM     16  C   UNL     1      -2.284   3.060 -23.046  0.00  0.00    +0.016 C 
ATOM     17  O   UNL     1       1.605   3.244 -25.617  0.00  0.00    -0.245 OA
ATOM     18  C   UNL     1      -1.320   3.184 -23.902  0.00  0.00    +0.069 C 
ENDROOT
TORSDOF 0
ENDMDL
MODEL 2
REMARK VINA RESULT:   -10.084      1.230      1.565
REMARK INTER + INTRA:         -10.084
REMARK INTER:                 -10.084
REMARK INTRA:                   0.000
REMARK UNBOUND:                 0.000
REMARK  Name = ZINC000004492886
REMARK  2 active torsions:
REMARK  status: ('A' for Active; 'I' for Inactive)
REMARK    1  A    between atoms: C_10  and  C_11
REMARK    2  A    between atoms: C_15  and  C_16
REMARK                            x       y       z     vdW  Elec       q    Type
REMARK                         _______ _______ _______ _____ _____    ______ ____
ROOT
ATOM      1  C   UNL     1      -0.189   1.752 -21.166  0.00  0.00    +0.020 C 
ATOM      2  C   UNL     1      -0.247   2.191 -22.399  0.00  0.00    +0.036 C 
ATOM      3  C   UNL     1       0.755   2.272 -23.238  0.00  0.00    +0.335 C 
ATOM      4  O   UNL     1       0.301   2.759 -24.368  0.00  0.00    -0.455 OA
ATOM      5  C   UNL     1      -0.983   2.979 -24.228  0.00  0.00    +0.216 C 
ATOM      6  C   UNL     1      -1.929   3.492 -25.134  0.00  0.00    +0.192 C 
ATOM      7  O   UNL     1      -2.755   3.975 -26.029  0.00  0.00    -0.361 OA
ATOM      8  C   UNL     1      -3.196   3.654 -24.836  0.00  0.00    +0.097 C 
ATOM      9  C   UNL     1      -3.233   3.232 -23.596  0.00  0.00    +0.044 C 
ATOM     10  C   UNL     1      -4.518   4.000 -25.035  0.00  0.00    +0.041 C 
ATOM     11  C   UNL     1      -5.186   3.799 -24.051  0.00  0.00    +0.030 C 
ATOM     12  C   UNL     1      -4.395   3.363 -23.272  0.00  0.00    -0.028 C 
ATOM     13  C   UNL     1      -4.499   2.988 -22.126  0.00  0.00    -0.077 C 
ATOM     14  C   UNL     1      -5.609   2.987 -21.452  0.00  0.00    +0.039 C 
ATOM     15  C   UNL     1      -3.354   2.607 -21.719  0.00  0.00    +0.031 C 
ATOM     16  C   UNL     1      -2.579   2.807 -22.765  0.00  0.00    +0.016 C 
ATOM     17  O   UNL     1       1.997   1.926 -22.990  0.00  0.00    -0.245 OA
ATOM     18  C   UNL     1      -1.321   2.629 -23.013  0.00  0.00    +0.069 C 
ENDROOT
TORSDOF 0
ENDMDL
MODEL 3
REMARK VINA RESULT:    -9.896      2.168      3.267
REMARK INTER + INTRA:          -9.896
REMARK INTER:                  -9.896
REMARK INTRA:                   0.000
REMARK UNBOUND:                 0.000
REMARK  Name = ZINC000004492886
REMARK  2 active torsions:
REMARK  status: ('A' for Active; 'I' for Inactive)
REMARK    1  A    between atoms: C_10  and  C_11
REMARK    2  A    between atoms: C_15  and  C_16
REMARK                            x       y       z     vdW  Elec       q    Type
REMARK                         _______ _______ _______ _____ _____    ______ ____
ROOT
ATOM      1  C   UNL     1       0.785   2.602 -24.018  0.00  0.00    +0.020 C 
ATOM      2  C   UNL     1       0.060   2.346 -22.956  0.00  0.00    +0.036 C 
ATOM      3  C   UNL     1       0.485   1.795 -21.847  0.00  0.00    +0.335 C 
ATOM      4  O   UNL     1      -0.533   1.704 -21.023  0.00  0.00    -0.455 OA
ATOM      5  C   UNL     1      -1.586   2.200 -21.624  0.00  0.00    +0.216 C 
ATOM      6  C   UNL     1      -2.914   2.338 -21.179  0.00  0.00    +0.192 C 
ATOM      7  O   UNL     1      -4.129   2.434 -20.700  0.00  0.00    -0.361 OA
ATOM      8  C   UNL     1      -3.867   2.862 -21.913  0.00  0.00    +0.097 C 
ATOM      9  C   UNL     1      -3.222   3.155 -23.015  0.00  0.00    +0.044 C 
ATOM     10  C   UNL     1      -5.139   3.295 -22.229  0.00  0.00    +0.041 C 
ATOM     11  C   UNL     1      -5.190   3.758 -23.342  0.00  0.00    +0.030 C 
ATOM     12  C   UNL     1      -4.069   3.647 -23.731  0.00  0.00    -0.028 C 
ATOM     13  C   UNL     1      -3.535   3.943 -24.777  0.00  0.00    -0.077 C 
ATOM     14  C   UNL     1      -4.145   4.496 -25.782  0.00  0.00    +0.039 C 
ATOM     15  C   UNL     1      -2.305   3.621 -24.708  0.00  0.00    +0.031 C 
ATOM     16  C   UNL     1      -2.193   3.106 -23.502  0.00  0.00    +0.016 C 
ATOM     17  O   UNL     1       1.713   1.402 -21.603  0.00  0.00    -0.245 OA
ATOM     18  C   UNL     1      -1.220   2.595 -22.816  0.00  0.00    +0.069 C 
ENDROOT
TORSDOF 0
ENDMDL
MODEL 4
REMARK VINA RESULT:    -9.813      1.402      4.478
REMARK INTER + INTRA:          -9.813
REMARK INTER:                  -9.813
REMARK INTRA:                   0.000
REMARK UNBOUND:                 0.000
REMARK  Name = ZINC000004492886
REMARK  2 active torsions:
REMARK  status: ('A' for Active; 'I' for Inactive)
REMARK    1  A    between atoms: C_10  and  C_11
REMARK    2  A    between atoms: C_15  and  C_16
REMARK                            x       y       z     vdW  Elec       q    Type
REMARK                         _______ _______ _______ _____ _____    ______ ____
ROOT
ATOM      1  C   UNL     1      -4.092   2.300 -20.530  0.00  0.00    +0.020 C 
ATOM      2  C   UNL     1      -4.014   2.770 -21.750  0.00  0.00    +0.036 C 
ATOM      3  C   UNL     1      -5.002   3.271 -22.449  0.00  0.00    +0.335 C 
ATOM      4  O   UNL     1      -4.530   3.633 -23.619  0.00  0.00    -0.455 OA
ATOM      5  C   UNL     1      -3.250   3.355 -23.643  0.00  0.00    +0.216 C 
ATOM      6  C   UNL     1      -2.291   3.544 -24.655  0.00  0.00    +0.192 C 
ATOM      7  O   UNL     1      -1.453   3.749 -25.641  0.00  0.00    -0.361 OA
ATOM      8  C   UNL     1      -1.030   3.207 -24.522  0.00  0.00    +0.097 C 
ATOM      9  C   UNL     1      -1.014   2.718 -23.307  0.00  0.00    +0.044 C 
ATOM     10  C   UNL     1       0.293   3.055 -24.886  0.00  0.00    +0.041 C 
ATOM     11  C   UNL     1       0.945   2.556 -24.002  0.00  0.00    +0.030 C 
ATOM     12  C   UNL     1       0.143   2.390 -23.136  0.00  0.00    -0.028 C 
ATOM     13  C   UNL     1       0.229   1.925 -22.022  0.00  0.00    -0.077 C 
ATOM     14  C   UNL     1       1.327   1.469 -21.500  0.00  0.00    +0.039 C 
ATOM     15  C   UNL     1      -0.921   1.965 -21.476  0.00  0.00    +0.031 C 
ATOM     16  C   UNL     1      -1.679   2.507 -22.407  0.00  0.00    +0.016 C 
ATOM     17  O   UNL     1      -6.246   3.391 -22.048  0.00  0.00    -0.245 OA
ATOM     18  C   UNL     1      -2.932   2.823 -22.491  0.00  0.00    +0.069 C 
ENDROOT
TORSDOF 0
ENDMDL
MODEL 5
REMARK VINA RESULT:    -9.602      2.217      5.331
REMARK INTER + INTRA:          -9.602
REMARK INTER:                  -9.602
REMARK INTRA:                   0.000
REMARK UNBOUND:                 0.000
REMARK  Name = ZINC000004492886
REMARK  2 active torsions:
REMARK  status: ('A' for Active; 'I' for Inactive)
REMARK    1  A    between atoms: C_10  and  C_11
REMARK    2  A    between atoms: C_15  and  C_16
REMARK                            x       y       z     vdW  Elec       q    Type
REMARK                         _______ _______ _______ _____ _____    ______ ____
ROOT
ATOM      1  C   UNL     1      -4.196   4.177 -24.154  0.00  0.00    +0.020 C 
ATOM      2  C   UNL     1      -3.744   3.462 -23.153  0.00  0.00    +0.036 C 
ATOM      3  C   UNL     1      -4.453   2.997 -22.154  0.00  0.00    +0.335 C 
ATOM      4  O   UNL     1      -3.648   2.333 -21.359  0.00  0.00    -0.455 OA
ATOM      5  C   UNL     1      -2.441   2.387 -21.866  0.00  0.00    +0.216 C 
ATOM      6  C   UNL     1      -1.228   1.843 -21.405  0.00  0.00    +0.192 C 
ATOM      7  O   UNL     1      -0.137   1.307 -20.917  0.00  0.00    -0.361 OA
ATOM      8  C   UNL     1      -0.088   1.989 -22.038  0.00  0.00    +0.097 C 
ATOM      9  C   UNL     1      -0.450   2.706 -23.073  0.00  0.00    +0.044 C 
ATOM     10  C   UNL     1       1.264   1.846 -22.275  0.00  0.00    +0.041 C 
ATOM     11  C   UNL     1       1.601   2.402 -23.292  0.00  0.00    +0.030 C 
ATOM     12  C   UNL     1       0.580   2.869 -23.694  0.00  0.00    -0.028 C 
ATOM     13  C   UNL     1       0.315   3.531 -24.673  0.00  0.00    -0.077 C 
ATOM     14  C   UNL     1       1.182   3.897 -25.567  0.00  0.00    +0.039 C 
ATOM     15  C   UNL     1      -0.932   3.790 -24.660  0.00  0.00    +0.031 C 
ATOM     16  C   UNL     1      -1.352   3.201 -23.560  0.00  0.00    +0.016 C 
ATOM     17  O   UNL     1      -5.742   3.166 -21.981  0.00  0.00    -0.245 OA
ATOM     18  C   UNL     1      -2.501   3.083 -22.972  0.00  0.00    +0.069 C 
ENDROOT
TORSDOF 0
ENDMDL
MODEL 6
REMARK VINA RESULT:    -9.115      1.342      4.590
REMARK INTER + INTRA:          -9.115
REMARK INTER:                  -9.115
REMARK INTRA:                   0.000
REMARK UNBOUND:                 0.000
REMARK  Name = ZINC000004492886
REMARK  2 active torsions:
REMARK  status: ('A' for Active; 'I' for Inactive)
REMARK    1  A    between atoms: C_10  and  C_11
REMARK    2  A    between atoms: C_15  and  C_16
REMARK                            x       y       z     vdW  Elec       q    Type
REMARK                         _______ _______ _______ _____ _____    ______ ____
ROOT
ATOM      1  C   UNL     1      -3.561   2.433 -21.211  0.00  0.00    +0.020 C 
ATOM      2  C   UNL     1      -3.240   2.918 -22.385  0.00  0.00    +0.036 C 
ATOM      3  C   UNL     1      -4.055   3.499 -23.229  0.00  0.00    +0.335 C 
ATOM      4  O   UNL     1      -3.363   3.847 -24.289  0.00  0.00    -0.455 OA
ATOM      5  C   UNL     1      -2.119   3.481 -24.098  0.00  0.00    +0.216 C 
ATOM      6  C   UNL     1      -0.987   3.620 -24.923  0.00  0.00    +0.192 C 
ATOM      7  O   UNL     1       0.023   3.783 -25.741  0.00  0.00    -0.361 OA
ATOM      8  C   UNL     1       0.206   3.194 -24.582  0.00  0.00    +0.097 C 
ATOM      9  C   UNL     1      -0.023   2.683 -23.397  0.00  0.00    +0.044 C 
ATOM     10  C   UNL     1       1.560   2.956 -24.715  0.00  0.00    +0.041 C 
ATOM     11  C   UNL     1       2.012   2.397 -23.746  0.00  0.00    +0.030 C 
ATOM     12  C   UNL     1       1.062   2.272 -23.038  0.00  0.00    -0.028 C 
ATOM     13  C   UNL     1       0.920   1.784 -21.939  0.00  0.00    -0.077 C 
ATOM     14  C   UNL     1       1.878   1.244 -21.248  0.00  0.00    +0.039 C 
ATOM     15  C   UNL     1      -0.302   1.895 -21.601  0.00  0.00    +0.031 C 
ATOM     16  C   UNL     1      -0.848   2.505 -22.633  0.00  0.00    +0.016 C 
ATOM     17  O   UNL     1      -5.339   3.698 -23.047  0.00  0.00    -0.245 OA
ATOM     18  C   UNL     1      -2.043   2.908 -22.925  0.00  0.00    +0.069 C 
ENDROOT
TORSDOF 0
ENDMDL
MODEL 7
REMARK VINA RESULT:    -8.628      3.284      6.900
REMARK INTER + INTRA:          -8.628
REMARK INTER:                  -8.628
REMARK INTRA:                   0.000
REMARK UNBOUND:                 0.000
REMARK  Name = ZINC000004492886
REMARK  2 active torsions:
REMARK  status: ('A' for Active; 'I' for Inactive)
REMARK    1  A    between atoms: C_10  and  C_11
REMARK    2  A    between atoms: C_15  and  C_16
REMARK                            x       y       z     vdW  Elec       q    Type
REMARK                         _______ _______ _______ _____ _____    ______ ____
ROOT
ATOM      1  C   UNL     1      -0.041   4.677 -23.678  0.00  0.00    +0.020 C 
ATOM      2  C   UNL     1       0.147   3.452 -23.251  0.00  0.00    +0.036 C 
ATOM      3  C   UNL     1      -0.784   2.552 -23.054  0.00  0.00    +0.335 C 
ATOM      4  O   UNL     1      -0.204   1.455 -22.627  0.00  0.00    -0.455 OA
ATOM      5  C   UNL     1       1.086   1.677 -22.561  0.00  0.00    +0.216 C 
ATOM      6  C   UNL     1       2.142   0.834 -22.167  0.00  0.00    +0.192 C 
ATOM      7  O   UNL     1       3.073  -0.005 -21.788  0.00  0.00    -0.361 OA
ATOM      8  C   UNL     1       3.397   1.213 -22.157  0.00  0.00    +0.097 C 
ATOM      9  C   UNL     1       3.305   2.450 -22.577  0.00  0.00    +0.044 C 
ATOM     10  C   UNL     1       4.761   1.099 -21.972  0.00  0.00    +0.041 C 
ATOM     11  C   UNL     1       5.337   2.122 -22.249  0.00  0.00    +0.030 C 
ATOM     12  C   UNL     1       4.452   2.847 -22.585  0.00  0.00    -0.028 C 
ATOM     13  C   UNL     1       4.438   3.996 -22.967  0.00  0.00    -0.077 C 
ATOM     14  C   UNL     1       5.496   4.738 -23.099  0.00  0.00    +0.039 C 
ATOM     15  C   UNL     1       3.233   4.327 -23.208  0.00  0.00    +0.031 C 
ATOM     16  C   UNL     1       2.555   3.236 -22.919  0.00  0.00    +0.016 C 
ATOM     17  O   UNL     1      -2.071   2.719 -23.248  0.00  0.00    -0.245 OA
ATOM     18  C   UNL     1       1.302   2.908 -22.946  0.00  0.00    +0.069 C 
ENDROOT
TORSDOF 0
ENDMDL
MODEL 8
REMARK VINA RESULT:    -8.470      2.187      5.414
REMARK INTER + INTRA:          -8.470
REMARK INTER:                  -8.470
REMARK INTRA:                   0.000
REMARK UNBOUND:                 0.000
REMARK  Name = ZINC000004492886
REMARK  2 active torsions:
REMARK  status: ('A' for Active; 'I' for Inactive)
REMARK    1  A    between atoms: C_10  and  C_11
REMARK    2  A    between atoms: C_15  and  C_16
REMARK                            x       y       z     vdW  Elec       q    Type
REMARK                         _______ _______ _______ _____ _____    ______ ____
ROOT
ATOM      1  C   UNL     1      -2.152   1.638 -21.602  0.00  0.00    +0.020 C 
ATOM      2  C   UNL     1      -1.754   2.727 -22.212  0.00  0.00    +0.036 C 
ATOM      3  C   UNL     1      -2.520   3.706 -22.623  0.00  0.00    +0.335 C 
ATOM      4  O   UNL     1      -1.755   4.613 -23.184  0.00  0.00    -0.455 OA
ATOM      5  C   UNL     1      -0.515   4.193 -23.121  0.00  0.00    +0.216 C 
ATOM      6  C   UNL     1       0.677   4.786 -23.574  0.00  0.00    +0.192 C 
ATOM      7  O   UNL     1       1.746   5.397 -24.021  0.00  0.00    -0.361 OA
ATOM      8  C   UNL     1       1.856   4.229 -23.433  0.00  0.00    +0.097 C 
ATOM      9  C   UNL     1       1.550   3.112 -22.819  0.00  0.00    +0.044 C 
ATOM     10  C   UNL     1       3.227   4.104 -23.538  0.00  0.00    +0.041 C 
ATOM     11  C   UNL     1       3.620   3.071 -23.054  0.00  0.00    +0.030 C 
ATOM     12  C   UNL     1       2.618   2.557 -22.665  0.00  0.00    -0.028 C 
ATOM     13  C   UNL     1       2.405   1.508 -22.098  0.00  0.00    -0.077 C 
ATOM     14  C   UNL     1       3.324   0.652 -21.770  0.00  0.00    +0.039 C 
ATOM     15  C   UNL     1       1.153   1.408 -21.891  0.00  0.00    +0.031 C 
ATOM     16  C   UNL     1       0.670   2.520 -22.405  0.00  0.00    +0.016 C 
ATOM     17  O   UNL     1      -3.824   3.769 -22.494  0.00  0.00    -0.245 OA
ATOM     18  C   UNL     1      -0.515   3.030 -22.522  0.00  0.00    +0.069 C 
ENDROOT
TORSDOF 0
ENDMDL
MODEL 9
REMARK VINA RESULT:    -8.339      3.252      5.486
REMARK INTER + INTRA:          -8.339
REMARK INTER:                  -8.339
REMARK INTRA:                   0.000
REMARK UNBOUND:                 0.000
REMARK  Name = ZINC000004492886
REMARK  2 active torsions:
REMARK  status: ('A' for Active; 'I' for Inactive)
REMARK    1  A    between atoms: C_10  and  C_11
REMARK    2  A    between atoms: C_15  and  C_16
REMARK                            x       y       z     vdW  Elec       q    Type
REMARK                         _______ _______ _______ _____ _____    ______ ____
ROOT
ATOM      1  C   UNL     1       4.946   1.842 -22.720  0.00  0.00    +0.020 C 
ATOM      2  C   UNL     1       3.906   1.501 -21.999  0.00  0.00    +0.036 C 
ATOM      3  C   UNL     1       3.931   0.813 -20.885  0.00  0.00    +0.335 C 
ATOM      4  O   UNL     1       2.696   0.676 -20.464  0.00  0.00    -0.455 OA
ATOM      5  C   UNL     1       1.907   1.280 -21.319  0.00  0.00    +0.216 C 
ATOM      6  C   UNL     1       0.508   1.425 -21.329  0.00  0.00    +0.192 C 
ATOM      7  O   UNL     1      -0.798   1.520 -21.274  0.00  0.00    -0.361 OA
ATOM      8  C   UNL     1      -0.141   2.068 -22.270  0.00  0.00    +0.097 C 
ATOM      9  C   UNL     1       0.837   2.452 -23.052  0.00  0.00    +0.044 C 
ATOM     10  C   UNL     1      -1.232   2.587 -22.939  0.00  0.00    +0.041 C 
ATOM     11  C   UNL     1      -0.905   3.171 -23.942  0.00  0.00    +0.030 C 
ATOM     12  C   UNL     1       0.282   3.057 -23.946  0.00  0.00    -0.028 C 
ATOM     13  C   UNL     1       1.137   3.443 -24.711  0.00  0.00    -0.077 C 
ATOM     14  C   UNL     1       0.902   4.129 -25.788  0.00  0.00    +0.039 C 
ATOM     15  C   UNL     1       2.272   3.063 -24.275  0.00  0.00    +0.031 C 
ATOM     16  C   UNL     1       1.970   2.413 -23.171  0.00  0.00    +0.016 C 
ATOM     17  O   UNL     1       5.005   0.344 -20.294  0.00  0.00    -0.245 OA
ATOM     18  C   UNL     1       2.654   1.788 -22.265  0.00  0.00    +0.069 C 
ENDROOT
TORSDOF 0
ENDMDL
