MODEL 1
REMARK VINA RESULT:    -9.130      0.000      0.000
REMARK INTER + INTRA:         -11.454
REMARK INTER:                 -11.190
REMARK INTRA:                  -0.264
REMARK UNBOUND:                -0.189
REMARK  Name = ZINC000000519823
REMARK  8 active torsions:
REMARK  status: ('A' for Active; 'I' for Inactive)
REMARK    1  A    between atoms: C_1  and  O_2
REMARK    2  A    between atoms: O_2  and  C_3
REMARK    3  A    between atoms: C_8  and  O_9
REMARK    4  A    between atoms: C_11  and  O_12
REMARK    5  A    between atoms: C_13  and  O_14
REMARK    6  A    between atoms: O_14  and  C_15
REMARK    7  A    between atoms: N_21  and  C_22
REMARK    8  A    between atoms: N_21  and  C_23
REMARK                            x       y       z     vdW  Elec       q    Type
REMARK                         _______ _______ _______ _____ _____    ______ ____
ROOT
ATOM      1  C   UNL     1       1.416   2.247 -23.690  0.00  0.00    +0.162 A 
ATOM      2  C   UNL     1       1.407   1.950 -22.424  0.00  0.00    +0.050 A 
ATOM      3  C   UNL     1       0.301   2.033 -21.745  0.00  0.00    +0.008 A 
ATOM      4  C   UNL     1      -0.795   2.412 -22.331  0.00  0.00    -0.030 A 
ATOM      5  C   UNL     1      -0.787   2.709 -23.597  0.00  0.00    +0.035 A 
ATOM      6  C   UNL     1      -1.882   3.087 -24.183  0.00  0.00    +0.040 A 
ATOM      7  C   UNL     1      -1.874   3.384 -25.449  0.00  0.00    +0.167 A 
ATOM      8  C   UNL     1      -2.970   3.763 -26.037  0.00  0.00    +0.162 A 
ATOM      9  C   UNL     1      -4.075   3.846 -25.357  0.00  0.00    +0.053 A 
ATOM     10  C   UNL     1      -4.085   3.549 -24.092  0.00  0.00    -0.030 A 
ATOM     11  C   UNL     1      -5.190   3.632 -23.412  0.00  0.00    +0.086 C 
ATOM     12  C   UNL     1      -5.199   3.336 -22.147  0.00  0.00    +0.138 C 
ATOM     13  N   UNL     1      -4.103   2.957 -21.560  0.00  0.00    +0.245 N 
ATOM     14  C   UNL     1      -3.293   2.559 -20.624  0.00  0.00    +0.193 C 
ATOM     15  C   UNL     1      -4.927   2.902 -20.556  0.00  0.00    +0.193 C 
ATOM     16  C   UNL     1      -2.997   2.874 -22.239  0.00  0.00    +0.102 C 
ATOM     17  C   UNL     1      -2.988   3.170 -23.505  0.00  0.00    +0.015 A 
ATOM     18  C   UNL     1      -1.900   2.495 -21.652  0.00  0.00    +0.095 C 
ATOM     19  C   UNL     1       0.320   2.626 -24.276  0.00  0.00    +0.167 A 
ENDROOT
BRANCH   1  21
ATOM     20  C   UNL     1       3.301   1.134 -24.218  0.00  0.00    +0.277 C 
ATOM     21  O   UNL     1       2.521   2.164 -24.368  0.00  0.00    -0.491 OA
ENDBRANCH   1  21
BRANCH   8  22
ATOM     22  O   UNL     1      -2.960   4.059 -27.301  0.00  0.00    -0.491 OA
ATOM     23  C   UNL     1      -3.713   3.396 -28.130  0.00  0.00    +0.277 C 
ENDBRANCH   8  22
BRANCH   7  24
ATOM     24  O   UNL     1      -0.768   3.301 -26.128  0.00  0.00    -0.503 OA
ATOM     25  H   UNL     1      -0.072   3.906 -25.966  0.00  0.00    +0.292 HD
ENDBRANCH   7  24
BRANCH  19  26
ATOM     26  O   UNL     1       0.328   2.922 -25.542  0.00  0.00    -0.503 OA
ATOM     27  H   UNL     1      -0.407   3.360 -25.925  0.00  0.00    +0.292 HD
ENDBRANCH  19  26
TORSDOF 4
ENDMDL
MODEL 2
REMARK VINA RESULT:    -7.319      2.291      4.023
REMARK INTER + INTRA:          -9.220
REMARK INTER:                  -9.110
REMARK INTRA:                  -0.110
REMARK UNBOUND:                -0.189
REMARK  Name = ZINC000000519823
REMARK  8 active torsions:
REMARK  status: ('A' for Active; 'I' for Inactive)
REMARK    1  A    between atoms: C_1  and  O_2
REMARK    2  A    between atoms: O_2  and  C_3
REMARK    3  A    between atoms: C_8  and  O_9
REMARK    4  A    between atoms: C_11  and  O_12
REMARK    5  A    between atoms: C_13  and  O_14
REMARK    6  A    between atoms: O_14  and  C_15
REMARK    7  A    between atoms: N_21  and  C_22
REMARK    8  A    between atoms: N_21  and  C_23
REMARK                            x       y       z     vdW  Elec       q    Type
REMARK                         _______ _______ _______ _____ _____    ______ ____
ROOT
ATOM      1  C   UNL     1       1.712   2.314 -23.171  0.00  0.00    +0.162 A 
ATOM      2  C   UNL     1       1.978   2.484 -24.432  0.00  0.00    +0.050 A 
ATOM      3  C   UNL     1       1.023   2.792 -25.261  0.00  0.00    +0.008 A 
ATOM      4  C   UNL     1      -0.194   2.929 -24.828  0.00  0.00    -0.030 A 
ATOM      5  C   UNL     1      -0.459   2.758 -23.567  0.00  0.00    +0.035 A 
ATOM      6  C   UNL     1      -1.677   2.895 -23.135  0.00  0.00    +0.040 A 
ATOM      7  C   UNL     1      -1.942   2.724 -21.873  0.00  0.00    +0.167 A 
ATOM      8  C   UNL     1      -3.160   2.860 -21.440  0.00  0.00    +0.162 A 
ATOM      9  C   UNL     1      -4.113   3.168 -22.268  0.00  0.00    +0.053 A 
ATOM     10  C   UNL     1      -3.849   3.339 -23.530  0.00  0.00    -0.030 A 
ATOM     11  C   UNL     1      -4.802   3.647 -24.358  0.00  0.00    +0.086 C 
ATOM     12  C   UNL     1      -4.538   3.818 -25.620  0.00  0.00    +0.138 C 
ATOM     13  N   UNL     1      -3.320   3.681 -26.052  0.00  0.00    +0.245 N 
ATOM     14  C   UNL     1      -2.311   3.647 -26.872  0.00  0.00    +0.193 C 
ATOM     15  C   UNL     1      -3.923   3.977 -27.165  0.00  0.00    +0.193 C 
ATOM     16  C   UNL     1      -2.366   3.373 -25.224  0.00  0.00    +0.102 C 
ATOM     17  C   UNL     1      -2.631   3.202 -23.962  0.00  0.00    +0.015 A 
ATOM     18  C   UNL     1      -1.148   3.237 -25.657  0.00  0.00    +0.095 C 
ATOM     19  C   UNL     1       0.495   2.450 -22.739  0.00  0.00    +0.167 A 
ENDROOT
BRANCH   1  21
ATOM     20  C   UNL     1       3.293   0.873 -22.464  0.00  0.00    +0.277 C 
ATOM     21  O   UNL     1       2.666   2.006 -22.344  0.00  0.00    -0.491 OA
ENDBRANCH   1  21
BRANCH   8  22
ATOM     22  O   UNL     1      -3.424   2.690 -20.179  0.00  0.00    -0.491 OA
ATOM     23  C   UNL     1      -3.385   3.702 -19.364  0.00  0.00    +0.277 C 
ENDBRANCH   8  22
BRANCH   7  24
ATOM     24  O   UNL     1      -0.988   2.416 -21.045  0.00  0.00    -0.503 OA
ATOM     25  H   UNL     1      -1.107   1.717 -20.433  0.00  0.00    +0.292 HD
ENDBRANCH   7  24
BRANCH  19  26
ATOM     26  O   UNL     1       0.230   2.279 -21.477  0.00  0.00    -0.503 OA
ATOM     27  H   UNL     1       0.918   2.332 -20.843  0.00  0.00    +0.292 HD
ENDBRANCH  19  26
TORSDOF 4
ENDMDL
MODEL 3
REMARK VINA RESULT:    -7.165      2.043      4.890
REMARK INTER + INTRA:          -9.030
REMARK INTER:                  -9.248
REMARK INTRA:                   0.219
REMARK UNBOUND:                -0.189
REMARK  Name = ZINC000000519823
REMARK  8 active torsions:
REMARK  status: ('A' for Active; 'I' for Inactive)
REMARK    1  A    between atoms: C_1  and  O_2
REMARK    2  A    between atoms: O_2  and  C_3
REMARK    3  A    between atoms: C_8  and  O_9
REMARK    4  A    between atoms: C_11  and  O_12
REMARK    5  A    between atoms: C_13  and  O_14
REMARK    6  A    between atoms: O_14  and  C_15
REMARK    7  A    between atoms: N_21  and  C_22
REMARK    8  A    between atoms: N_21  and  C_23
REMARK                            x       y       z     vdW  Elec       q    Type
REMARK                         _______ _______ _______ _____ _____    ______ ____
ROOT
ATOM      1  C   UNL     1      -4.915   3.086 -21.698  0.00  0.00    +0.162 A 
ATOM      2  C   UNL     1      -4.393   2.665 -20.585  0.00  0.00    +0.050 A 
ATOM      3  C   UNL     1      -3.124   2.384 -20.527  0.00  0.00    +0.008 A 
ATOM      4  C   UNL     1      -2.379   2.525 -21.582  0.00  0.00    -0.030 A 
ATOM      5  C   UNL     1      -2.901   2.947 -22.696  0.00  0.00    +0.035 A 
ATOM      6  C   UNL     1      -2.156   3.088 -23.751  0.00  0.00    +0.040 A 
ATOM      7  C   UNL     1      -2.678   3.510 -24.864  0.00  0.00    +0.167 A 
ATOM      8  C   UNL     1      -1.933   3.651 -25.920  0.00  0.00    +0.162 A 
ATOM      9  C   UNL     1      -0.665   3.371 -25.862  0.00  0.00    +0.053 A 
ATOM     10  C   UNL     1      -0.142   2.949 -24.749  0.00  0.00    -0.030 A 
ATOM     11  C   UNL     1       1.126   2.669 -24.691  0.00  0.00    +0.086 C 
ATOM     12  C   UNL     1       1.649   2.247 -23.578  0.00  0.00    +0.138 C 
ATOM     13  N   UNL     1       0.903   2.106 -22.523  0.00  0.00    +0.245 N 
ATOM     14  C   UNL     1       0.556   1.835 -21.300  0.00  0.00    +0.193 C 
ATOM     15  C   UNL     1       2.051   1.732 -22.041  0.00  0.00    +0.193 C 
ATOM     16  C   UNL     1      -0.365   2.387 -22.581  0.00  0.00    +0.102 C 
ATOM     17  C   UNL     1      -0.888   2.808 -23.694  0.00  0.00    +0.015 A 
ATOM     18  C   UNL     1      -1.111   2.245 -21.524  0.00  0.00    +0.095 C 
ATOM     19  C   UNL     1      -4.170   3.227 -22.753  0.00  0.00    +0.167 A 
ENDROOT
BRANCH   1  21
ATOM     20  C   UNL     1      -7.063   2.408 -21.746  0.00  0.00    +0.277 C 
ATOM     21  O   UNL     1      -6.183   3.366 -21.755  0.00  0.00    -0.491 OA
ENDBRANCH   1  21
BRANCH   8  22
ATOM     22  O   UNL     1      -2.456   4.072 -27.033  0.00  0.00    -0.491 OA
ATOM     23  C   UNL     1      -3.292   3.319 -27.685  0.00  0.00    +0.277 C 
ENDBRANCH   8  22
BRANCH   7  24
ATOM     24  O   UNL     1      -3.947   3.790 -24.922  0.00  0.00    -0.503 OA
ATOM     25  H   UNL     1      -4.431   3.610 -25.703  0.00  0.00    +0.292 HD
ENDBRANCH   7  24
BRANCH  19  26
ATOM     26  O   UNL     1      -4.692   3.649 -23.867  0.00  0.00    -0.503 OA
ATOM     27  H   UNL     1      -5.495   3.277 -24.178  0.00  0.00    +0.292 HD
ENDBRANCH  19  26
TORSDOF 4
ENDMDL
MODEL 4
REMARK VINA RESULT:    -6.873      3.461      6.768
REMARK INTER + INTRA:          -8.670
REMARK INTER:                  -8.413
REMARK INTRA:                  -0.257
REMARK UNBOUND:                -0.189
REMARK  Name = ZINC000000519823
REMARK  8 active torsions:
REMARK  status: ('A' for Active; 'I' for Inactive)
REMARK    1  A    between atoms: C_1  and  O_2
REMARK    2  A    between atoms: O_2  and  C_3
REMARK    3  A    between atoms: C_8  and  O_9
REMARK    4  A    between atoms: C_11  and  O_12
REMARK    5  A    between atoms: C_13  and  O_14
REMARK    6  A    between atoms: O_14  and  C_15
REMARK    7  A    between atoms: N_21  and  C_22
REMARK    8  A    between atoms: N_21  and  C_23
REMARK                            x       y       z     vdW  Elec       q    Type
REMARK                         _______ _______ _______ _____ _____    ______ ____
ROOT
ATOM      1  C   UNL     1      -1.159   3.610 -23.374  0.00  0.00    +0.162 A 
ATOM      2  C   UNL     1      -1.260   2.322 -23.237  0.00  0.00    +0.050 A 
ATOM      3  C   UNL     1      -0.203   1.611 -22.972  0.00  0.00    +0.008 A 
ATOM      4  C   UNL     1       0.953   2.190 -22.844  0.00  0.00    -0.030 A 
ATOM      5  C   UNL     1       1.055   3.478 -22.982  0.00  0.00    +0.035 A 
ATOM      6  C   UNL     1       2.211   4.057 -22.855  0.00  0.00    +0.040 A 
ATOM      7  C   UNL     1       2.313   5.346 -22.992  0.00  0.00    +0.167 A 
ATOM      8  C   UNL     1       3.469   5.925 -22.865  0.00  0.00    +0.162 A 
ATOM      9  C   UNL     1       4.526   5.215 -22.600  0.00  0.00    +0.053 A 
ATOM     10  C   UNL     1       4.425   3.926 -22.462  0.00  0.00    -0.030 A 
ATOM     11  C   UNL     1       5.481   3.216 -22.198  0.00  0.00    +0.086 C 
ATOM     12  C   UNL     1       5.381   1.927 -22.060  0.00  0.00    +0.138 C 
ATOM     13  N   UNL     1       4.223   1.348 -22.187  0.00  0.00    +0.245 N 
ATOM     14  C   UNL     1       3.325   0.409 -22.228  0.00  0.00    +0.193 C 
ATOM     15  C   UNL     1       4.967   0.312 -21.937  0.00  0.00    +0.193 C 
ATOM     16  C   UNL     1       3.167   2.059 -22.452  0.00  0.00    +0.102 C 
ATOM     17  C   UNL     1       3.267   3.347 -22.590  0.00  0.00    +0.015 A 
ATOM     18  C   UNL     1       2.009   1.479 -22.580  0.00  0.00    +0.095 C 
ATOM     19  C   UNL     1      -0.002   4.189 -23.247  0.00  0.00    +0.167 A 
ENDROOT
BRANCH   1  21
ATOM     20  C   UNL     1      -3.246   3.766 -24.205  0.00  0.00    +0.277 C 
ATOM     21  O   UNL     1      -2.215   4.320 -23.639  0.00  0.00    -0.491 OA
ENDBRANCH   1  21
BRANCH   8  22
ATOM     22  O   UNL     1       3.570   7.213 -23.002  0.00  0.00    -0.491 OA
ATOM     23  C   UNL     1       4.159   7.921 -22.084  0.00  0.00    +0.277 C 
ENDBRANCH   8  22
BRANCH   7  24
ATOM     24  O   UNL     1       1.256   6.056 -23.257  0.00  0.00    -0.503 OA
ATOM     25  H   UNL     1       1.079   6.833 -22.766  0.00  0.00    +0.292 HD
ENDBRANCH   7  24
BRANCH  19  26
ATOM     26  O   UNL     1       0.099   5.478 -23.384  0.00  0.00    -0.503 OA
ATOM     27  H   UNL     1      -0.074   6.041 -22.655  0.00  0.00    +0.292 HD
ENDBRANCH  19  26
TORSDOF 4
ENDMDL
MODEL 5
REMARK VINA RESULT:    -6.609      5.403      8.794
REMARK INTER + INTRA:          -8.344
REMARK INTER:                  -8.173
REMARK INTRA:                  -0.171
REMARK UNBOUND:                -0.189
REMARK  Name = ZINC000000519823
REMARK  8 active torsions:
REMARK  status: ('A' for Active; 'I' for Inactive)
REMARK    1  A    between atoms: C_1  and  O_2
REMARK    2  A    between atoms: O_2  and  C_3
REMARK    3  A    between atoms: C_8  and  O_9
REMARK    4  A    between atoms: C_11  and  O_12
REMARK    5  A    between atoms: C_13  and  O_14
REMARK    6  A    between atoms: O_14  and  C_15
REMARK    7  A    between atoms: N_21  and  C_22
REMARK    8  A    between atoms: N_21  and  C_23
REMARK                            x       y       z     vdW  Elec       q    Type
REMARK                         _______ _______ _______ _____ _____    ______ ____
ROOT
ATOM      1  C   UNL     1       2.402   3.328 -24.007  0.00  0.00    +0.162 A 
ATOM      2  C   UNL     1       1.595   4.274 -23.626  0.00  0.00    +0.050 A 
ATOM      3  C   UNL     1       2.071   5.349 -23.070  0.00  0.00    +0.008 A 
ATOM      4  C   UNL     1       3.352   5.478 -22.896  0.00  0.00    -0.030 A 
ATOM      5  C   UNL     1       4.159   4.532 -23.276  0.00  0.00    +0.035 A 
ATOM      6  C   UNL     1       5.440   4.660 -23.101  0.00  0.00    +0.040 A 
ATOM      7  C   UNL     1       6.247   3.715 -23.482  0.00  0.00    +0.167 A 
ATOM      8  C   UNL     1       7.529   3.842 -23.307  0.00  0.00    +0.162 A 
ATOM      9  C   UNL     1       8.004   4.917 -22.752  0.00  0.00    +0.053 A 
ATOM     10  C   UNL     1       7.198   5.864 -22.371  0.00  0.00    -0.030 A 
ATOM     11  C   UNL     1       7.674   6.939 -21.816  0.00  0.00    +0.086 C 
ATOM     12  C   UNL     1       6.868   7.885 -21.435  0.00  0.00    +0.138 C 
ATOM     13  N   UNL     1       5.586   7.756 -21.610  0.00  0.00    +0.245 N 
ATOM     14  C   UNL     1       4.316   8.035 -21.589  0.00  0.00    +0.193 C 
ATOM     15  C   UNL     1       5.621   8.928 -21.047  0.00  0.00    +0.193 C 
ATOM     16  C   UNL     1       5.110   6.681 -22.165  0.00  0.00    +0.102 C 
ATOM     17  C   UNL     1       5.916   5.735 -22.546  0.00  0.00    +0.015 A 
ATOM     18  C   UNL     1       3.828   6.553 -22.340  0.00  0.00    +0.095 C 
ATOM     19  C   UNL     1       3.683   3.457 -23.832  0.00  0.00    +0.167 A 
ENDROOT
BRANCH   1  21
ATOM     20  C   UNL     1       1.553   2.275 -25.807  0.00  0.00    +0.277 C 
ATOM     21  O   UNL     1       1.926   2.254 -24.562  0.00  0.00    -0.491 OA
ENDBRANCH   1  21
BRANCH   8  22
ATOM     22  O   UNL     1       8.334   2.897 -23.688  0.00  0.00    -0.491 OA
ATOM     23  C   UNL     1       9.062   3.053 -24.754  0.00  0.00    +0.277 C 
ENDBRANCH   8  22
BRANCH   7  24
ATOM     24  O   UNL     1       5.771   2.639 -24.038  0.00  0.00    -0.503 OA
ATOM     25  H   UNL     1       5.402   1.961 -23.507  0.00  0.00    +0.292 HD
ENDBRANCH   7  24
BRANCH  19  26
ATOM     26  O   UNL     1       4.489   2.511 -24.212  0.00  0.00    -0.503 OA
ATOM     27  H   UNL     1       4.296   1.618 -24.003  0.00  0.00    +0.292 HD
ENDBRANCH  19  26
TORSDOF 4
ENDMDL
MODEL 6
REMARK VINA RESULT:    -6.234      4.910      7.347
REMARK INTER + INTRA:          -7.881
REMARK INTER:                  -7.628
REMARK INTRA:                  -0.253
REMARK UNBOUND:                -0.189
REMARK  Name = ZINC000000519823
REMARK  8 active torsions:
REMARK  status: ('A' for Active; 'I' for Inactive)
REMARK    1  A    between atoms: C_1  and  O_2
REMARK    2  A    between atoms: O_2  and  C_3
REMARK    3  A    between atoms: C_8  and  O_9
REMARK    4  A    between atoms: C_11  and  O_12
REMARK    5  A    between atoms: C_13  and  O_14
REMARK    6  A    between atoms: O_14  and  C_15
REMARK    7  A    between atoms: N_21  and  C_22
REMARK    8  A    between atoms: N_21  and  C_23
REMARK                            x       y       z     vdW  Elec       q    Type
REMARK                         _______ _______ _______ _____ _____    ______ ____
ROOT
ATOM      1  C   UNL     1       5.591   7.568 -22.065  0.00  0.00    +0.162 A 
ATOM      2  C   UNL     1       6.692   6.990 -21.684  0.00  0.00    +0.050 A 
ATOM      3  C   UNL     1       6.775   5.692 -21.677  0.00  0.00    +0.008 A 
ATOM      4  C   UNL     1       5.758   4.973 -22.049  0.00  0.00    -0.030 A 
ATOM      5  C   UNL     1       4.657   5.551 -22.430  0.00  0.00    +0.035 A 
ATOM      6  C   UNL     1       3.641   4.833 -22.802  0.00  0.00    +0.040 A 
ATOM      7  C   UNL     1       2.540   5.411 -23.183  0.00  0.00    +0.167 A 
ATOM      8  C   UNL     1       1.523   4.693 -23.556  0.00  0.00    +0.162 A 
ATOM      9  C   UNL     1       1.606   3.396 -23.548  0.00  0.00    +0.053 A 
ATOM     10  C   UNL     1       2.706   2.817 -23.167  0.00  0.00    -0.030 A 
ATOM     11  C   UNL     1       2.790   1.520 -23.159  0.00  0.00    +0.086 C 
ATOM     12  C   UNL     1       3.890   0.941 -22.779  0.00  0.00    +0.138 C 
ATOM     13  N   UNL     1       4.907   1.660 -22.406  0.00  0.00    +0.245 N 
ATOM     14  C   UNL     1       6.096   1.964 -21.979  0.00  0.00    +0.193 C 
ATOM     15  C   UNL     1       5.403   0.468 -22.250  0.00  0.00    +0.193 C 
ATOM     16  C   UNL     1       4.823   2.957 -22.414  0.00  0.00    +0.102 C 
ATOM     17  C   UNL     1       3.723   3.536 -22.795  0.00  0.00    +0.015 A 
ATOM     18  C   UNL     1       5.841   3.676 -22.041  0.00  0.00    +0.095 C 
ATOM     19  C   UNL     1       4.574   6.850 -22.438  0.00  0.00    +0.167 A 
ENDROOT
BRANCH   1  21
ATOM     20  C   UNL     1       5.627   9.531 -20.963  0.00  0.00    +0.277 C 
ATOM     21  O   UNL     1       5.509   8.865 -22.073  0.00  0.00    -0.491 OA
ENDBRANCH   1  21
BRANCH   8  22
ATOM     22  O   UNL     1       0.424   5.271 -23.936  0.00  0.00    -0.491 OA
ATOM     23  C   UNL     1      -0.659   5.140 -23.228  0.00  0.00    +0.277 C 
ENDBRANCH   8  22
BRANCH   7  24
ATOM     24  O   UNL     1       2.457   6.709 -23.191  0.00  0.00    -0.503 OA
ATOM     25  H   UNL     1       1.827   7.141 -22.650  0.00  0.00    +0.292 HD
ENDBRANCH   7  24
BRANCH  19  26
ATOM     26  O   UNL     1       3.474   7.428 -22.818  0.00  0.00    -0.503 OA
ATOM     27  H   UNL     1       2.937   7.026 -23.474  0.00  0.00    +0.292 HD
ENDBRANCH  19  26
TORSDOF 4
ENDMDL
