MODEL 1
REMARK VINA RESULT:   -10.123      0.000      0.000
REMARK INTER + INTRA:         -11.498
REMARK INTER:                 -11.196
REMARK INTRA:                  -0.301
REMARK UNBOUND:                -0.192
REMARK  Name = COc1cc2c(cc1OC)[C@@]13CCN[C@H](C2)[C@@H]1CCC(=O)C3                   ZINC000100393757
REMARK  4 active torsions:
REMARK  status: ('A' for Active; 'I' for Inactive)
REMARK    1  A    between atoms: C_1  and  O_2
REMARK    2  A    between atoms: O_2  and  C_3
REMARK    3  A    between atoms: C_8  and  O_9
REMARK    4  A    between atoms: O_9  and  C_10
REMARK                            x       y       z     vdW  Elec       q    Type
REMARK                         _______ _______ _______ _____ _____    ______ ____
ROOT
ATOM      1  C   UNL     1       0.589   2.141 -22.983  0.00  0.00    +0.162 A 
ATOM      2  C   UNL     1      -0.257   1.953 -22.060  0.00  0.00    +0.053 A 
ATOM      3  C   UNL     1      -1.638   2.397 -22.262  0.00  0.00    -0.035 A 
ATOM      4  C   UNL     1      -1.887   2.864 -23.176  0.00  0.00    -0.033 A 
ATOM      5  C   UNL     1      -2.706   3.219 -23.502  0.00  0.00    +0.015 C 
ATOM      6  C   UNL     1      -1.166   2.636 -23.080  0.00  0.00    +0.063 C 
ATOM      7  C   UNL     1      -0.951   1.990 -21.738  0.00  0.00    +0.130 C 
ATOM      8  N   UNL     1      -1.888   1.902 -20.991  0.00  0.00    +0.230 N 
ATOM      9  H   UNL     1      -2.042   0.895 -20.947  0.00  0.00    +0.202 HD
ATOM     10  H   UNL     1      -1.623   2.393 -20.137  0.00  0.00    +0.202 HD
ATOM     11  C   UNL     1      -3.313   2.447 -21.395  0.00  0.00    +0.071 C 
ATOM     12  C   UNL     1      -2.985   3.782 -24.618  0.00  0.00    +0.086 C 
ATOM     13  C   UNL     1      -4.200   4.196 -24.849  0.00  0.00    +0.134 C 
ATOM     14  O   UNL     1      -4.481   4.764 -25.975  0.00  0.00    -0.297 OA
ATOM     15  C   UNL     1      -5.151   4.039 -23.936  0.00  0.00    +0.075 C 
ATOM     16  C   UNL     1      -4.903   3.466 -22.779  0.00  0.00    +0.017 C 
ATOM     17  C   UNL     1      -3.726   3.049 -22.519  0.00  0.00    +0.049 C 
ATOM     18  C   UNL     1      -1.020   3.075 -24.164  0.00  0.00    +0.054 A 
ATOM     19  C   UNL     1      -2.405   2.201 -21.368  0.00  0.00    +0.090 C 
ATOM     20  C   UNL     1       0.214   2.707 -24.050  0.00  0.00    +0.162 A 
ENDROOT
BRANCH   1  22
ATOM     21  C   UNL     1       2.696   2.310 -22.089  0.00  0.00    +0.277 C 
ATOM     22  O   UNL     1       1.864   1.779 -22.906  0.00  0.00    -0.491 OA
ENDBRANCH   1  22
BRANCH  20  23
ATOM     23  O   UNL     1       1.042   2.919 -25.015  0.00  0.00    -0.491 OA
ATOM     24  C   UNL     1       1.153   4.112 -25.513  0.00  0.00    +0.277 C 
ENDBRANCH  20  23
TORSDOF 2
ENDMDL
MODEL 2
REMARK VINA RESULT:   -10.000      1.974      3.124
REMARK INTER + INTRA:         -11.360
REMARK INTER:                 -11.069
REMARK INTRA:                  -0.291
REMARK UNBOUND:                -0.192
REMARK  Name = COc1cc2c(cc1OC)[C@@]13CCN[C@H](C2)[C@@H]1CCC(=O)C3                   ZINC000100393757
REMARK  4 active torsions:
REMARK  status: ('A' for Active; 'I' for Inactive)
REMARK    1  A    between atoms: C_1  and  O_2
REMARK    2  A    between atoms: O_2  and  C_3
REMARK    3  A    between atoms: C_8  and  O_9
REMARK    4  A    between atoms: O_9  and  C_10
REMARK                            x       y       z     vdW  Elec       q    Type
REMARK                         _______ _______ _______ _____ _____    ______ ____
ROOT
ATOM      1  C   UNL     1       0.438   2.855 -24.101  0.00  0.00    +0.162 A 
ATOM      2  C   UNL     1      -0.279   3.161 -25.099  0.00  0.00    +0.053 A 
ATOM      3  C   UNL     1      -1.720   3.346 -24.908  0.00  0.00    -0.035 A 
ATOM      4  C   UNL     1      -2.118   3.219 -23.938  0.00  0.00    -0.033 A 
ATOM      5  C   UNL     1      -3.005   3.291 -23.604  0.00  0.00    +0.015 C 
ATOM      6  C   UNL     1      -1.368   3.120 -24.028  0.00  0.00    +0.063 C 
ATOM      7  C   UNL     1      -0.936   3.332 -25.454  0.00  0.00    +0.130 C 
ATOM      8  N   UNL     1      -1.773   3.620 -26.266  0.00  0.00    +0.230 N 
ATOM      9  H   UNL     1      -1.515   4.572 -26.521  0.00  0.00    +0.202 HD
ATOM     10  H   UNL     1      -1.740   2.896 -26.984  0.00  0.00    +0.202 HD
ATOM     11  C   UNL     1      -3.290   3.775 -25.860  0.00  0.00    +0.071 C 
ATOM     12  C   UNL     1      -3.465   3.131 -22.421  0.00  0.00    +0.086 C 
ATOM     13  C   UNL     1      -4.741   3.284 -22.195  0.00  0.00    +0.134 C 
ATOM     14  O   UNL     1      -5.205   3.123 -21.001  0.00  0.00    -0.297 OA
ATOM     15  C   UNL     1      -5.567   3.605 -23.184  0.00  0.00    +0.075 C 
ATOM     16  C   UNL     1      -5.131   3.778 -24.412  0.00  0.00    +0.017 C 
ATOM     17  C   UNL     1      -3.890   3.636 -24.669  0.00  0.00    +0.049 C 
ATOM     18  C   UNL     1      -1.389   2.897 -22.871  0.00  0.00    +0.054 A 
ATOM     19  C   UNL     1      -2.360   3.634 -25.873  0.00  0.00    +0.090 C 
ATOM     20  C   UNL     1      -0.113   2.719 -22.971  0.00  0.00    +0.162 A 
ENDROOT
BRANCH   1  22
ATOM     21  C   UNL     1       2.306   1.880 -25.009  0.00  0.00    +0.277 C 
ATOM     22  O   UNL     1       1.750   2.663 -24.161  0.00  0.00    -0.491 OA
ENDBRANCH   1  22
BRANCH  20  23
ATOM     23  O   UNL     1       0.579   2.409 -21.929  0.00  0.00    -0.491 OA
ATOM     24  C   UNL     1       0.144   1.490 -21.123  0.00  0.00    +0.277 C 
ENDBRANCH  20  23
TORSDOF 2
ENDMDL
MODEL 3
REMARK VINA RESULT:    -9.849      1.955      5.474
REMARK INTER + INTRA:         -11.192
REMARK INTER:                 -10.972
REMARK INTRA:                  -0.220
REMARK UNBOUND:                -0.192
REMARK  Name = COc1cc2c(cc1OC)[C@@]13CCN[C@H](C2)[C@@H]1CCC(=O)C3                   ZINC000100393757
REMARK  4 active torsions:
REMARK  status: ('A' for Active; 'I' for Inactive)
REMARK    1  A    between atoms: C_1  and  O_2
REMARK    2  A    between atoms: O_2  and  C_3
REMARK    3  A    between atoms: C_8  and  O_9
REMARK    4  A    between atoms: O_9  and  C_10
REMARK                            x       y       z     vdW  Elec       q    Type
REMARK                         _______ _______ _______ _____ _____    ______ ____
ROOT
ATOM      1  C   UNL     1      -2.973   3.432 -23.691  0.00  0.00    +0.162 A 
ATOM      2  C   UNL     1      -2.085   3.536 -24.588  0.00  0.00    +0.053 A 
ATOM      3  C   UNL     1      -0.717   3.110 -24.285  0.00  0.00    -0.035 A 
ATOM      4  C   UNL     1      -0.512   2.727 -23.323  0.00  0.00    -0.033 A 
ATOM      5  C   UNL     1       0.290   2.403 -22.929  0.00  0.00    +0.015 C 
ATOM      6  C   UNL     1      -1.226   2.946 -23.471  0.00  0.00    +0.063 C 
ATOM      7  C   UNL     1      -1.379   3.470 -24.874  0.00  0.00    +0.130 C 
ATOM      8  N   UNL     1      -0.409   3.488 -25.583  0.00  0.00    +0.230 N 
ATOM      9  H   UNL     1      -0.644   2.799 -26.297  0.00  0.00    +0.202 HD
ATOM     10  H   UNL     1      -0.277   4.459 -25.867  0.00  0.00    +0.202 HD
ATOM     11  C   UNL     1       0.994   2.981 -25.069  0.00  0.00    +0.071 C 
ATOM     12  C   UNL     1       0.516   1.942 -21.757  0.00  0.00    +0.086 C 
ATOM     13  C   UNL     1       1.718   1.549 -21.435  0.00  0.00    +0.134 C 
ATOM     14  O   UNL     1       1.945   1.084 -20.251  0.00  0.00    -0.297 OA
ATOM     15  C   UNL     1       2.709   1.622 -22.315  0.00  0.00    +0.075 C 
ATOM     16  C   UNL     1       2.516   2.089 -23.528  0.00  0.00    +0.017 C 
ATOM     17  C   UNL     1       1.354   2.482 -23.877  0.00  0.00    +0.049 C 
ATOM     18  C   UNL     1      -1.424   2.607 -22.360  0.00  0.00    +0.054 A 
ATOM     19  C   UNL     1       0.089   3.224 -25.158  0.00  0.00    +0.090 C 
ATOM     20  C   UNL     1      -2.649   2.964 -22.562  0.00  0.00    +0.162 A 
ENDROOT
BRANCH   1  22
ATOM     21  C   UNL     1      -4.830   3.775 -24.995  0.00  0.00    +0.277 C 
ATOM     22  O   UNL     1      -4.241   3.788 -23.857  0.00  0.00    -0.491 OA
ENDBRANCH   1  22
BRANCH  20  23
ATOM     23  O   UNL     1      -3.521   2.841 -21.620  0.00  0.00    -0.491 OA
ATOM     24  C   UNL     1      -3.289   3.376 -20.461  0.00  0.00    +0.277 C 
ENDBRANCH  20  23
TORSDOF 2
ENDMDL
MODEL 4
REMARK VINA RESULT:    -9.593      1.980      3.177
REMARK INTER + INTRA:         -10.906
REMARK INTER:                 -10.613
REMARK INTRA:                  -0.293
REMARK UNBOUND:                -0.192
REMARK  Name = COc1cc2c(cc1OC)[C@@]13CCN[C@H](C2)[C@@H]1CCC(=O)C3                   ZINC000100393757
REMARK  4 active torsions:
REMARK  status: ('A' for Active; 'I' for Inactive)
REMARK    1  A    between atoms: C_1  and  O_2
REMARK    2  A    between atoms: O_2  and  C_3
REMARK    3  A    between atoms: C_8  and  O_9
REMARK    4  A    between atoms: O_9  and  C_10
REMARK                            x       y       z     vdW  Elec       q    Type
REMARK                         _______ _______ _______ _____ _____    ______ ____
ROOT
ATOM      1  C   UNL     1       1.528   2.239 -23.526  0.00  0.00    +0.162 A 
ATOM      2  C   UNL     1       0.861   2.754 -24.471  0.00  0.00    +0.053 A 
ATOM      3  C   UNL     1      -0.567   3.013 -24.272  0.00  0.00    -0.035 A 
ATOM      4  C   UNL     1      -0.998   2.761 -23.343  0.00  0.00    -0.033 A 
ATOM      5  C   UNL     1      -1.886   2.843 -23.014  0.00  0.00    +0.015 C 
ATOM      6  C   UNL     1      -0.255   2.622 -23.436  0.00  0.00    +0.063 C 
ATOM      7  C   UNL     1       0.228   3.029 -24.803  0.00  0.00    +0.130 C 
ATOM      8  N   UNL     1      -0.565   3.505 -25.568  0.00  0.00    +0.230 N 
ATOM      9  H   UNL     1      -0.233   4.465 -25.661  0.00  0.00    +0.202 HD
ATOM     10  H   UNL     1      -0.565   2.907 -26.395  0.00  0.00    +0.202 HD
ATOM     11  C   UNL     1      -2.077   3.706 -25.164  0.00  0.00    +0.071 C 
ATOM     12  C   UNL     1      -2.387   2.529 -21.879  0.00  0.00    +0.086 C 
ATOM     13  C   UNL     1      -3.655   2.739 -21.649  0.00  0.00    +0.134 C 
ATOM     14  O   UNL     1      -4.160   2.422 -20.504  0.00  0.00    -0.297 OA
ATOM     15  C   UNL     1      -4.430   3.276 -22.585  0.00  0.00    +0.075 C 
ATOM     16  C   UNL     1      -3.950   3.611 -23.762  0.00  0.00    +0.017 C 
ATOM     17  C   UNL     1      -2.716   3.421 -24.021  0.00  0.00    +0.049 C 
ATOM     18  C   UNL     1      -0.322   2.218 -22.331  0.00  0.00    +0.054 A 
ATOM     19  C   UNL     1      -1.160   3.500 -25.187  0.00  0.00    +0.090 C 
ATOM     20  C   UNL     1       0.940   1.964 -22.441  0.00  0.00    +0.162 A 
ENDROOT
BRANCH   1  22
ATOM     21  C   UNL     1       3.319   1.128 -24.435  0.00  0.00    +0.277 C 
ATOM     22  O   UNL     1       2.825   1.963 -23.598  0.00  0.00    -0.491 OA
ENDBRANCH   1  22
BRANCH  20  23
ATOM     23  O   UNL     1       1.581   1.439 -21.453  0.00  0.00    -0.491 OA
ATOM     24  C   UNL     1       1.071   1.487 -20.262  0.00  0.00    +0.277 C 
ENDBRANCH  20  23
TORSDOF 2
ENDMDL
MODEL 5
REMARK VINA RESULT:    -9.581      1.246      4.506
REMARK INTER + INTRA:         -10.892
REMARK INTER:                 -10.703
REMARK INTRA:                  -0.189
REMARK UNBOUND:                -0.192
REMARK  Name = COc1cc2c(cc1OC)[C@@]13CCN[C@H](C2)[C@@H]1CCC(=O)C3                   ZINC000100393757
REMARK  4 active torsions:
REMARK  status: ('A' for Active; 'I' for Inactive)
REMARK    1  A    between atoms: C_1  and  O_2
REMARK    2  A    between atoms: O_2  and  C_3
REMARK    3  A    between atoms: C_8  and  O_9
REMARK    4  A    between atoms: O_9  and  C_10
REMARK                            x       y       z     vdW  Elec       q    Type
REMARK                         _______ _______ _______ _____ _____    ______ ____
ROOT
ATOM      1  C   UNL     1      -4.141   3.360 -22.626  0.00  0.00    +0.162 A 
ATOM      2  C   UNL     1      -3.336   2.793 -21.829  0.00  0.00    +0.053 A 
ATOM      3  C   UNL     1      -1.923   2.695 -22.198  0.00  0.00    -0.035 A 
ATOM      4  C   UNL     1      -1.616   3.102 -23.123  0.00  0.00    -0.033 A 
ATOM      5  C   UNL     1      -0.765   3.144 -23.545  0.00  0.00    +0.015 C 
ATOM      6  C   UNL     1      -2.354   3.158 -22.940  0.00  0.00    +0.063 C 
ATOM      7  C   UNL     1      -2.652   2.539 -21.600  0.00  0.00    +0.130 C 
ATOM      8  N   UNL     1      -1.744   2.045 -20.987  0.00  0.00    +0.230 N 
ATOM      9  H   UNL     1      -1.663   2.662 -20.178  0.00  0.00    +0.202 HD
ATOM     10  H   UNL     1      -1.997   1.069 -20.832  0.00  0.00    +0.202 HD
ATOM     11  C   UNL     1      -0.274   2.039 -21.559  0.00  0.00    +0.071 C 
ATOM     12  C   UNL     1      -0.417   3.644 -24.671  0.00  0.00    +0.086 C 
ATOM     13  C   UNL     1       0.831   3.583 -25.048  0.00  0.00    +0.134 C 
ATOM     14  O   UNL     1       1.182   4.087 -26.184  0.00  0.00    -0.297 OA
ATOM     15  C   UNL     1       1.743   3.006 -24.274  0.00  0.00    +0.075 C 
ATOM     16  C   UNL     1       1.422   2.482 -23.112  0.00  0.00    +0.017 C 
ATOM     17  C   UNL     1       0.212   2.524 -22.711  0.00  0.00    +0.049 C 
ATOM     18  C   UNL     1      -2.439   3.702 -23.981  0.00  0.00    +0.054 A 
ATOM     19  C   UNL     1      -1.197   2.154 -21.420  0.00  0.00    +0.090 C 
ATOM     20  C   UNL     1      -3.698   3.822 -23.716  0.00  0.00    +0.162 A 
ENDROOT
BRANCH   1  22
ATOM     21  C   UNL     1      -6.132   2.651 -21.731  0.00  0.00    +0.277 C 
ATOM     22  O   UNL     1      -5.440   3.503 -22.392  0.00  0.00    -0.491 OA
ENDBRANCH   1  22
BRANCH  20  23
ATOM     23  O   UNL     1      -4.482   4.406 -24.556  0.00  0.00    -0.491 OA
ATOM     24  C   UNL     1      -4.766   3.822 -25.679  0.00  0.00    +0.277 C 
ENDBRANCH  20  23
TORSDOF 2
ENDMDL
MODEL 6
REMARK VINA RESULT:    -9.501      2.239      5.865
REMARK INTER + INTRA:         -10.804
REMARK INTER:                 -10.724
REMARK INTRA:                  -0.080
REMARK UNBOUND:                -0.192
REMARK  Name = COc1cc2c(cc1OC)[C@@]13CCN[C@H](C2)[C@@H]1CCC(=O)C3                   ZINC000100393757
REMARK  4 active torsions:
REMARK  status: ('A' for Active; 'I' for Inactive)
REMARK    1  A    between atoms: C_1  and  O_2
REMARK    2  A    between atoms: O_2  and  C_3
REMARK    3  A    between atoms: C_8  and  O_9
REMARK    4  A    between atoms: O_9  and  C_10
REMARK                            x       y       z     vdW  Elec       q    Type
REMARK                         _______ _______ _______ _____ _____    ______ ____
ROOT
ATOM      1  C   UNL     1      -1.327   4.127 -23.353  0.00  0.00    +0.162 A 
ATOM      2  C   UNL     1      -0.317   4.851 -23.595  0.00  0.00    +0.053 A 
ATOM      3  C   UNL     1       1.018   4.330 -23.291  0.00  0.00    -0.035 A 
ATOM      4  C   UNL     1       1.097   3.363 -22.877  0.00  0.00    -0.033 A 
ATOM      5  C   UNL     1       1.851   2.848 -22.611  0.00  0.00    +0.015 C 
ATOM      6  C   UNL     1       0.399   3.624 -23.031  0.00  0.00    +0.063 C 
ATOM      7  C   UNL     1       0.432   5.011 -23.616  0.00  0.00    +0.130 C 
ATOM      8  N   UNL     1       1.500   5.538 -23.771  0.00  0.00    +0.230 N 
ATOM      9  H   UNL     1       1.572   5.597 -24.787  0.00  0.00    +0.202 HD
ATOM     10  H   UNL     1       1.476   6.405 -23.233  0.00  0.00    +0.202 HD
ATOM     11  C   UNL     1       2.841   4.807 -23.377  0.00  0.00    +0.071 C 
ATOM     12  C   UNL     1       1.922   1.672 -22.110  0.00  0.00    +0.086 C 
ATOM     13  C   UNL     1       3.088   1.161 -21.820  0.00  0.00    +0.134 C 
ATOM     14  O   UNL     1       3.159  -0.025 -21.314  0.00  0.00    -0.297 OA
ATOM     15  C   UNL     1       4.201   1.850 -22.041  0.00  0.00    +0.075 C 
ATOM     16  C   UNL     1       4.167   3.060 -22.555  0.00  0.00    +0.017 C 
ATOM     17  C   UNL     1       3.046   3.591 -22.850  0.00  0.00    +0.049 C 
ATOM     18  C   UNL     1       0.054   2.579 -22.611  0.00  0.00    +0.054 A 
ATOM     19  C   UNL     1       1.944   5.043 -23.534  0.00  0.00    +0.090 C 
ATOM     20  C   UNL     1      -1.151   2.978 -22.856  0.00  0.00    +0.162 A 
ENDROOT
BRANCH   1  22
ATOM     21  C   UNL     1      -3.098   4.513 -24.761  0.00  0.00    +0.277 C 
ATOM     22  O   UNL     1      -2.580   4.499 -23.589  0.00  0.00    -0.491 OA
ENDBRANCH   1  22
BRANCH  20  23
ATOM     23  O   UNL     1      -2.151   2.208 -22.593  0.00  0.00    -0.491 OA
ATOM     24  C   UNL     1      -2.671   2.218 -21.405  0.00  0.00    +0.277 C 
ENDBRANCH  20  23
TORSDOF 2
ENDMDL
MODEL 7
REMARK VINA RESULT:    -8.974      2.692      4.205
REMARK INTER + INTRA:         -10.215
REMARK INTER:                  -9.914
REMARK INTRA:                  -0.301
REMARK UNBOUND:                -0.192
REMARK  Name = COc1cc2c(cc1OC)[C@@]13CCN[C@H](C2)[C@@H]1CCC(=O)C3                   ZINC000100393757
REMARK  4 active torsions:
REMARK  status: ('A' for Active; 'I' for Inactive)
REMARK    1  A    between atoms: C_1  and  O_2
REMARK    2  A    between atoms: O_2  and  C_3
REMARK    3  A    between atoms: C_8  and  O_9
REMARK    4  A    between atoms: O_9  and  C_10
REMARK                            x       y       z     vdW  Elec       q    Type
REMARK                         _______ _______ _______ _____ _____    ______ ____
ROOT
ATOM      1  C   UNL     1       3.671   3.083 -23.393  0.00  0.00    +0.162 A 
ATOM      2  C   UNL     1       2.993   4.123 -23.643  0.00  0.00    +0.053 A 
ATOM      3  C   UNL     1       1.566   4.137 -23.315  0.00  0.00    -0.035 A 
ATOM      4  C   UNL     1       1.144   3.274 -22.876  0.00  0.00    -0.033 A 
ATOM      5  C   UNL     1       0.258   3.078 -22.592  0.00  0.00    +0.015 C 
ATOM      6  C   UNL     1       1.887   3.257 -23.044  0.00  0.00    +0.063 C 
ATOM      7  C   UNL     1       2.356   4.547 -23.661  0.00  0.00    +0.130 C 
ATOM      8  N   UNL     1       1.554   5.427 -23.820  0.00  0.00    +0.230 N 
ATOM      9  H   UNL     1       1.881   6.144 -23.172  0.00  0.00    +0.202 HD
ATOM     10  H   UNL     1       1.550   5.638 -24.818  0.00  0.00    +0.202 HD
ATOM     11  C   UNL     1       0.045   5.249 -23.396  0.00  0.00    +0.071 C 
ATOM     12  C   UNL     1      -0.232   2.021 -22.062  0.00  0.00    +0.086 C 
ATOM     13  C   UNL     1      -1.498   1.980 -21.749  0.00  0.00    +0.134 C 
ATOM     14  O   UNL     1      -1.993   0.913 -21.214  0.00  0.00    -0.297 OA
ATOM     15  C   UNL     1      -2.284   3.026 -21.977  0.00  0.00    +0.075 C 
ATOM     16  C   UNL     1      -1.816   4.128 -22.520  0.00  0.00    +0.017 C 
ATOM     17  C   UNL     1      -0.583   4.204 -22.838  0.00  0.00    +0.049 C 
ATOM     18  C   UNL     1       1.831   2.167 -22.601  0.00  0.00    +0.054 A 
ATOM     19  C   UNL     1       0.963   5.135 -23.566  0.00  0.00    +0.090 C 
ATOM     20  C   UNL     1       3.093   2.089 -22.866  0.00  0.00    +0.162 A 
ENDROOT
BRANCH   1  22
ATOM     21  C   UNL     1       5.855   3.751 -23.164  0.00  0.00    +0.277 C 
ATOM     22  O   UNL     1       4.968   2.963 -23.649  0.00  0.00    -0.491 OA
ENDBRANCH   1  22
BRANCH  20  23
ATOM     23  O   UNL     1       3.745   1.011 -22.594  0.00  0.00    -0.491 OA
ATOM     24  C   UNL     1       3.568   0.428 -21.449  0.00  0.00    +0.277 C 
ENDBRANCH  20  23
TORSDOF 2
ENDMDL
MODEL 8
REMARK VINA RESULT:    -8.697      1.489      2.498
REMARK INTER + INTRA:          -9.906
REMARK INTER:                  -9.714
REMARK INTRA:                  -0.192
REMARK UNBOUND:                -0.192
REMARK  Name = COc1cc2c(cc1OC)[C@@]13CCN[C@H](C2)[C@@H]1CCC(=O)C3                   ZINC000100393757
REMARK  4 active torsions:
REMARK  status: ('A' for Active; 'I' for Inactive)
REMARK    1  A    between atoms: C_1  and  O_2
REMARK    2  A    between atoms: O_2  and  C_3
REMARK    3  A    between atoms: C_8  and  O_9
REMARK    4  A    between atoms: O_9  and  C_10
REMARK                            x       y       z     vdW  Elec       q    Type
REMARK                         _______ _______ _______ _____ _____    ______ ____
ROOT
ATOM      1  C   UNL     1      -0.547   3.078 -24.816  0.00  0.00    +0.162 A 
ATOM      2  C   UNL     1      -0.317   2.779 -23.608  0.00  0.00    +0.053 A 
ATOM      3  C   UNL     1      -1.437   2.716 -22.666  0.00  0.00    -0.035 A 
ATOM      4  C   UNL     1      -2.408   2.922 -23.026  0.00  0.00    -0.033 A 
ATOM      5  C   UNL     1      -3.254   2.936 -22.593  0.00  0.00    +0.015 C 
ATOM      6  C   UNL     1      -1.832   2.958 -23.524  0.00  0.00    +0.063 C 
ATOM      7  C   UNL     1      -0.508   2.642 -22.879  0.00  0.00    +0.130 C 
ATOM      8  N   UNL     1      -0.495   2.380 -21.707  0.00  0.00    +0.230 N 
ATOM      9  H   UNL     1      -0.218   1.398 -21.704  0.00  0.00    +0.202 HD
ATOM     10  H   UNL     1       0.123   3.061 -21.265  0.00  0.00    +0.202 HD
ATOM     11  C   UNL     1      -1.822   2.363 -20.854  0.00  0.00    +0.071 C 
ATOM     12  C   UNL     1      -4.421   3.191 -23.052  0.00  0.00    +0.086 C 
ATOM     13  C   UNL     1      -5.454   3.148 -22.256  0.00  0.00    +0.134 C 
ATOM     14  O   UNL     1      -6.632   3.405 -22.719  0.00  0.00    -0.297 OA
ATOM     15  C   UNL     1      -5.304   2.843 -20.972  0.00  0.00    +0.075 C 
ATOM     16  C   UNL     1      -4.121   2.576 -20.465  0.00  0.00    +0.017 C 
ATOM     17  C   UNL     1      -3.090   2.608 -21.214  0.00  0.00    +0.049 C 
ATOM     18  C   UNL     1      -2.681   3.239 -24.291  0.00  0.00    +0.054 A 
ATOM     19  C   UNL     1      -1.178   2.431 -21.536  0.00  0.00    +0.090 C 
ATOM     20  C   UNL     1      -1.738   3.312 -25.172  0.00  0.00    +0.162 A 
ENDROOT
BRANCH   1  22
ATOM     21  C   UNL     1       1.626   2.898 -25.533  0.00  0.00    +0.277 C 
ATOM     22  O   UNL     1       0.391   3.164 -25.752  0.00  0.00    -0.491 OA
ENDBRANCH   1  22
BRANCH  20  23
ATOM     23  O   UNL     1      -2.018   3.620 -26.392  0.00  0.00    -0.491 OA
ATOM     24  C   UNL     1      -3.257   3.661 -26.774  0.00  0.00    +0.277 C 
ENDBRANCH  20  23
TORSDOF 2
ENDMDL
MODEL 9
REMARK VINA RESULT:    -8.448      3.707      5.745
REMARK INTER + INTRA:          -9.627
REMARK INTER:                  -9.342
REMARK INTRA:                  -0.285
REMARK UNBOUND:                -0.192
REMARK  Name = COc1cc2c(cc1OC)[C@@]13CCN[C@H](C2)[C@@H]1CCC(=O)C3                   ZINC000100393757
REMARK  4 active torsions:
REMARK  status: ('A' for Active; 'I' for Inactive)
REMARK    1  A    between atoms: C_1  and  O_2
REMARK    2  A    between atoms: O_2  and  C_3
REMARK    3  A    between atoms: C_8  and  O_9
REMARK    4  A    between atoms: O_9  and  C_10
REMARK                            x       y       z     vdW  Elec       q    Type
REMARK                         _______ _______ _______ _____ _____    ______ ____
ROOT
ATOM      1  C   UNL     1       5.677   4.657 -22.842  0.00  0.00    +0.162 A 
ATOM      2  C   UNL     1       5.383   3.540 -23.362  0.00  0.00    +0.053 A 
ATOM      3  C   UNL     1       3.982   3.252 -23.679  0.00  0.00    -0.035 A 
ATOM      4  C   UNL     1       3.257   3.988 -23.463  0.00  0.00    -0.033 A 
ATOM      5  C   UNL     1       2.315   4.004 -23.586  0.00  0.00    +0.015 C 
ATOM      6  C   UNL     1       3.983   4.148 -23.294  0.00  0.00    +0.063 C 
ATOM      7  C   UNL     1       4.908   3.015 -23.653  0.00  0.00    +0.130 C 
ATOM      8  N   UNL     1       4.433   2.026 -24.143  0.00  0.00    +0.230 N 
ATOM      9  H   UNL     1       4.818   2.041 -25.087  0.00  0.00    +0.202 HD
ATOM     10  H   UNL     1       4.681   1.251 -23.527  0.00  0.00    +0.202 HD
ATOM     11  C   UNL     1       2.883   1.904 -24.409  0.00  0.00    +0.071 C 
ATOM     12  C   UNL     1       1.453   4.911 -23.316  0.00  0.00    +0.086 C 
ATOM     13  C   UNL     1       0.191   4.705 -23.578  0.00  0.00    +0.134 C 
ATOM     14  O   UNL     1      -0.678   5.621 -23.305  0.00  0.00    -0.297 OA
ATOM     15  C   UNL     1      -0.207   3.562 -24.124  0.00  0.00    +0.075 C 
ATOM     16  C   UNL     1       0.649   2.607 -24.416  0.00  0.00    +0.017 C 
ATOM     17  C   UNL     1       1.890   2.774 -24.173  0.00  0.00    +0.049 C 
ATOM     18  C   UNL     1       3.536   5.171 -22.917  0.00  0.00    +0.054 A 
ATOM     19  C   UNL     1       3.747   2.189 -24.168  0.00  0.00    +0.090 C 
ATOM     20  C   UNL     1       4.752   5.488 -22.613  0.00  0.00    +0.162 A 
ENDROOT
BRANCH   1  22
ATOM     21  C   UNL     1       7.899   4.963 -23.330  0.00  0.00    +0.277 C 
ATOM     22  O   UNL     1       6.912   5.021 -22.515  0.00  0.00    -0.491 OA
ENDBRANCH   1  22
BRANCH  20  23
ATOM     23  O   UNL     1       5.007   6.636 -22.085  0.00  0.00    -0.491 OA
ATOM     24  C   UNL     1       4.087   7.550 -22.068  0.00  0.00    +0.277 C 
ENDBRANCH  20  23
TORSDOF 2
ENDMDL
