MODEL 1
REMARK VINA RESULT:    -9.803      0.000      0.000
REMARK INTER + INTRA:         -14.261
REMARK INTER:                 -13.757
REMARK INTRA:                  -0.504
REMARK UNBOUND:                 1.273
REMARK  Name = ZINC000000689652
REMARK  14 active torsions:
REMARK  status: ('A' for Active; 'I' for Inactive)
REMARK    1  A    between atoms: C_1  and  O_2
REMARK    2  A    between atoms: O_2  and  C_3
REMARK    3  A    between atoms: C_5  and  O_6
REMARK    4  A    between atoms: O_6  and  C_7
REMARK    5  A    between atoms: C_7  and  C_8
REMARK    6  A    between atoms: C_13  and  O_14
REMARK    7  A    between atoms: O_14  and  C_15
REMARK    8  A    between atoms: C_16  and  C_17
REMARK    9  A    between atoms: C_20  and  O_21
REMARK   10  A    between atoms: O_21  and  C_22
REMARK   11  A    between atoms: C_22  and  C_23
REMARK   12  A    between atoms: C_29  and  O_30
REMARK   13  A    between atoms: O_30  and  C_31
REMARK   14  A    between atoms: C_31  and  C_32
REMARK                            x       y       z     vdW  Elec       q    Type
REMARK                         _______ _______ _______ _____ _____    ______ ____
ROOT
ATOM      1  C   UNL     1      -3.180   2.942 -21.740  0.00  0.00    +0.127 A 
ATOM      2  C   UNL     1      -3.619   3.043 -22.960  0.00  0.00    +0.093 A 
ATOM      3  C   UNL     1      -2.779   3.141 -23.947  0.00  0.00    +0.150 A 
ATOM      4  C   UNL     1      -1.501   3.139 -23.715  0.00  0.00    +0.110 A 
ATOM      5  C   UNL     1      -0.660   3.237 -24.702  0.00  0.00    +0.238 A 
ATOM      6  C   UNL     1       0.618   3.235 -24.471  0.00  0.00    +0.211 A 
ATOM      7  C   UNL     1       1.058   3.135 -23.252  0.00  0.00    +0.181 A 
ATOM      8  O   UNL     1       0.218   3.037 -22.264  0.00  0.00    -0.451 OA
ATOM      9  O   UNL     1      -1.099   3.337 -25.922  0.00  0.00    -0.283 OA
ATOM     10  C   UNL     1      -1.060   3.039 -22.496  0.00  0.00    +0.147 A 
ATOM     11  C   UNL     1      -1.901   2.940 -21.508  0.00  0.00    +0.092 A 
ENDROOT
BRANCH   7  12
ATOM     12  C   UNL     1       2.337   3.133 -23.019  0.00  0.00    +0.025 A 
ATOM     13  C   UNL     1       3.008   4.245 -23.067  0.00  0.00    +0.015 A 
ATOM     14  C   UNL     1       4.287   4.243 -22.834  0.00  0.00    +0.050 A 
ATOM     15  C   UNL     1       4.895   3.129 -22.555  0.00  0.00    +0.163 A 
ATOM     16  C   UNL     1       4.225   2.017 -22.508  0.00  0.00    +0.174 A 
ATOM     17  C   UNL     1       2.945   2.018 -22.740  0.00  0.00    +0.061 A 
BRANCH  16  18
ATOM     18  O   UNL     1       4.833   0.902 -22.228  0.00  0.00    -0.422 OA
BRANCH  18  19
ATOM     19  C   UNL     1       4.625   0.317 -21.085  0.00  0.00    +0.309 C 
ATOM     20  O   UNL     1       3.421  -0.033 -20.744  0.00  0.00    -0.251 OA
ATOM     21  C   UNL     1       5.622   0.083 -20.285  0.00  0.00    +0.136 C 
ENDBRANCH  18  19
ENDBRANCH  16  18
BRANCH  15  22
ATOM     22  O   UNL     1       6.174   3.127 -22.323  0.00  0.00    -0.484 OA
BRANCH  22  23
ATOM     23  C   UNL     1       6.628   3.550 -21.180  0.00  0.00    +0.264 C 
BRANCH  23  24
ATOM     24  C   UNL     1       7.348   4.631 -21.127  0.00  0.00    -0.010 A 
ATOM     25  C   UNL     1       8.219   4.879 -22.060  0.00  0.00    +0.007 A 
ATOM     26  C   UNL     1       8.939   5.959 -22.007  0.00  0.00    +0.000 A 
ATOM     27  C   UNL     1       8.789   6.793 -21.020  0.00  0.00    +0.000 A 
ATOM     28  C   UNL     1       7.919   6.545 -20.086  0.00  0.00    +0.000 A 
ATOM     29  C   UNL     1       7.198   5.463 -20.140  0.00  0.00    +0.007 A 
ENDBRANCH  23  24
ENDBRANCH  22  23
ENDBRANCH  15  22
ENDBRANCH   7  12
BRANCH   1  31
ATOM     30  C   UNL     1      -5.235   2.438 -20.972  0.00  0.00    +0.277 C 
ATOM     31  O   UNL     1      -4.019   2.844 -20.753  0.00  0.00    -0.495 OA
ENDBRANCH   1  31
BRANCH   6  32
ATOM     32  O   UNL     1       1.458   3.333 -25.458  0.00  0.00    -0.488 OA
ATOM     33  C   UNL     1       1.906   2.260 -26.039  0.00  0.00    +0.277 C 
ENDBRANCH   6  32
BRANCH   3  34
ATOM     34  O   UNL     1      -3.219   3.241 -25.166  0.00  0.00    -0.425 OA
BRANCH  34  35
ATOM     35  C   UNL     1      -4.288   3.937 -25.417  0.00  0.00    +0.309 C 
ATOM     36  O   UNL     1      -4.273   5.228 -25.270  0.00  0.00    -0.251 OA
ATOM     37  C   UNL     1      -5.373   3.341 -25.816  0.00  0.00    +0.136 C 
ENDBRANCH  34  35
ENDBRANCH   3  34
TORSDOF 10
ENDMDL
MODEL 2
REMARK VINA RESULT:    -9.585      2.439      4.521
REMARK INTER + INTRA:         -13.915
REMARK INTER:                 -13.096
REMARK INTRA:                  -0.819
REMARK UNBOUND:                 1.273
REMARK  Name = ZINC000000689652
REMARK  14 active torsions:
REMARK  status: ('A' for Active; 'I' for Inactive)
REMARK    1  A    between atoms: C_1  and  O_2
REMARK    2  A    between atoms: O_2  and  C_3
REMARK    3  A    between atoms: C_5  and  O_6
REMARK    4  A    between atoms: O_6  and  C_7
REMARK    5  A    between atoms: C_7  and  C_8
REMARK    6  A    between atoms: C_13  and  O_14
REMARK    7  A    between atoms: O_14  and  C_15
REMARK    8  A    between atoms: C_16  and  C_17
REMARK    9  A    between atoms: C_20  and  O_21
REMARK   10  A    between atoms: O_21  and  C_22
REMARK   11  A    between atoms: C_22  and  C_23
REMARK   12  A    between atoms: C_29  and  O_30
REMARK   13  A    between atoms: O_30  and  C_31
REMARK   14  A    between atoms: C_31  and  C_32
REMARK                            x       y       z     vdW  Elec       q    Type
REMARK                         _______ _______ _______ _____ _____    ______ ____
ROOT
ATOM      1  C   UNL     1      -1.376   3.364 -25.115  0.00  0.00    +0.127 A 
ATOM      2  C   UNL     1      -1.870   2.790 -24.059  0.00  0.00    +0.093 A 
ATOM      3  C   UNL     1      -1.092   2.472 -23.068  0.00  0.00    +0.150 A 
ATOM      4  C   UNL     1       0.181   2.728 -23.134  0.00  0.00    +0.110 A 
ATOM      5  C   UNL     1       0.960   2.410 -22.142  0.00  0.00    +0.238 A 
ATOM      6  C   UNL     1       2.233   2.666 -22.207  0.00  0.00    +0.211 A 
ATOM      7  C   UNL     1       2.727   3.240 -23.264  0.00  0.00    +0.181 A 
ATOM      8  O   UNL     1       1.948   3.557 -24.255  0.00  0.00    -0.451 OA
ATOM      9  O   UNL     1       0.466   1.837 -21.085  0.00  0.00    -0.283 OA
ATOM     10  C   UNL     1       0.676   3.302 -24.190  0.00  0.00    +0.147 A 
ATOM     11  C   UNL     1      -0.104   3.620 -25.181  0.00  0.00    +0.092 A 
ENDROOT
BRANCH   7  12
ATOM     12  C   UNL     1       3.999   3.496 -23.330  0.00  0.00    +0.025 A 
ATOM     13  C   UNL     1       4.827   2.579 -23.737  0.00  0.00    +0.015 A 
ATOM     14  C   UNL     1       6.100   2.835 -23.802  0.00  0.00    +0.050 A 
ATOM     15  C   UNL     1       6.545   4.007 -23.462  0.00  0.00    +0.163 A 
ATOM     16  C   UNL     1       5.719   4.924 -23.055  0.00  0.00    +0.174 A 
ATOM     17  C   UNL     1       4.445   4.668 -22.989  0.00  0.00    +0.061 A 
BRANCH  16  18
ATOM     18  O   UNL     1       6.165   6.097 -22.714  0.00  0.00    -0.422 OA
BRANCH  18  19
ATOM     19  C   UNL     1       6.114   6.475 -21.471  0.00  0.00    +0.309 C 
ATOM     20  O   UNL     1       6.552   5.689 -20.534  0.00  0.00    -0.251 OA
ATOM     21  C   UNL     1       5.624   7.640 -21.167  0.00  0.00    +0.136 C 
ENDBRANCH  18  19
ENDBRANCH  16  18
BRANCH  15  22
ATOM     22  O   UNL     1       7.818   4.263 -23.528  0.00  0.00    -0.484 OA
BRANCH  22  23
ATOM     23  C   UNL     1       8.500   3.905 -24.575  0.00  0.00    +0.264 C 
BRANCH  23  24
ATOM     24  C   UNL     1       8.587   4.702 -25.598  0.00  0.00    -0.010 A 
ATOM     25  C   UNL     1       8.546   5.990 -25.425  0.00  0.00    +0.007 A 
ATOM     26  C   UNL     1       8.632   6.787 -26.448  0.00  0.00    +0.000 A 
ATOM     27  C   UNL     1       8.760   6.296 -27.646  0.00  0.00    +0.000 A 
ATOM     28  C   UNL     1       8.801   5.008 -27.819  0.00  0.00    +0.000 A 
ATOM     29  C   UNL     1       8.715   4.211 -26.795  0.00  0.00    +0.007 A 
ENDBRANCH  23  24
ENDBRANCH  22  23
ENDBRANCH  15  22
ENDBRANCH   7  12
BRANCH   1  31
ATOM     30  C   UNL     1      -3.392   3.279 -26.117  0.00  0.00    +0.277 C 
ATOM     31  O   UNL     1      -2.155   3.681 -26.106  0.00  0.00    -0.495 OA
ENDBRANCH   1  31
BRANCH   6  32
ATOM     32  O   UNL     1       3.011   2.348 -21.216  0.00  0.00    -0.488 OA
ATOM     33  C   UNL     1       3.313   1.102 -21.001  0.00  0.00    +0.277 C 
ENDBRANCH   6  32
BRANCH   3  34
ATOM     34  O   UNL     1      -1.586   1.898 -22.011  0.00  0.00    -0.425 OA
BRANCH  34  35
ATOM     35  C   UNL     1      -2.600   2.431 -21.396  0.00  0.00    +0.309 C 
ATOM     36  O   UNL     1      -3.729   1.790 -21.330  0.00  0.00    -0.251 OA
ATOM     37  C   UNL     1      -2.485   3.604 -20.847  0.00  0.00    +0.136 C 
ENDBRANCH  34  35
ENDBRANCH   3  34
TORSDOF 10
ENDMDL
MODEL 3
REMARK VINA RESULT:    -9.386      1.283      2.862
REMARK INTER + INTRA:         -13.600
REMARK INTER:                 -13.511
REMARK INTRA:                  -0.089
REMARK UNBOUND:                 1.273
REMARK  Name = ZINC000000689652
REMARK  14 active torsions:
REMARK  status: ('A' for Active; 'I' for Inactive)
REMARK    1  A    between atoms: C_1  and  O_2
REMARK    2  A    between atoms: O_2  and  C_3
REMARK    3  A    between atoms: C_5  and  O_6
REMARK    4  A    between atoms: O_6  and  C_7
REMARK    5  A    between atoms: C_7  and  C_8
REMARK    6  A    between atoms: C_13  and  O_14
REMARK    7  A    between atoms: O_14  and  C_15
REMARK    8  A    between atoms: C_16  and  C_17
REMARK    9  A    between atoms: C_20  and  O_21
REMARK   10  A    between atoms: O_21  and  C_22
REMARK   11  A    between atoms: C_22  and  C_23
REMARK   12  A    between atoms: C_29  and  O_30
REMARK   13  A    between atoms: O_30  and  C_31
REMARK   14  A    between atoms: C_31  and  C_32
REMARK                            x       y       z     vdW  Elec       q    Type
REMARK                         _______ _______ _______ _____ _____    ______ ____
ROOT
ATOM      1  C   UNL     1      -3.237   3.809 -25.462  0.00  0.00    +0.127 A 
ATOM      2  C   UNL     1      -3.900   3.351 -24.441  0.00  0.00    +0.093 A 
ATOM      3  C   UNL     1      -3.266   2.974 -23.371  0.00  0.00    +0.150 A 
ATOM      4  C   UNL     1      -1.969   3.054 -23.322  0.00  0.00    +0.110 A 
ATOM      5  C   UNL     1      -1.334   2.676 -22.252  0.00  0.00    +0.238 A 
ATOM      6  C   UNL     1      -0.039   2.756 -22.201  0.00  0.00    +0.211 A 
ATOM      7  C   UNL     1       0.624   3.214 -23.222  0.00  0.00    +0.181 A 
ATOM      8  O   UNL     1      -0.010   3.592 -24.292  0.00  0.00    -0.451 OA
ATOM      9  O   UNL     1      -1.997   2.218 -21.231  0.00  0.00    -0.283 OA
ATOM     10  C   UNL     1      -1.306   3.512 -24.342  0.00  0.00    +0.147 A 
ATOM     11  C   UNL     1      -1.941   3.890 -25.412  0.00  0.00    +0.092 A 
ENDROOT
BRANCH   7  12
ATOM     12  C   UNL     1       1.920   3.295 -23.173  0.00  0.00    +0.025 A 
ATOM     13  C   UNL     1       2.510   4.434 -23.387  0.00  0.00    +0.015 A 
ATOM     14  C   UNL     1       3.806   4.514 -23.338  0.00  0.00    +0.050 A 
ATOM     15  C   UNL     1       4.514   3.456 -23.074  0.00  0.00    +0.163 A 
ATOM     16  C   UNL     1       3.925   2.318 -22.860  0.00  0.00    +0.174 A 
ATOM     17  C   UNL     1       2.628   2.237 -22.909  0.00  0.00    +0.061 A 
BRANCH  16  18
ATOM     18  O   UNL     1       4.632   1.259 -22.597  0.00  0.00    -0.422 OA
BRANCH  18  19
ATOM     19  C   UNL     1       4.609   0.742 -21.404  0.00  0.00    +0.309 C 
ATOM     20  O   UNL     1       3.721  -0.159 -21.103  0.00  0.00    -0.251 OA
ATOM     21  C   UNL     1       5.473   1.126 -20.511  0.00  0.00    +0.136 C 
ENDBRANCH  18  19
ENDBRANCH  16  18
BRANCH  15  22
ATOM     22  O   UNL     1       5.810   3.537 -23.025  0.00  0.00    -0.484 OA
BRANCH  22  23
ATOM     23  C   UNL     1       6.391   4.700 -23.059  0.00  0.00    +0.264 C 
BRANCH  23  24
ATOM     24  C   UNL     1       6.831   5.239 -21.962  0.00  0.00    -0.010 A 
ATOM     25  C   UNL     1       6.578   6.488 -21.705  0.00  0.00    +0.007 A 
ATOM     26  C   UNL     1       7.018   7.028 -20.607  0.00  0.00    +0.000 A 
ATOM     27  C   UNL     1       7.711   6.319 -19.766  0.00  0.00    +0.000 A 
ATOM     28  C   UNL     1       7.964   5.070 -20.023  0.00  0.00    +0.000 A 
ATOM     29  C   UNL     1       7.524   4.530 -21.121  0.00  0.00    +0.007 A 
ENDBRANCH  23  24
ENDBRANCH  22  23
ENDBRANCH  15  22
ENDBRANCH   7  12
BRANCH   1  31
ATOM     30  C   UNL     1      -3.658   3.581 -27.662  0.00  0.00    +0.277 C 
ATOM     31  O   UNL     1      -3.871   4.187 -26.531  0.00  0.00    -0.495 OA
ENDBRANCH   1  31
BRANCH   6  32
ATOM     32  O   UNL     1       0.595   2.379 -21.132  0.00  0.00    -0.488 OA
ATOM     33  C   UNL     1       0.489   1.153 -20.712  0.00  0.00    +0.277 C 
ENDBRANCH   6  32
BRANCH   3  34
ATOM     34  O   UNL     1      -3.928   2.516 -22.351  0.00  0.00    -0.425 OA
BRANCH  34  35
ATOM     35  C   UNL     1      -4.813   3.263 -21.762  0.00  0.00    +0.309 C 
ATOM     36  O   UNL     1      -4.436   4.304 -21.080  0.00  0.00    -0.251 OA
ATOM     37  C   UNL     1      -6.077   2.970 -21.854  0.00  0.00    +0.136 C 
ENDBRANCH  34  35
ENDBRANCH   3  34
TORSDOF 10
ENDMDL
MODEL 4
REMARK VINA RESULT:    -8.512      2.181      9.429
REMARK INTER + INTRA:         -12.216
REMARK INTER:                 -12.267
REMARK INTRA:                   0.051
REMARK UNBOUND:                 1.273
REMARK  Name = ZINC000000689652
REMARK  14 active torsions:
REMARK  status: ('A' for Active; 'I' for Inactive)
REMARK    1  A    between atoms: C_1  and  O_2
REMARK    2  A    between atoms: O_2  and  C_3
REMARK    3  A    between atoms: C_5  and  O_6
REMARK    4  A    between atoms: O_6  and  C_7
REMARK    5  A    between atoms: C_7  and  C_8
REMARK    6  A    between atoms: C_13  and  O_14
REMARK    7  A    between atoms: O_14  and  C_15
REMARK    8  A    between atoms: C_16  and  C_17
REMARK    9  A    between atoms: C_20  and  O_21
REMARK   10  A    between atoms: O_21  and  C_22
REMARK   11  A    between atoms: C_22  and  C_23
REMARK   12  A    between atoms: C_29  and  O_30
REMARK   13  A    between atoms: O_30  and  C_31
REMARK   14  A    between atoms: C_31  and  C_32
REMARK                            x       y       z     vdW  Elec       q    Type
REMARK                         _______ _______ _______ _____ _____    ______ ____
ROOT
ATOM      1  C   UNL     1       8.108   3.341 -23.685  0.00  0.00    +0.127 A 
ATOM      2  C   UNL     1       8.397   4.398 -22.987  0.00  0.00    +0.093 A 
ATOM      3  C   UNL     1       7.447   5.179 -22.566  0.00  0.00    +0.150 A 
ATOM      4  C   UNL     1       6.208   4.902 -22.844  0.00  0.00    +0.110 A 
ATOM      5  C   UNL     1       5.257   5.683 -22.423  0.00  0.00    +0.238 A 
ATOM      6  C   UNL     1       4.018   5.407 -22.700  0.00  0.00    +0.211 A 
ATOM      7  C   UNL     1       3.729   4.349 -23.398  0.00  0.00    +0.181 A 
ATOM      8  O   UNL     1       4.678   3.569 -23.819  0.00  0.00    -0.451 OA
ATOM      9  O   UNL     1       5.546   6.741 -21.725  0.00  0.00    -0.283 OA
ATOM     10  C   UNL     1       5.918   3.845 -23.542  0.00  0.00    +0.147 A 
ATOM     11  C   UNL     1       6.868   3.064 -23.963  0.00  0.00    +0.092 A 
ENDROOT
BRANCH   7  12
ATOM     12  C   UNL     1       2.489   4.073 -23.675  0.00  0.00    +0.025 A 
ATOM     13  C   UNL     1       1.938   4.561 -24.747  0.00  0.00    +0.015 A 
ATOM     14  C   UNL     1       0.698   4.284 -25.024  0.00  0.00    +0.050 A 
ATOM     15  C   UNL     1       0.010   3.519 -24.231  0.00  0.00    +0.163 A 
ATOM     16  C   UNL     1       0.561   3.030 -23.160  0.00  0.00    +0.174 A 
ATOM     17  C   UNL     1       1.801   3.307 -22.882  0.00  0.00    +0.061 A 
BRANCH  16  18
ATOM     18  O   UNL     1      -0.128   2.264 -22.367  0.00  0.00    -0.422 OA
BRANCH  18  19
ATOM     19  C   UNL     1       0.467   1.325 -21.692  0.00  0.00    +0.309 C 
ATOM     20  O   UNL     1       1.016   0.325 -22.315  0.00  0.00    -0.251 OA
ATOM     21  C   UNL     1       0.513   1.387 -20.394  0.00  0.00    +0.136 C 
ENDBRANCH  18  19
ENDBRANCH  16  18
BRANCH  15  22
ATOM     22  O   UNL     1      -1.229   3.242 -24.508  0.00  0.00    -0.484 OA
BRANCH  22  23
ATOM     23  C   UNL     1      -2.135   4.173 -24.440  0.00  0.00    +0.264 C 
BRANCH  23  24
ATOM     24  C   UNL     1      -3.268   3.935 -23.849  0.00  0.00    -0.010 A 
ATOM     25  C   UNL     1      -4.386   4.137 -24.481  0.00  0.00    +0.007 A 
ATOM     26  C   UNL     1      -5.519   3.899 -23.891  0.00  0.00    +0.000 A 
ATOM     27  C   UNL     1      -5.535   3.459 -22.667  0.00  0.00    +0.000 A 
ATOM     28  C   UNL     1      -4.417   3.258 -22.035  0.00  0.00    +0.000 A 
ATOM     29  C   UNL     1      -3.283   3.496 -22.626  0.00  0.00    +0.007 A 
ENDBRANCH  23  24
ENDBRANCH  22  23
ENDBRANCH  15  22
ENDBRANCH   7  12
BRANCH   1  31
ATOM     30  C   UNL     1       9.062   2.148 -25.340  0.00  0.00    +0.277 C 
ATOM     31  O   UNL     1       9.058   2.560 -24.106  0.00  0.00    -0.495 OA
ENDBRANCH   1  31
BRANCH   6  32
ATOM     32  O   UNL     1       3.068   6.188 -22.279  0.00  0.00    -0.488 OA
ATOM     33  C   UNL     1       3.212   7.478 -22.342  0.00  0.00    +0.277 C 
ENDBRANCH   6  32
BRANCH   3  34
ATOM     34  O   UNL     1       7.736   6.237 -21.868  0.00  0.00    -0.425 OA
BRANCH  34  35
ATOM     35  C   UNL     1       8.305   6.113 -20.706  0.00  0.00    +0.309 C 
ATOM     36  O   UNL     1       8.149   5.021 -20.019  0.00  0.00    -0.251 OA
ATOM     37  C   UNL     1       9.030   7.082 -20.230  0.00  0.00    +0.136 C 
ENDBRANCH  34  35
ENDBRANCH   3  34
TORSDOF 10
ENDMDL
MODEL 5
REMARK VINA RESULT:    -8.181      1.878      9.610
REMARK INTER + INTRA:         -11.690
REMARK INTER:                 -12.465
REMARK INTRA:                   0.774
REMARK UNBOUND:                 1.273
REMARK  Name = ZINC000000689652
REMARK  14 active torsions:
REMARK  status: ('A' for Active; 'I' for Inactive)
REMARK    1  A    between atoms: C_1  and  O_2
REMARK    2  A    between atoms: O_2  and  C_3
REMARK    3  A    between atoms: C_5  and  O_6
REMARK    4  A    between atoms: O_6  and  C_7
REMARK    5  A    between atoms: C_7  and  C_8
REMARK    6  A    between atoms: C_13  and  O_14
REMARK    7  A    between atoms: O_14  and  C_15
REMARK    8  A    between atoms: C_16  and  C_17
REMARK    9  A    between atoms: C_20  and  O_21
REMARK   10  A    between atoms: O_21  and  C_22
REMARK   11  A    between atoms: C_22  and  C_23
REMARK   12  A    between atoms: C_29  and  O_30
REMARK   13  A    between atoms: O_30  and  C_31
REMARK   14  A    between atoms: C_31  and  C_32
REMARK                            x       y       z     vdW  Elec       q    Type
REMARK                         _______ _______ _______ _____ _____    ______ ____
ROOT
ATOM      1  C   UNL     1       8.120   5.712 -23.634  0.00  0.00    +0.127 A 
ATOM      2  C   UNL     1       8.481   5.330 -22.445  0.00  0.00    +0.093 A 
ATOM      3  C   UNL     1       7.661   4.642 -21.707  0.00  0.00    +0.150 A 
ATOM      4  C   UNL     1       6.481   4.337 -22.158  0.00  0.00    +0.110 A 
ATOM      5  C   UNL     1       5.661   3.649 -21.419  0.00  0.00    +0.238 A 
ATOM      6  C   UNL     1       4.481   3.343 -21.869  0.00  0.00    +0.211 A 
ATOM      7  C   UNL     1       4.120   3.725 -23.058  0.00  0.00    +0.181 A 
ATOM      8  O   UNL     1       4.940   4.413 -23.797  0.00  0.00    -0.451 OA
ATOM      9  O   UNL     1       6.022   3.267 -20.230  0.00  0.00    -0.283 OA
ATOM     10  C   UNL     1       6.120   4.718 -23.347  0.00  0.00    +0.147 A 
ATOM     11  C   UNL     1       6.940   5.406 -24.085  0.00  0.00    +0.092 A 
ENDROOT
BRANCH   7  12
ATOM     12  C   UNL     1       2.940   3.420 -23.509  0.00  0.00    +0.025 A 
ATOM     13  C   UNL     1       2.800   2.993 -24.730  0.00  0.00    +0.015 A 
ATOM     14  C   UNL     1       1.620   2.688 -25.181  0.00  0.00    +0.050 A 
ATOM     15  C   UNL     1       0.579   2.809 -24.412  0.00  0.00    +0.163 A 
ATOM     16  C   UNL     1       0.718   3.235 -23.192  0.00  0.00    +0.174 A 
ATOM     17  C   UNL     1       1.899   3.541 -22.740  0.00  0.00    +0.061 A 
BRANCH  16  18
ATOM     18  O   UNL     1      -0.323   3.356 -22.423  0.00  0.00    -0.422 OA
BRANCH  18  19
ATOM     19  C   UNL     1      -0.770   2.325 -21.767  0.00  0.00    +0.309 C 
ATOM     20  O   UNL     1      -2.035   2.031 -21.803  0.00  0.00    -0.251 OA
ATOM     21  C   UNL     1       0.049   1.590 -21.076  0.00  0.00    +0.136 C 
ENDBRANCH  18  19
ENDBRANCH  16  18
BRANCH  15  22
ATOM     22  O   UNL     1      -0.601   2.503 -24.863  0.00  0.00    -0.484 OA
BRANCH  22  23
ATOM     23  C   UNL     1      -1.281   3.374 -25.549  0.00  0.00    +0.264 C 
BRANCH  23  24
ATOM     24  C   UNL     1      -2.555   3.516 -25.338  0.00  0.00    -0.010 A 
ATOM     25  C   UNL     1      -2.973   4.161 -24.289  0.00  0.00    +0.007 A 
ATOM     26  C   UNL     1      -4.248   4.303 -24.078  0.00  0.00    +0.000 A 
ATOM     27  C   UNL     1      -5.106   3.801 -24.917  0.00  0.00    +0.000 A 
ATOM     28  C   UNL     1      -4.688   3.156 -25.966  0.00  0.00    +0.000 A 
ATOM     29  C   UNL     1      -3.412   3.014 -26.176  0.00  0.00    +0.007 A 
ENDBRANCH  23  24
ENDBRANCH  22  23
ENDBRANCH  15  22
ENDBRANCH   7  12
BRANCH   1  31
ATOM     30  C   UNL     1       8.973   7.696 -24.273  0.00  0.00    +0.277 C 
ATOM     31  O   UNL     1       8.940   6.399 -24.372  0.00  0.00    -0.495 OA
ENDBRANCH   1  31
BRANCH   6  32
ATOM     32  O   UNL     1       3.662   2.656 -21.131  0.00  0.00    -0.488 OA
ATOM     33  C   UNL     1       3.874   1.389 -20.931  0.00  0.00    +0.277 C 
ENDBRANCH   6  32
BRANCH   3  34
ATOM     34  O   UNL     1       8.022   4.260 -20.518  0.00  0.00    -0.425 OA
BRANCH  34  35
ATOM     35  C   UNL     1       8.240   5.143 -19.589  0.00  0.00    +0.309 C 
ATOM     36  O   UNL     1       9.062   4.876 -18.618  0.00  0.00    -0.251 OA
ATOM     37  C   UNL     1       7.636   6.294 -19.632  0.00  0.00    +0.136 C 
ENDBRANCH  34  35
ENDBRANCH   3  34
TORSDOF 10
ENDMDL
MODEL 6
REMARK VINA RESULT:    -7.852      4.780      7.521
REMARK INTER + INTRA:         -11.169
REMARK INTER:                 -10.843
REMARK INTRA:                  -0.325
REMARK UNBOUND:                 1.273
REMARK  Name = ZINC000000689652
REMARK  14 active torsions:
REMARK  status: ('A' for Active; 'I' for Inactive)
REMARK    1  A    between atoms: C_1  and  O_2
REMARK    2  A    between atoms: O_2  and  C_3
REMARK    3  A    between atoms: C_5  and  O_6
REMARK    4  A    between atoms: O_6  and  C_7
REMARK    5  A    between atoms: C_7  and  C_8
REMARK    6  A    between atoms: C_13  and  O_14
REMARK    7  A    between atoms: O_14  and  C_15
REMARK    8  A    between atoms: C_16  and  C_17
REMARK    9  A    between atoms: C_20  and  O_21
REMARK   10  A    between atoms: O_21  and  C_22
REMARK   11  A    between atoms: C_22  and  C_23
REMARK   12  A    between atoms: C_29  and  O_30
REMARK   13  A    between atoms: O_30  and  C_31
REMARK   14  A    between atoms: C_31  and  C_32
REMARK                            x       y       z     vdW  Elec       q    Type
REMARK                         _______ _______ _______ _____ _____    ______ ____
ROOT
ATOM      1  C   UNL     1       0.871   4.113 -23.801  0.00  0.00    +0.127 A 
ATOM      2  C   UNL     1       1.684   3.114 -23.975  0.00  0.00    +0.093 A 
ATOM      3  C   UNL     1       2.946   3.247 -23.694  0.00  0.00    +0.150 A 
ATOM      4  C   UNL     1       3.395   4.379 -23.240  0.00  0.00    +0.110 A 
ATOM      5  C   UNL     1       4.658   4.513 -22.959  0.00  0.00    +0.238 A 
ATOM      6  C   UNL     1       5.107   5.644 -22.505  0.00  0.00    +0.211 A 
ATOM      7  C   UNL     1       4.293   6.643 -22.331  0.00  0.00    +0.181 A 
ATOM      8  O   UNL     1       3.031   6.510 -22.612  0.00  0.00    -0.451 OA
ATOM      9  O   UNL     1       5.471   3.514 -23.133  0.00  0.00    -0.283 OA
ATOM     10  C   UNL     1       2.582   5.379 -23.066  0.00  0.00    +0.147 A 
ATOM     11  C   UNL     1       1.319   5.245 -23.347  0.00  0.00    +0.092 A 
ENDROOT
BRANCH   7  12
ATOM     12  C   UNL     1       4.742   7.775 -21.877  0.00  0.00    +0.025 A 
ATOM     13  C   UNL     1       4.216   8.302 -20.810  0.00  0.00    +0.015 A 
ATOM     14  C   UNL     1       4.665   9.435 -20.356  0.00  0.00    +0.050 A 
ATOM     15  C   UNL     1       5.639  10.041 -20.967  0.00  0.00    +0.163 A 
ATOM     16  C   UNL     1       6.164   9.514 -22.033  0.00  0.00    +0.174 A 
ATOM     17  C   UNL     1       5.716   8.381 -22.488  0.00  0.00    +0.061 A 
BRANCH  16  18
ATOM     18  O   UNL     1       7.139  10.120 -22.645  0.00  0.00    -0.422 OA
BRANCH  18  19
ATOM     19  C   UNL     1       7.025  10.426 -23.904  0.00  0.00    +0.309 C 
ATOM     20  O   UNL     1       6.002  11.112 -24.317  0.00  0.00    -0.251 OA
ATOM     21  C   UNL     1       7.937  10.044 -24.749  0.00  0.00    +0.136 C 
ENDBRANCH  18  19
ENDBRANCH  16  18
BRANCH  15  22
ATOM     22  O   UNL     1       6.087  11.173 -20.513  0.00  0.00    -0.484 OA
BRANCH  22  23
ATOM     23  C   UNL     1       5.637  12.292 -20.998  0.00  0.00    +0.264 C 
BRANCH  23  24
ATOM     24  C   UNL     1       4.438  12.695 -20.699  0.00  0.00    -0.010 A 
ATOM     25  C   UNL     1       3.526  12.762 -21.623  0.00  0.00    +0.007 A 
ATOM     26  C   UNL     1       2.326  13.164 -21.324  0.00  0.00    +0.000 A 
ATOM     27  C   UNL     1       2.039  13.500 -20.100  0.00  0.00    +0.000 A 
ATOM     28  C   UNL     1       2.951  13.432 -19.177  0.00  0.00    +0.000 A 
ATOM     29  C   UNL     1       4.151  13.030 -19.476  0.00  0.00    +0.007 A 
ENDBRANCH  23  24
ENDBRANCH  22  23
ENDBRANCH  15  22
ENDBRANCH   7  12
BRANCH   1  31
ATOM     30  C   UNL     1      -1.292   4.419 -23.252  0.00  0.00    +0.277 C 
ATOM     31  O   UNL     1      -0.391   3.980 -24.081  0.00  0.00    -0.495 OA
ENDBRANCH   1  31
BRANCH   6  32
ATOM     32  O   UNL     1       6.369   5.777 -22.224  0.00  0.00    -0.488 OA
ATOM     33  C   UNL     1       6.862   5.210 -21.164  0.00  0.00    +0.277 C 
ENDBRANCH   6  32
BRANCH   3  34
ATOM     34  O   UNL     1       3.760   2.248 -23.868  0.00  0.00    -0.425 OA
BRANCH  34  35
ATOM     35  C   UNL     1       3.326   1.028 -23.750  0.00  0.00    +0.309 C 
ATOM     36  O   UNL     1       2.974   0.358 -24.807  0.00  0.00    -0.251 OA
ATOM     37  C   UNL     1       3.244   0.478 -22.574  0.00  0.00    +0.136 C 
ENDBRANCH  34  35
ENDBRANCH   3  34
TORSDOF 10
ENDMDL
MODEL 7
REMARK VINA RESULT:    -7.710      3.962      7.182
REMARK INTER + INTRA:         -10.945
REMARK INTER:                 -10.607
REMARK INTRA:                  -0.338
REMARK UNBOUND:                 1.273
REMARK  Name = ZINC000000689652
REMARK  14 active torsions:
REMARK  status: ('A' for Active; 'I' for Inactive)
REMARK    1  A    between atoms: C_1  and  O_2
REMARK    2  A    between atoms: O_2  and  C_3
REMARK    3  A    between atoms: C_5  and  O_6
REMARK    4  A    between atoms: O_6  and  C_7
REMARK    5  A    between atoms: C_7  and  C_8
REMARK    6  A    between atoms: C_13  and  O_14
REMARK    7  A    between atoms: O_14  and  C_15
REMARK    8  A    between atoms: C_16  and  C_17
REMARK    9  A    between atoms: C_20  and  O_21
REMARK   10  A    between atoms: O_21  and  C_22
REMARK   11  A    between atoms: C_22  and  C_23
REMARK   12  A    between atoms: C_29  and  O_30
REMARK   13  A    between atoms: O_30  and  C_31
REMARK   14  A    between atoms: C_31  and  C_32
REMARK                            x       y       z     vdW  Elec       q    Type
REMARK                         _______ _______ _______ _____ _____    ______ ____
ROOT
ATOM      1  C   UNL     1       1.375   3.920 -23.516  0.00  0.00    +0.127 A 
ATOM      2  C   UNL     1       1.902   2.733 -23.463  0.00  0.00    +0.093 A 
ATOM      3  C   UNL     1       3.159   2.592 -23.161  0.00  0.00    +0.150 A 
ATOM      4  C   UNL     1       3.888   3.639 -22.913  0.00  0.00    +0.110 A 
ATOM      5  C   UNL     1       5.145   3.499 -22.611  0.00  0.00    +0.238 A 
ATOM      6  C   UNL     1       5.875   4.545 -22.362  0.00  0.00    +0.211 A 
ATOM      7  C   UNL     1       5.348   5.733 -22.416  0.00  0.00    +0.181 A 
ATOM      8  O   UNL     1       4.091   5.873 -22.718  0.00  0.00    -0.451 OA
ATOM      9  O   UNL     1       5.672   2.312 -22.557  0.00  0.00    -0.283 OA
ATOM     10  C   UNL     1       3.362   4.827 -22.966  0.00  0.00    +0.147 A 
ATOM     11  C   UNL     1       2.105   4.967 -23.268  0.00  0.00    +0.092 A 
ENDROOT
BRANCH   7  12
ATOM     12  C   UNL     1       6.077   6.779 -22.168  0.00  0.00    +0.025 A 
ATOM     13  C   UNL     1       7.291   6.851 -22.628  0.00  0.00    +0.015 A 
ATOM     14  C   UNL     1       8.020   7.897 -22.380  0.00  0.00    +0.050 A 
ATOM     15  C   UNL     1       7.536   8.874 -21.671  0.00  0.00    +0.163 A 
ATOM     16  C   UNL     1       6.323   8.803 -21.210  0.00  0.00    +0.174 A 
ATOM     17  C   UNL     1       5.593   7.756 -21.458  0.00  0.00    +0.061 A 
BRANCH  16  18
ATOM     18  O   UNL     1       5.839   9.779 -20.501  0.00  0.00    -0.422 OA
BRANCH  18  19
ATOM     19  C   UNL     1       4.667  10.268 -20.782  0.00  0.00    +0.309 C 
ATOM     20  O   UNL     1       3.769  10.379 -19.849  0.00  0.00    -0.251 OA
ATOM     21  C   UNL     1       4.394  10.644 -21.996  0.00  0.00    +0.136 C 
ENDBRANCH  18  19
ENDBRANCH  16  18
BRANCH  15  22
ATOM     22  O   UNL     1       8.266   9.921 -21.423  0.00  0.00    -0.484 OA
BRANCH  22  23
ATOM     23  C   UNL     1       8.679  10.672 -22.401  0.00  0.00    +0.264 C 
BRANCH  23  24
ATOM     24  C   UNL     1       7.913  11.615 -22.864  0.00  0.00    -0.010 A 
ATOM     25  C   UNL     1       7.491  12.557 -22.075  0.00  0.00    +0.007 A 
ATOM     26  C   UNL     1       6.726  13.500 -22.538  0.00  0.00    +0.000 A 
ATOM     27  C   UNL     1       6.382  13.500 -23.793  0.00  0.00    +0.000 A 
ATOM     28  C   UNL     1       6.804  12.557 -24.582  0.00  0.00    +0.000 A 
ATOM     29  C   UNL     1       7.570  11.615 -24.118  0.00  0.00    +0.007 A 
ENDBRANCH  23  24
ENDBRANCH  22  23
ENDBRANCH  15  22
ENDBRANCH   7  12
BRANCH   1  31
ATOM     30  C   UNL     1      -0.627   4.876 -23.133  0.00  0.00    +0.277 C 
ATOM     31  O   UNL     1       0.119   4.060 -23.818  0.00  0.00    -0.495 OA
ENDBRANCH   1  31
BRANCH   6  32
ATOM     32  O   UNL     1       7.131   4.405 -22.060  0.00  0.00    -0.488 OA
ATOM     33  C   UNL     1       7.484   4.195 -20.827  0.00  0.00    +0.277 C 
ENDBRANCH   6  32
BRANCH   3  34
ATOM     34  O   UNL     1       3.686   1.405 -23.107  0.00  0.00    -0.425 OA
BRANCH  34  35
ATOM     35  C   UNL     1       3.147   0.488 -22.360  0.00  0.00    +0.309 C 
ATOM     36  O   UNL     1       2.321  -0.371 -22.879  0.00  0.00    -0.251 OA
ATOM     37  C   UNL     1       3.435   0.430 -21.093  0.00  0.00    +0.136 C 
ENDBRANCH  34  35
ENDBRANCH   3  34
TORSDOF 10
ENDMDL
