MODEL 1
REMARK VINA RESULT:   -11.129      0.000      0.000
REMARK INTER + INTRA:         -11.888
REMARK INTER:                 -11.744
REMARK INTRA:                  -0.144
REMARK UNBOUND:                -0.108
REMARK  Name = COc1ccc2c3c1O[C@H]1C=CC=C4[C@@H](C2)NCC[C@@]431                      ZINC000100393372
REMARK  2 active torsions:
REMARK  status: ('A' for Active; 'I' for Inactive)
REMARK    1  A    between atoms: C_1  and  O_2
REMARK    2  A    between atoms: O_2  and  C_3
REMARK                            x       y       z     vdW  Elec       q    Type
REMARK                         _______ _______ _______ _____ _____    ______ ____
ROOT
ATOM      1  C   UNL     1      -0.050   2.763 -23.974  0.00  0.00    +0.162 A 
ATOM      2  C   UNL     1      -0.157   3.306 -25.105  0.00  0.00    +0.050 A 
ATOM      3  C   UNL     1      -1.255   3.756 -25.486  0.00  0.00    +0.008 A 
ATOM      4  C   UNL     1      -2.253   3.668 -24.748  0.00  0.00    -0.034 A 
ATOM      5  C   UNL     1      -2.168   3.132 -23.620  0.00  0.00    +0.016 A 
ATOM      6  C   UNL     1      -3.167   3.045 -22.881  0.00  0.00    +0.071 C 
ATOM      7  C   UNL     1      -4.233   2.891 -21.959  0.00  0.00    +0.071 C 
ATOM      8  C   UNL     1      -5.483   3.388 -22.362  0.00  0.00    +0.131 C 
ATOM      9  N   UNL     1      -5.562   3.987 -23.629  0.00  0.00    +0.233 N 
ATOM     10  H   UNL     1      -5.802   4.962 -23.447  0.00  0.00    +0.202 HD
ATOM     11  H   UNL     1      -6.254   3.469 -24.172  0.00  0.00    +0.202 HD
ATOM     12  C   UNL     1      -4.370   4.037 -24.392  0.00  0.00    +0.095 C 
ATOM     13  C   UNL     1      -4.265   3.494 -23.262  0.00  0.00    -0.007 C 
ATOM     14  C   UNL     1      -5.276   3.406 -22.515  0.00  0.00    +0.006 C 
ATOM     15  C   UNL     1      -5.178   2.870 -21.395  0.00  0.00    -0.000 C 
ATOM     16  C   UNL     1      -4.072   2.414 -21.003  0.00  0.00    +0.018 C 
ATOM     17  C   UNL     1      -3.073   2.501 -21.741  0.00  0.00    +0.212 C 
ATOM     18  O   UNL     1      -1.607   2.214 -21.918  0.00  0.00    -0.480 OA
ATOM     19  C   UNL     1      -3.372   4.124 -25.131  0.00  0.00    +0.094 C 
ATOM     20  C   UNL     1      -1.062   2.676 -23.227  0.00  0.00    +0.167 A 
ENDROOT
BRANCH   1  22
ATOM     21  C   UNL     1       1.814   3.018 -22.898  0.00  0.00    +0.277 C 
ATOM     22  O   UNL     1       1.058   2.311 -23.592  0.00  0.00    -0.491 OA
ENDBRANCH   1  22
TORSDOF 1
ENDMDL
MODEL 2
REMARK VINA RESULT:   -10.996      1.217      2.624
REMARK INTER + INTRA:         -11.747
REMARK INTER:                 -11.603
REMARK INTRA:                  -0.144
REMARK UNBOUND:                -0.108
REMARK  Name = COc1ccc2c3c1O[C@H]1C=CC=C4[C@@H](C2)NCC[C@@]431                      ZINC000100393372
REMARK  2 active torsions:
REMARK  status: ('A' for Active; 'I' for Inactive)
REMARK    1  A    between atoms: C_1  and  O_2
REMARK    2  A    between atoms: O_2  and  C_3
REMARK                            x       y       z     vdW  Elec       q    Type
REMARK                         _______ _______ _______ _____ _____    ______ ____
ROOT
ATOM      1  C   UNL     1       0.062   2.242 -23.272  0.00  0.00    +0.162 A 
ATOM      2  C   UNL     1       0.055   1.877 -22.067  0.00  0.00    +0.050 A 
ATOM      3  C   UNL     1      -0.986   1.969 -21.389  0.00  0.00    +0.008 A 
ATOM      4  C   UNL     1      -2.026   2.422 -21.902  0.00  0.00    -0.034 A 
ATOM      5  C   UNL     1      -2.040   2.790 -23.099  0.00  0.00    +0.016 A 
ATOM      6  C   UNL     1      -3.079   3.244 -23.612  0.00  0.00    +0.071 C 
ATOM      7  C   UNL     1      -4.201   3.773 -24.299  0.00  0.00    +0.071 C 
ATOM      8  C   UNL     1      -5.389   3.888 -23.560  0.00  0.00    +0.131 C 
ATOM      9  N   UNL     1      -5.358   3.472 -22.219  0.00  0.00    +0.233 N 
ATOM     10  H   UNL     1      -6.003   2.683 -22.171  0.00  0.00    +0.202 HD
ATOM     11  H   UNL     1      -5.616   4.272 -21.641  0.00  0.00    +0.202 HD
ATOM     12  C   UNL     1      -4.127   2.971 -21.729  0.00  0.00    +0.095 C 
ATOM     13  C   UNL     1      -4.120   3.335 -22.934  0.00  0.00    -0.007 C 
ATOM     14  C   UNL     1      -5.173   3.794 -23.453  0.00  0.00    +0.006 C 
ATOM     15  C   UNL     1      -5.174   4.156 -24.644  0.00  0.00    -0.000 C 
ATOM     16  C   UNL     1      -4.126   4.067 -25.336  0.00  0.00    +0.018 C 
ATOM     17  C   UNL     1      -3.085   3.614 -24.823  0.00  0.00    +0.212 C 
ATOM     18  O   UNL     1      -1.636   3.257 -25.015  0.00  0.00    -0.480 OA
ATOM     19  C   UNL     1      -3.087   2.517 -21.216  0.00  0.00    +0.094 C 
ATOM     20  C   UNL     1      -0.992   2.701 -23.791  0.00  0.00    +0.167 A 
ENDROOT
BRANCH   1  22
ATOM     21  C   UNL     1       1.840   3.147 -24.119  0.00  0.00    +0.277 C 
ATOM     22  O   UNL     1       1.114   2.149 -23.954  0.00  0.00    -0.491 OA
ENDBRANCH   1  22
TORSDOF 1
ENDMDL
MODEL 3
REMARK VINA RESULT:    -9.911      1.405      2.932
REMARK INTER + INTRA:         -10.599
REMARK INTER:                 -10.490
REMARK INTRA:                  -0.109
REMARK UNBOUND:                -0.108
REMARK  Name = COc1ccc2c3c1O[C@H]1C=CC=C4[C@@H](C2)NCC[C@@]431                      ZINC000100393372
REMARK  2 active torsions:
REMARK  status: ('A' for Active; 'I' for Inactive)
REMARK    1  A    between atoms: C_1  and  O_2
REMARK    2  A    between atoms: O_2  and  C_3
REMARK                            x       y       z     vdW  Elec       q    Type
REMARK                         _______ _______ _______ _____ _____    ______ ____
ROOT
ATOM      1  C   UNL     1       1.323   2.261 -23.625  0.00  0.00    +0.162 A 
ATOM      2  C   UNL     1       1.418   1.754 -22.476  0.00  0.00    +0.050 A 
ATOM      3  C   UNL     1       0.421   1.690 -21.732  0.00  0.00    +0.008 A 
ATOM      4  C   UNL     1      -0.677   2.128 -22.124  0.00  0.00    -0.034 A 
ATOM      5  C   UNL     1      -0.792   2.636 -23.262  0.00  0.00    +0.016 A 
ATOM      6  C   UNL     1      -1.890   3.074 -23.654  0.00  0.00    +0.071 C 
ATOM      7  C   UNL     1      -3.086   3.604 -24.202  0.00  0.00    +0.071 C 
ATOM      8  C   UNL     1      -4.226   3.545 -23.386  0.00  0.00    +0.131 C 
ATOM      9  N   UNL     1      -4.081   2.973 -22.112  0.00  0.00    +0.233 N 
ATOM     10  H   UNL     1      -4.671   2.141 -22.126  0.00  0.00    +0.202 HD
ATOM     11  H   UNL     1      -4.349   3.678 -21.425  0.00  0.00    +0.202 HD
ATOM     12  C   UNL     1      -2.791   2.504 -21.762  0.00  0.00    +0.095 C 
ATOM     13  C   UNL     1      -2.887   3.010 -22.909  0.00  0.00    -0.007 C 
ATOM     14  C   UNL     1      -3.999   3.454 -23.305  0.00  0.00    +0.006 C 
ATOM     15  C   UNL     1      -4.101   3.957 -24.439  0.00  0.00    -0.000 C 
ATOM     16  C   UNL     1      -3.098   4.025 -25.197  0.00  0.00    +0.018 C 
ATOM     17  C   UNL     1      -1.999   3.587 -24.806  0.00  0.00    +0.212 C 
ATOM     18  O   UNL     1      -0.547   3.358 -25.125  0.00  0.00    -0.480 OA
ATOM     19  C   UNL     1      -1.693   2.065 -21.370  0.00  0.00    +0.094 C 
ATOM     20  C   UNL     1       0.211   2.704 -24.020  0.00  0.00    +0.167 A 
ENDROOT
BRANCH   1  22
ATOM     21  C   UNL     1       3.245   1.485 -24.260  0.00  0.00    +0.277 C 
ATOM     22  O   UNL     1       2.331   2.324 -24.373  0.00  0.00    -0.491 OA
ENDBRANCH   1  22
TORSDOF 1
ENDMDL
MODEL 4
REMARK VINA RESULT:    -9.586      2.284      5.445
REMARK INTER + INTRA:         -10.255
REMARK INTER:                 -10.148
REMARK INTRA:                  -0.107
REMARK UNBOUND:                -0.108
REMARK  Name = COc1ccc2c3c1O[C@H]1C=CC=C4[C@@H](C2)NCC[C@@]431                      ZINC000100393372
REMARK  2 active torsions:
REMARK  status: ('A' for Active; 'I' for Inactive)
REMARK    1  A    between atoms: C_1  and  O_2
REMARK    2  A    between atoms: O_2  and  C_3
REMARK                            x       y       z     vdW  Elec       q    Type
REMARK                         _______ _______ _______ _____ _____    ______ ____
ROOT
ATOM      1  C   UNL     1      -3.610   3.292 -22.627  0.00  0.00    +0.162 A 
ATOM      2  C   UNL     1      -3.523   2.691 -21.524  0.00  0.00    +0.050 A 
ATOM      3  C   UNL     1      -2.434   2.214 -21.152  0.00  0.00    +0.008 A 
ATOM      4  C   UNL     1      -1.425   2.331 -21.871  0.00  0.00    -0.034 A 
ATOM      5  C   UNL     1      -1.490   2.925 -22.971  0.00  0.00    +0.016 A 
ATOM      6  C   UNL     1      -0.480   3.042 -23.691  0.00  0.00    +0.071 C 
ATOM      7  C   UNL     1       0.600   3.235 -24.589  0.00  0.00    +0.071 C 
ATOM      8  C   UNL     1       1.840   2.707 -24.195  0.00  0.00    +0.131 C 
ATOM      9  N   UNL     1       1.897   2.043 -22.960  0.00  0.00    +0.233 N 
ATOM     10  H   UNL     1       2.527   2.605 -22.386  0.00  0.00    +0.202 HD
ATOM     11  H   UNL     1       2.213   1.089 -23.137  0.00  0.00    +0.202 HD
ATOM     12  C   UNL     1       0.694   1.964 -22.216  0.00  0.00    +0.095 C 
ATOM     13  C   UNL     1       0.609   2.565 -23.318  0.00  0.00    -0.007 C 
ATOM     14  C   UNL     1       1.631   2.683 -24.046  0.00  0.00    +0.006 C 
ATOM     15  C   UNL     1       1.553   3.277 -25.138  0.00  0.00    -0.000 C 
ATOM     16  C   UNL     1       0.456   3.762 -25.521  0.00  0.00    +0.018 C 
ATOM     17  C   UNL     1      -0.554   3.645 -24.802  0.00  0.00    +0.212 C 
ATOM     18  O   UNL     1      -2.020   3.934 -24.630  0.00  0.00    -0.480 OA
ATOM     19  C   UNL     1      -0.315   1.847 -21.497  0.00  0.00    +0.094 C 
ATOM     20  C   UNL     1      -2.587   3.410 -23.354  0.00  0.00    +0.167 A 
ENDROOT
BRANCH   1  22
ATOM     21  C   UNL     1      -5.772   3.371 -22.487  0.00  0.00    +0.277 C 
ATOM     22  O   UNL     1      -4.710   3.773 -23.000  0.00  0.00    -0.491 OA
ENDBRANCH   1  22
TORSDOF 1
ENDMDL
MODEL 5
REMARK VINA RESULT:    -9.385      2.449      3.836
REMARK INTER + INTRA:         -10.042
REMARK INTER:                  -9.909
REMARK INTRA:                  -0.133
REMARK UNBOUND:                -0.108
REMARK  Name = COc1ccc2c3c1O[C@H]1C=CC=C4[C@@H](C2)NCC[C@@]431                      ZINC000100393372
REMARK  2 active torsions:
REMARK  status: ('A' for Active; 'I' for Inactive)
REMARK    1  A    between atoms: C_1  and  O_2
REMARK    2  A    between atoms: O_2  and  C_3
REMARK                            x       y       z     vdW  Elec       q    Type
REMARK                         _______ _______ _______ _____ _____    ______ ____
ROOT
ATOM      1  C   UNL     1       3.185   1.499 -22.572  0.00  0.00    +0.162 A 
ATOM      2  C   UNL     1       3.829   2.334 -23.258  0.00  0.00    +0.050 A 
ATOM      3  C   UNL     1       3.266   3.355 -23.698  0.00  0.00    +0.008 A 
ATOM      4  C   UNL     1       2.060   3.552 -23.459  0.00  0.00    -0.034 A 
ATOM      5  C   UNL     1       1.402   2.733 -22.778  0.00  0.00    +0.016 A 
ATOM      6  C   UNL     1       0.196   2.930 -22.539  0.00  0.00    +0.071 C 
ATOM      7  C   UNL     1      -1.177   3.052 -22.206  0.00  0.00    +0.071 C 
ATOM      8  C   UNL     1      -1.838   4.192 -22.688  0.00  0.00    +0.131 C 
ATOM      9  N   UNL     1      -1.087   5.101 -23.449  0.00  0.00    +0.233 N 
ATOM     10  H   UNL     1      -1.077   5.962 -22.901  0.00  0.00    +0.202 HD
ATOM     11  H   UNL     1      -1.533   5.180 -24.364  0.00  0.00    +0.202 HD
ATOM     12  C   UNL     1       0.277   4.786 -23.665  0.00  0.00    +0.095 C 
ATOM     13  C   UNL     1      -0.368   3.951 -22.979  0.00  0.00    -0.007 C 
ATOM     14  C   UNL     1      -1.588   4.151 -22.737  0.00  0.00    +0.006 C 
ATOM     15  C   UNL     1      -2.232   3.329 -22.059  0.00  0.00    -0.000 C 
ATOM     16  C   UNL     1      -1.670   2.295 -21.612  0.00  0.00    +0.018 C 
ATOM     17  C   UNL     1      -0.464   2.097 -21.850  0.00  0.00    +0.212 C 
ATOM     18  O   UNL     1       0.727   1.197 -21.667  0.00  0.00    -0.480 OA
ATOM     19  C   UNL     1       1.483   4.589 -23.904  0.00  0.00    +0.094 C 
ATOM     20  C   UNL     1       1.964   1.699 -22.331  0.00  0.00    +0.167 A 
ENDROOT
BRANCH   1  22
ATOM     21  C   UNL     1       4.045   0.389 -20.921  0.00  0.00    +0.277 C 
ATOM     22  O   UNL     1       3.756   0.470 -22.130  0.00  0.00    -0.491 OA
ENDBRANCH   1  22
TORSDOF 1
ENDMDL
MODEL 6
REMARK VINA RESULT:    -9.299      2.662      5.829
REMARK INTER + INTRA:          -9.951
REMARK INTER:                  -9.816
REMARK INTRA:                  -0.135
REMARK UNBOUND:                -0.108
REMARK  Name = COc1ccc2c3c1O[C@H]1C=CC=C4[C@@H](C2)NCC[C@@]431                      ZINC000100393372
REMARK  2 active torsions:
REMARK  status: ('A' for Active; 'I' for Inactive)
REMARK    1  A    between atoms: C_1  and  O_2
REMARK    2  A    between atoms: O_2  and  C_3
REMARK                            x       y       z     vdW  Elec       q    Type
REMARK                         _______ _______ _______ _____ _____    ______ ____
ROOT
ATOM      1  C   UNL     1      -1.787   3.229 -23.145  0.00  0.00    +0.162 A 
ATOM      2  C   UNL     1      -1.758   4.437 -23.496  0.00  0.00    +0.050 A 
ATOM      3  C   UNL     1      -0.672   5.042 -23.583  0.00  0.00    +0.008 A 
ATOM      4  C   UNL     1       0.392   4.450 -23.322  0.00  0.00    -0.034 A 
ATOM      5  C   UNL     1       0.385   3.248 -22.971  0.00  0.00    +0.016 A 
ATOM      6  C   UNL     1       1.449   2.656 -22.710  0.00  0.00    +0.071 C 
ATOM      7  C   UNL     1       2.595   1.885 -22.390  0.00  0.00    +0.071 C 
ATOM      8  C   UNL     1       3.833   2.539 -22.479  0.00  0.00    +0.131 C 
ATOM      9  N   UNL     1       3.825   3.887 -22.874  0.00  0.00    +0.233 N 
ATOM     10  H   UNL     1       4.325   3.906 -23.764  0.00  0.00    +0.202 HD
ATOM     11  H   UNL     1       4.258   4.430 -22.127  0.00  0.00    +0.202 HD
ATOM     12  C   UNL     1       2.563   4.469 -23.149  0.00  0.00    +0.095 C 
ATOM     13  C   UNL     1       2.535   3.261 -22.798  0.00  0.00    -0.007 C 
ATOM     14  C   UNL     1       3.613   2.662 -22.534  0.00  0.00    +0.006 C 
ATOM     15  C   UNL     1       3.592   1.467 -22.186  0.00  0.00    -0.000 C 
ATOM     16  C   UNL     1       2.499   0.850 -22.095  0.00  0.00    +0.018 C 
ATOM     17  C   UNL     1       1.434   1.441 -22.356  0.00  0.00    +0.212 C 
ATOM     18  O   UNL     1      -0.064   1.356 -22.455  0.00  0.00    -0.480 OA
ATOM     19  C   UNL     1       1.499   5.060 -23.410  0.00  0.00    +0.094 C 
ATOM     20  C   UNL     1      -0.708   2.631 -22.881  0.00  0.00    +0.167 A 
ENDROOT
BRANCH   1  22
ATOM     21  C   UNL     1      -3.631   2.823 -22.081  0.00  0.00    +0.277 C 
ATOM     22  O   UNL     1      -2.884   2.622 -23.058  0.00  0.00    -0.491 OA
ENDBRANCH   1  22
TORSDOF 1
ENDMDL
MODEL 7
REMARK VINA RESULT:    -8.942      1.971      4.948
REMARK INTER + INTRA:          -9.573
REMARK INTER:                  -9.448
REMARK INTRA:                  -0.126
REMARK UNBOUND:                -0.108
REMARK  Name = COc1ccc2c3c1O[C@H]1C=CC=C4[C@@H](C2)NCC[C@@]431                      ZINC000100393372
REMARK  2 active torsions:
REMARK  status: ('A' for Active; 'I' for Inactive)
REMARK    1  A    between atoms: C_1  and  O_2
REMARK    2  A    between atoms: O_2  and  C_3
REMARK                            x       y       z     vdW  Elec       q    Type
REMARK                         _______ _______ _______ _____ _____    ______ ____
ROOT
ATOM      1  C   UNL     1      -2.952   3.152 -21.930  0.00  0.00    +0.162 A 
ATOM      2  C   UNL     1      -3.618   3.630 -22.885  0.00  0.00    +0.050 A 
ATOM      3  C   UNL     1      -3.088   3.794 -24.001  0.00  0.00    +0.008 A 
ATOM      4  C   UNL     1      -1.894   3.486 -24.175  0.00  0.00    -0.034 A 
ATOM      5  C   UNL     1      -1.215   3.010 -23.237  0.00  0.00    +0.016 A 
ATOM      6  C   UNL     1      -0.021   2.702 -23.411  0.00  0.00    +0.071 C 
ATOM      7  C   UNL     1       1.341   2.317 -23.493  0.00  0.00    +0.071 C 
ATOM      8  C   UNL     1       1.965   2.492 -24.739  0.00  0.00    +0.131 C 
ATOM      9  N   UNL     1       1.190   3.027 -25.780  0.00  0.00    +0.233 N 
ATOM     10  H   UNL     1       1.139   2.286 -26.480  0.00  0.00    +0.202 HD
ATOM     11  H   UNL     1       1.646   3.884 -26.095  0.00  0.00    +0.202 HD
ATOM     12  C   UNL     1      -0.158   3.344 -25.481  0.00  0.00    +0.095 C 
ATOM     13  C   UNL     1       0.509   2.867 -24.526  0.00  0.00    -0.007 C 
ATOM     14  C   UNL     1       1.717   2.556 -24.703  0.00  0.00    +0.006 C 
ATOM     15  C   UNL     1       2.382   2.083 -23.762  0.00  0.00    -0.000 C 
ATOM     16  C   UNL     1       1.854   1.914 -22.632  0.00  0.00    +0.018 C 
ATOM     17  C   UNL     1       0.660   2.221 -22.458  0.00  0.00    +0.212 C 
ATOM     18  O   UNL     1      -0.498   2.291 -21.500  0.00  0.00    -0.480 OA
ATOM     19  C   UNL     1      -1.352   3.652 -25.307  0.00  0.00    +0.094 C 
ATOM     20  C   UNL     1      -1.743   2.841 -22.107  0.00  0.00    +0.167 A 
ENDROOT
BRANCH   1  22
ATOM     21  C   UNL     1      -4.443   2.196 -20.680  0.00  0.00    +0.277 C 
ATOM     22  O   UNL     1      -3.489   2.987 -20.805  0.00  0.00    -0.491 OA
ENDBRANCH   1  22
TORSDOF 1
ENDMDL
MODEL 8
REMARK VINA RESULT:    -8.748      3.046      6.429
REMARK INTER + INTRA:          -9.368
REMARK INTER:                  -9.224
REMARK INTRA:                  -0.144
REMARK UNBOUND:                -0.108
REMARK  Name = COc1ccc2c3c1O[C@H]1C=CC=C4[C@@H](C2)NCC[C@@]431                      ZINC000100393372
REMARK  2 active torsions:
REMARK  status: ('A' for Active; 'I' for Inactive)
REMARK    1  A    between atoms: C_1  and  O_2
REMARK    2  A    between atoms: O_2  and  C_3
REMARK                            x       y       z     vdW  Elec       q    Type
REMARK                         _______ _______ _______ _____ _____    ______ ____
ROOT
ATOM      1  C   UNL     1      -0.785   3.178 -23.368  0.00  0.00    +0.162 A 
ATOM      2  C   UNL     1      -0.634   4.384 -23.697  0.00  0.00    +0.050 A 
ATOM      3  C   UNL     1       0.494   4.912 -23.653  0.00  0.00    +0.008 A 
ATOM      4  C   UNL     1       1.478   4.246 -23.281  0.00  0.00    -0.034 A 
ATOM      5  C   UNL     1       1.349   3.046 -22.949  0.00  0.00    +0.016 A 
ATOM      6  C   UNL     1       2.334   2.380 -22.577  0.00  0.00    +0.071 C 
ATOM      7  C   UNL     1       3.380   1.529 -22.139  0.00  0.00    +0.071 C 
ATOM      8  C   UNL     1       4.662   2.097 -22.079  0.00  0.00    +0.131 C 
ATOM      9  N   UNL     1       4.791   3.444 -22.454  0.00  0.00    +0.233 N 
ATOM     10  H   UNL     1       5.389   3.433 -23.281  0.00  0.00    +0.202 HD
ATOM     11  H   UNL     1       5.173   3.951 -21.655  0.00  0.00    +0.202 HD
ATOM     12  C   UNL     1       3.612   4.113 -22.862  0.00  0.00    +0.095 C 
ATOM     13  C   UNL     1       3.462   2.908 -22.533  0.00  0.00    -0.007 C 
ATOM     14  C   UNL     1       4.458   2.235 -22.156  0.00  0.00    +0.006 C 
ATOM     15  C   UNL     1       4.317   1.042 -21.829  0.00  0.00    -0.000 C 
ATOM     16  C   UNL     1       3.181   0.502 -21.871  0.00  0.00    +0.018 C 
ATOM     17  C   UNL     1       2.195   1.167 -22.243  0.00  0.00    +0.212 C 
ATOM     18  O   UNL     1       0.716   1.186 -22.512  0.00  0.00    -0.480 OA
ATOM     19  C   UNL     1       2.627   4.779 -23.234  0.00  0.00    +0.094 C 
ATOM     20  C   UNL     1       0.213   2.505 -22.991  0.00  0.00    +0.167 A 
ENDROOT
BRANCH   1  22
ATOM     21  C   UNL     1      -2.627   2.592 -22.387  0.00  0.00    +0.277 C 
ATOM     22  O   UNL     1      -1.924   2.648 -23.414  0.00  0.00    -0.491 OA
ENDBRANCH   1  22
TORSDOF 1
ENDMDL
MODEL 9
REMARK VINA RESULT:    -8.665      2.907      6.167
REMARK INTER + INTRA:          -9.279
REMARK INTER:                  -9.171
REMARK INTRA:                  -0.108
REMARK UNBOUND:                -0.108
REMARK  Name = COc1ccc2c3c1O[C@H]1C=CC=C4[C@@H](C2)NCC[C@@]431                      ZINC000100393372
REMARK  2 active torsions:
REMARK  status: ('A' for Active; 'I' for Inactive)
REMARK    1  A    between atoms: C_1  and  O_2
REMARK    2  A    between atoms: O_2  and  C_3
REMARK                            x       y       z     vdW  Elec       q    Type
REMARK                         _______ _______ _______ _____ _____    ______ ____
ROOT
ATOM      1  C   UNL     1      -1.352   3.184 -23.985  0.00  0.00    +0.162 A 
ATOM      2  C   UNL     1      -2.061   2.642 -23.098  0.00  0.00    +0.050 A 
ATOM      3  C   UNL     1      -1.529   2.102 -22.110  0.00  0.00    +0.008 A 
ATOM      4  C   UNL     1      -0.289   2.097 -21.996  0.00  0.00    -0.034 A 
ATOM      5  C   UNL     1       0.435   2.632 -22.867  0.00  0.00    +0.016 A 
ATOM      6  C   UNL     1       1.675   2.627 -22.753  0.00  0.00    +0.071 C 
ATOM      7  C   UNL     1       3.091   2.682 -22.727  0.00  0.00    +0.071 C 
ATOM      8  C   UNL     1       3.719   2.082 -21.625  0.00  0.00    +0.131 C 
ATOM      9  N   UNL     1       2.895   1.487 -20.656  0.00  0.00    +0.233 N 
ATOM     10  H   UNL     1       3.051   2.029 -19.806  0.00  0.00    +0.202 HD
ATOM     11  H   UNL     1       3.156   0.502 -20.592  0.00  0.00    +0.202 HD
ATOM     12  C   UNL     1       1.497   1.545 -20.878  0.00  0.00    +0.095 C 
ATOM     13  C   UNL     1       2.207   2.087 -21.764  0.00  0.00    -0.007 C 
ATOM     14  C   UNL     1       3.462   2.083 -21.648  0.00  0.00    +0.006 C 
ATOM     15  C   UNL     1       4.171   2.617 -22.522  0.00  0.00    -0.000 C 
ATOM     16  C   UNL     1       3.640   3.165 -23.523  0.00  0.00    +0.018 C 
ATOM     17  C   UNL     1       2.399   3.169 -23.638  0.00  0.00    +0.212 C 
ATOM     18  O   UNL     1       1.211   3.583 -24.462  0.00  0.00    -0.480 OA
ATOM     19  C   UNL     1       0.257   1.550 -20.992  0.00  0.00    +0.094 C 
ATOM     20  C   UNL     1      -0.096   3.179 -23.869  0.00  0.00    +0.167 A 
ENDROOT
BRANCH   1  22
ATOM     21  C   UNL     1      -3.061   4.151 -24.903  0.00  0.00    +0.277 C 
ATOM     22  O   UNL     1      -1.892   3.728 -24.982  0.00  0.00    -0.491 OA
ENDBRANCH   1  22
TORSDOF 1
ENDMDL
