MODEL 1
REMARK VINA RESULT:    -9.731      0.000      0.000
REMARK INTER + INTRA:         -10.544
REMARK INTER:                 -12.375
REMARK INTRA:                   1.830
REMARK UNBOUND:                 2.885
REMARK  Name = ZINC000001669371
REMARK  11 active torsions:
REMARK  status: ('A' for Active; 'I' for Inactive)
REMARK    1  A    between atoms: C_1  and  O_2
REMARK    2  A    between atoms: O_2  and  C_3
REMARK    3  A    between atoms: C_6  and  C_7
REMARK    4  A    between atoms: C_10  and  O_11
REMARK    5  A    between atoms: C_12  and  C_13
REMARK    6  A    between atoms: C_16  and  O_17
REMARK    7  A    between atoms: O_17  and  C_18
REMARK    8  A    between atoms: C_19  and  O_20
REMARK    9  A    between atoms: O_20  and  C_21
REMARK   10  A    between atoms: C_27  and  O_28
REMARK   11  A    between atoms: O_28  and  C_29
REMARK                            x       y       z     vdW  Elec       q    Type
REMARK                         _______ _______ _______ _____ _____    ______ ____
ROOT
ATOM      1  C   UNL     1       2.661   4.309 -23.239  0.00  0.00    +0.157 C 
ATOM      2  O   UNL     1       2.023   5.440 -23.299  0.00  0.00    -0.369 OA
ATOM      3  C   UNL     1       0.749   5.186 -23.251  0.00  0.00    +0.198 C 
ATOM      4  C   UNL     1       0.599   3.898 -23.160  0.00  0.00    +0.127 C 
ATOM      5  C   UNL     1      -0.281   2.944 -23.075  0.00  0.00    +0.183 C 
ATOM      6  O   UNL     1       0.358   1.814 -23.014  0.00  0.00    -0.369 OA
ATOM      7  C   UNL     1       1.631   2.068 -23.063  0.00  0.00    +0.170 C 
ATOM      8  C   UNL     1       1.782   3.356 -23.153  0.00  0.00    +0.085 C 
ENDROOT
BRANCH   5   9
ATOM      9  C   UNL     1      -1.571   3.096 -23.053  0.00  0.00    -0.012 A 
ATOM     10  C   UNL     1      -2.198   3.171 -21.915  0.00  0.00    +0.010 A 
ATOM     11  C   UNL     1      -3.489   3.322 -21.895  0.00  0.00    +0.050 A 
ATOM     12  C   UNL     1      -4.153   3.399 -23.009  0.00  0.00    +0.162 A 
ATOM     13  C   UNL     1      -3.526   3.325 -24.146  0.00  0.00    +0.162 A 
ATOM     14  C   UNL     1      -2.236   3.173 -24.167  0.00  0.00    +0.055 A 
BRANCH  13  15
ATOM     15  O   UNL     1      -4.190   3.402 -25.261  0.00  0.00    -0.491 OA
ATOM     16  C   UNL     1      -3.557   3.381 -26.396  0.00  0.00    +0.277 C 
ENDBRANCH  13  15
BRANCH  12  17
ATOM     17  O   UNL     1      -5.444   3.551 -22.988  0.00  0.00    -0.491 OA
ATOM     18  C   UNL     1      -6.142   3.040 -22.017  0.00  0.00    +0.277 C 
ENDBRANCH  12  17
ENDBRANCH   5   9
BRANCH   1  22
ATOM     19  C   UNL     1       6.533   3.854 -23.305  0.00  0.00    +0.162 A 
ATOM     20  C   UNL     1       5.759   2.883 -23.688  0.00  0.00    +0.050 A 
ATOM     21  C   UNL     1       4.468   3.034 -23.666  0.00  0.00    +0.010 A 
ATOM     22  C   UNL     1       3.952   4.158 -23.261  0.00  0.00    -0.015 A 
ATOM     23  C   UNL     1       4.727   5.128 -22.878  0.00  0.00    +0.055 A 
ATOM     24  C   UNL     1       6.018   4.977 -22.900  0.00  0.00    +0.162 A 
BRANCH  19  26
ATOM     25  C   UNL     1       8.420   3.359 -24.430  0.00  0.00    +0.277 C 
ATOM     26  O   UNL     1       7.825   3.703 -23.327  0.00  0.00    -0.491 OA
ENDBRANCH  19  26
BRANCH  24  27
ATOM     27  O   UNL     1       6.793   5.948 -22.517  0.00  0.00    -0.491 OA
ATOM     28  C   UNL     1       6.331   6.876 -21.731  0.00  0.00    +0.277 C 
ENDBRANCH  24  27
ENDBRANCH   1  22
BRANCH   4  29
ATOM     29  O   UNL     1      -0.582   4.439 -23.167  0.00  0.00    -0.383 OA
ATOM     30  H   UNL     1      -0.587   5.196 -23.775  0.00  0.00    +0.210 HD
ENDBRANCH   4  29
TORSDOF 7
ENDMDL
MODEL 2
REMARK VINA RESULT:    -9.609      1.241      1.896
REMARK INTER + INTRA:         -10.375
REMARK INTER:                 -12.444
REMARK INTRA:                   2.069
REMARK UNBOUND:                 2.885
REMARK  Name = ZINC000001669371
REMARK  11 active torsions:
REMARK  status: ('A' for Active; 'I' for Inactive)
REMARK    1  A    between atoms: C_1  and  O_2
REMARK    2  A    between atoms: O_2  and  C_3
REMARK    3  A    between atoms: C_6  and  C_7
REMARK    4  A    between atoms: C_10  and  O_11
REMARK    5  A    between atoms: C_12  and  C_13
REMARK    6  A    between atoms: C_16  and  O_17
REMARK    7  A    between atoms: O_17  and  C_18
REMARK    8  A    between atoms: C_19  and  O_20
REMARK    9  A    between atoms: O_20  and  C_21
REMARK   10  A    between atoms: C_27  and  O_28
REMARK   11  A    between atoms: O_28  and  C_29
REMARK                            x       y       z     vdW  Elec       q    Type
REMARK                         _______ _______ _______ _____ _____    ______ ____
ROOT
ATOM      1  C   UNL     1       2.165   3.818 -22.887  0.00  0.00    +0.157 C 
ATOM      2  O   UNL     1       1.590   4.971 -23.057  0.00  0.00    -0.369 OA
ATOM      3  C   UNL     1       0.305   4.795 -22.987  0.00  0.00    +0.198 C 
ATOM      4  C   UNL     1       0.083   3.531 -22.775  0.00  0.00    +0.127 C 
ATOM      5  C   UNL     1      -0.849   2.641 -22.600  0.00  0.00    +0.183 C 
ATOM      6  O   UNL     1      -0.274   1.488 -22.431  0.00  0.00    -0.369 OA
ATOM      7  C   UNL     1       1.011   1.664 -22.500  0.00  0.00    +0.170 C 
ATOM      8  C   UNL     1       1.233   2.928 -22.713  0.00  0.00    +0.085 C 
ENDROOT
BRANCH   5   9
ATOM      9  C   UNL     1      -2.128   2.866 -22.597  0.00  0.00    -0.012 A 
ATOM     10  C   UNL     1      -2.787   2.860 -21.475  0.00  0.00    +0.010 A 
ATOM     11  C   UNL     1      -4.067   3.086 -21.473  0.00  0.00    +0.050 A 
ATOM     12  C   UNL     1      -4.689   3.316 -22.590  0.00  0.00    +0.162 A 
ATOM     13  C   UNL     1      -4.031   3.322 -23.712  0.00  0.00    +0.162 A 
ATOM     14  C   UNL     1      -2.751   3.097 -23.714  0.00  0.00    +0.055 A 
BRANCH  13  15
ATOM     15  O   UNL     1      -4.654   3.552 -24.829  0.00  0.00    -0.491 OA
ATOM     16  C   UNL     1      -4.064   3.309 -25.963  0.00  0.00    +0.277 C 
ENDBRANCH  13  15
BRANCH  12  17
ATOM     17  O   UNL     1      -5.970   3.541 -22.587  0.00  0.00    -0.491 OA
ATOM     18  C   UNL     1      -6.754   2.823 -21.838  0.00  0.00    +0.277 C 
ENDBRANCH  12  17
ENDBRANCH   5   9
BRANCH   1  22
ATOM     19  C   UNL     1       6.005   3.143 -22.898  0.00  0.00    +0.162 A 
ATOM     20  C   UNL     1       5.547   4.299 -23.278  0.00  0.00    +0.050 A 
ATOM     21  C   UNL     1       4.267   4.524 -23.275  0.00  0.00    +0.010 A 
ATOM     22  C   UNL     1       3.444   3.593 -22.890  0.00  0.00    -0.015 A 
ATOM     23  C   UNL     1       3.903   2.437 -22.510  0.00  0.00    +0.055 A 
ATOM     24  C   UNL     1       5.183   2.212 -22.513  0.00  0.00    +0.162 A 
BRANCH  19  26
ATOM     25  C   UNL     1       8.022   3.367 -23.874  0.00  0.00    +0.277 C 
ATOM     26  O   UNL     1       7.286   2.917 -22.901  0.00  0.00    -0.491 OA
ENDBRANCH  19  26
BRANCH  24  27
ATOM     27  O   UNL     1       5.640   1.056 -22.133  0.00  0.00    -0.491 OA
ATOM     28  C   UNL     1       5.029   0.392 -21.197  0.00  0.00    +0.277 C 
ENDBRANCH  24  27
ENDBRANCH   1  22
BRANCH   4  29
ATOM     29  O   UNL     1      -1.066   4.135 -22.837  0.00  0.00    -0.383 OA
ATOM     30  H   UNL     1      -1.761   3.488 -23.035  0.00  0.00    +0.210 HD
ENDBRANCH   4  29
TORSDOF 7
ENDMDL
MODEL 3
REMARK VINA RESULT:    -9.450      1.302      8.812
REMARK INTER + INTRA:         -10.157
REMARK INTER:                 -11.714
REMARK INTRA:                   1.557
REMARK UNBOUND:                 2.885
REMARK  Name = ZINC000001669371
REMARK  11 active torsions:
REMARK  status: ('A' for Active; 'I' for Inactive)
REMARK    1  A    between atoms: C_1  and  O_2
REMARK    2  A    between atoms: O_2  and  C_3
REMARK    3  A    between atoms: C_6  and  C_7
REMARK    4  A    between atoms: C_10  and  O_11
REMARK    5  A    between atoms: C_12  and  C_13
REMARK    6  A    between atoms: C_16  and  O_17
REMARK    7  A    between atoms: O_17  and  C_18
REMARK    8  A    between atoms: C_19  and  O_20
REMARK    9  A    between atoms: O_20  and  C_21
REMARK   10  A    between atoms: C_27  and  O_28
REMARK   11  A    between atoms: O_28  and  C_29
REMARK                            x       y       z     vdW  Elec       q    Type
REMARK                         _______ _______ _______ _____ _____    ______ ____
ROOT
ATOM      1  C   UNL     1       0.347   4.241 -23.225  0.00  0.00    +0.157 C 
ATOM      2  O   UNL     1       0.939   5.367 -23.491  0.00  0.00    -0.369 OA
ATOM      3  C   UNL     1       2.221   5.184 -23.382  0.00  0.00    +0.198 C 
ATOM      4  C   UNL     1       2.422   3.943 -23.049  0.00  0.00    +0.127 C 
ATOM      5  C   UNL     1       3.339   3.063 -22.776  0.00  0.00    +0.183 C 
ATOM      6  O   UNL     1       2.747   1.937 -22.510  0.00  0.00    -0.369 OA
ATOM      7  C   UNL     1       1.465   2.121 -22.619  0.00  0.00    +0.170 C 
ATOM      8  C   UNL     1       1.263   3.361 -22.952  0.00  0.00    +0.085 C 
ENDROOT
BRANCH   5   9
ATOM      9  C   UNL     1       4.621   3.273 -22.770  0.00  0.00    -0.012 A 
ATOM     10  C   UNL     1       5.299   3.192 -23.878  0.00  0.00    +0.010 A 
ATOM     11  C   UNL     1       6.582   3.403 -23.870  0.00  0.00    +0.050 A 
ATOM     12  C   UNL     1       7.187   3.693 -22.757  0.00  0.00    +0.162 A 
ATOM     13  C   UNL     1       6.510   3.773 -21.650  0.00  0.00    +0.162 A 
ATOM     14  C   UNL     1       5.228   3.563 -21.657  0.00  0.00    +0.055 A 
BRANCH  13  15
ATOM     15  O   UNL     1       7.116   4.063 -20.537  0.00  0.00    -0.491 OA
ATOM     16  C   UNL     1       7.150   5.294 -20.118  0.00  0.00    +0.277 C 
ENDBRANCH  13  15
BRANCH  12  17
ATOM     17  O   UNL     1       8.471   3.903 -22.751  0.00  0.00    -0.491 OA
ATOM     18  C   UNL     1       8.963   4.932 -23.374  0.00  0.00    +0.277 C 
ENDBRANCH  12  17
ENDBRANCH   5   9
BRANCH   1  22
ATOM     19  C   UNL     1      -3.501   3.612 -23.244  0.00  0.00    +0.162 A 
ATOM     20  C   UNL     1      -2.831   3.503 -22.136  0.00  0.00    +0.050 A 
ATOM     21  C   UNL     1      -1.548   3.713 -22.129  0.00  0.00    +0.010 A 
ATOM     22  C   UNL     1      -0.936   4.032 -23.231  0.00  0.00    -0.015 A 
ATOM     23  C   UNL     1      -1.607   4.140 -24.339  0.00  0.00    +0.055 A 
ATOM     24  C   UNL     1      -2.890   3.930 -24.346  0.00  0.00    +0.162 A 
BRANCH  19  26
ATOM     25  C   UNL     1      -5.435   3.320 -22.128  0.00  0.00    +0.277 C 
ATOM     26  O   UNL     1      -4.785   3.402 -23.250  0.00  0.00    -0.491 OA
ENDBRANCH  19  26
BRANCH  24  27
ATOM     27  O   UNL     1      -3.560   4.038 -25.455  0.00  0.00    -0.491 OA
ATOM     28  C   UNL     1      -3.094   3.514 -26.549  0.00  0.00    +0.277 C 
ENDBRANCH  24  27
ENDBRANCH   1  22
BRANCH   4  29
ATOM     29  O   UNL     1       3.580   4.526 -23.146  0.00  0.00    -0.383 OA
ATOM     30  H   UNL     1       3.456   5.451 -23.408  0.00  0.00    +0.210 HD
ENDBRANCH   4  29
TORSDOF 7
ENDMDL
MODEL 4
REMARK VINA RESULT:    -9.400      0.882      1.805
REMARK INTER + INTRA:         -10.087
REMARK INTER:                 -11.935
REMARK INTRA:                   1.848
REMARK UNBOUND:                 2.885
REMARK  Name = ZINC000001669371
REMARK  11 active torsions:
REMARK  status: ('A' for Active; 'I' for Inactive)
REMARK    1  A    between atoms: C_1  and  O_2
REMARK    2  A    between atoms: O_2  and  C_3
REMARK    3  A    between atoms: C_6  and  C_7
REMARK    4  A    between atoms: C_10  and  O_11
REMARK    5  A    between atoms: C_12  and  C_13
REMARK    6  A    between atoms: C_16  and  O_17
REMARK    7  A    between atoms: O_17  and  C_18
REMARK    8  A    between atoms: C_19  and  O_20
REMARK    9  A    between atoms: O_20  and  C_21
REMARK   10  A    between atoms: C_27  and  O_28
REMARK   11  A    between atoms: O_28  and  C_29
REMARK                            x       y       z     vdW  Elec       q    Type
REMARK                         _______ _______ _______ _____ _____    ______ ____
ROOT
ATOM      1  C   UNL     1       3.147   4.385 -23.235  0.00  0.00    +0.157 C 
ATOM      2  O   UNL     1       2.487   5.505 -23.233  0.00  0.00    -0.369 OA
ATOM      3  C   UNL     1       1.219   5.225 -23.237  0.00  0.00    +0.198 C 
ATOM      4  C   UNL     1       1.092   3.932 -23.241  0.00  0.00    +0.127 C 
ATOM      5  C   UNL     1       0.229   2.959 -23.246  0.00  0.00    +0.183 C 
ATOM      6  O   UNL     1       0.889   1.839 -23.248  0.00  0.00    -0.369 OA
ATOM      7  C   UNL     1       2.158   2.118 -23.244  0.00  0.00    +0.170 C 
ATOM      8  C   UNL     1       2.284   3.412 -23.240  0.00  0.00    +0.085 C 
ENDROOT
BRANCH   5   9
ATOM      9  C   UNL     1      -1.064   3.085 -23.248  0.00  0.00    -0.012 A 
ATOM     10  C   UNL     1      -1.706   3.178 -24.375  0.00  0.00    +0.010 A 
ATOM     11  C   UNL     1      -3.000   3.304 -24.376  0.00  0.00    +0.050 A 
ATOM     12  C   UNL     1      -3.651   3.337 -23.252  0.00  0.00    +0.162 A 
ATOM     13  C   UNL     1      -3.010   3.245 -22.125  0.00  0.00    +0.162 A 
ATOM     14  C   UNL     1      -1.716   3.119 -22.124  0.00  0.00    +0.055 A 
BRANCH  13  15
ATOM     15  O   UNL     1      -3.661   3.279 -21.001  0.00  0.00    -0.491 OA
ATOM     16  C   UNL     1      -3.080   3.725 -19.927  0.00  0.00    +0.277 C 
ENDBRANCH  13  15
BRANCH  12  17
ATOM     17  O   UNL     1      -4.946   3.464 -23.254  0.00  0.00    -0.491 OA
ATOM     18  C   UNL     1      -5.550   3.945 -24.300  0.00  0.00    +0.277 C 
ENDBRANCH  12  17
ENDBRANCH   5   9
BRANCH   1  22
ATOM     19  C   UNL     1       7.027   4.007 -23.228  0.00  0.00    +0.162 A 
ATOM     20  C   UNL     1       6.279   3.019 -23.620  0.00  0.00    +0.050 A 
ATOM     21  C   UNL     1       4.985   3.144 -23.622  0.00  0.00    +0.010 A 
ATOM     22  C   UNL     1       4.440   4.259 -23.233  0.00  0.00    -0.015 A 
ATOM     23  C   UNL     1       5.189   5.247 -22.841  0.00  0.00    +0.055 A 
ATOM     24  C   UNL     1       6.483   5.121 -22.838  0.00  0.00    +0.162 A 
BRANCH  19  26
ATOM     25  C   UNL     1       8.950   3.610 -24.331  0.00  0.00    +0.277 C 
ATOM     26  O   UNL     1       8.322   3.881 -23.225  0.00  0.00    -0.491 OA
ENDBRANCH  19  26
BRANCH  24  27
ATOM     27  O   UNL     1       7.231   6.109 -22.446  0.00  0.00    -0.491 OA
ATOM     28  C   UNL     1       6.731   7.043 -21.693  0.00  0.00    +0.277 C 
ENDBRANCH  24  27
ENDBRANCH   1  22
BRANCH   4  29
ATOM     29  O   UNL     1      -0.100   4.451 -23.242  0.00  0.00    -0.383 OA
ATOM     30  H   UNL     1      -0.085   5.294 -23.722  0.00  0.00    +0.210 HD
ENDBRANCH   4  29
TORSDOF 7
ENDMDL
MODEL 5
REMARK VINA RESULT:    -9.356      0.911      8.863
REMARK INTER + INTRA:         -10.026
REMARK INTER:                 -11.896
REMARK INTRA:                   1.870
REMARK UNBOUND:                 2.885
REMARK  Name = ZINC000001669371
REMARK  11 active torsions:
REMARK  status: ('A' for Active; 'I' for Inactive)
REMARK    1  A    between atoms: C_1  and  O_2
REMARK    2  A    between atoms: O_2  and  C_3
REMARK    3  A    between atoms: C_6  and  C_7
REMARK    4  A    between atoms: C_10  and  O_11
REMARK    5  A    between atoms: C_12  and  C_13
REMARK    6  A    between atoms: C_16  and  O_17
REMARK    7  A    between atoms: O_17  and  C_18
REMARK    8  A    between atoms: C_19  and  O_20
REMARK    9  A    between atoms: O_20  and  C_21
REMARK   10  A    between atoms: C_27  and  O_28
REMARK   11  A    between atoms: O_28  and  C_29
REMARK                            x       y       z     vdW  Elec       q    Type
REMARK                         _______ _______ _______ _____ _____    ______ ____
ROOT
ATOM      1  C   UNL     1      -0.815   2.825 -22.365  0.00  0.00    +0.157 C 
ATOM      2  O   UNL     1      -0.168   1.822 -21.850  0.00  0.00    -0.369 OA
ATOM      3  C   UNL     1       1.099   2.003 -22.072  0.00  0.00    +0.198 C 
ATOM      4  C   UNL     1       1.238   3.119 -22.725  0.00  0.00    +0.127 C 
ATOM      5  C   UNL     1       2.107   3.920 -23.266  0.00  0.00    +0.183 C 
ATOM      6  O   UNL     1       1.460   4.924 -23.781  0.00  0.00    -0.369 OA
ATOM      7  C   UNL     1       0.193   4.743 -23.558  0.00  0.00    +0.170 C 
ATOM      8  C   UNL     1       0.054   3.627 -22.906  0.00  0.00    +0.085 C 
ENDROOT
BRANCH   5   9
ATOM      9  C   UNL     1       3.394   3.748 -23.288  0.00  0.00    -0.012 A 
ATOM     10  C   UNL     1       3.911   2.790 -24.000  0.00  0.00    +0.010 A 
ATOM     11  C   UNL     1       5.199   2.619 -24.021  0.00  0.00    +0.050 A 
ATOM     12  C   UNL     1       5.971   3.404 -23.331  0.00  0.00    +0.162 A 
ATOM     13  C   UNL     1       5.455   4.361 -22.619  0.00  0.00    +0.162 A 
ATOM     14  C   UNL     1       4.167   4.533 -22.598  0.00  0.00    +0.055 A 
BRANCH  13  15
ATOM     15  O   UNL     1       6.228   5.147 -21.928  0.00  0.00    -0.491 OA
ATOM     16  C   UNL     1       6.207   6.429 -22.142  0.00  0.00    +0.277 C 
ENDBRANCH  13  15
BRANCH  12  17
ATOM     17  O   UNL     1       7.260   3.231 -23.353  0.00  0.00    -0.491 OA
ATOM     18  C   UNL     1       7.938   3.538 -24.419  0.00  0.00    +0.277 C 
ENDBRANCH  12  17
ENDBRANCH   5   9
BRANCH   1  22
ATOM     19  C   UNL     1      -4.679   3.342 -22.300  0.00  0.00    +0.162 A 
ATOM     20  C   UNL     1      -4.035   3.116 -21.193  0.00  0.00    +0.050 A 
ATOM     21  C   UNL     1      -2.747   2.943 -21.214  0.00  0.00    +0.010 A 
ATOM     22  C   UNL     1      -2.102   2.998 -22.343  0.00  0.00    -0.015 A 
ATOM     23  C   UNL     1      -2.747   3.224 -23.449  0.00  0.00    +0.055 A 
ATOM     24  C   UNL     1      -4.035   3.397 -23.428  0.00  0.00    +0.162 A 
BRANCH  19  26
ATOM     25  C   UNL     1      -6.731   2.638 -21.696  0.00  0.00    +0.277 C 
ATOM     26  O   UNL     1      -5.968   3.515 -22.278  0.00  0.00    -0.491 OA
ENDBRANCH  19  26
BRANCH  24  27
ATOM     27  O   UNL     1      -4.679   3.624 -24.534  0.00  0.00    -0.491 OA
ATOM     28  C   UNL     1      -4.090   3.435 -25.678  0.00  0.00    +0.277 C 
ENDBRANCH  24  27
ENDBRANCH   1  22
BRANCH   4  29
ATOM     29  O   UNL     1       2.420   2.611 -22.544  0.00  0.00    -0.383 OA
ATOM     30  H   UNL     1       2.558   2.441 -21.599  0.00  0.00    +0.210 HD
ENDBRANCH   4  29
TORSDOF 7
ENDMDL
MODEL 6
REMARK VINA RESULT:    -9.316      1.446      8.734
REMARK INTER + INTRA:          -9.971
REMARK INTER:                 -11.463
REMARK INTRA:                   1.492
REMARK UNBOUND:                 2.885
REMARK  Name = ZINC000001669371
REMARK  11 active torsions:
REMARK  status: ('A' for Active; 'I' for Inactive)
REMARK    1  A    between atoms: C_1  and  O_2
REMARK    2  A    between atoms: O_2  and  C_3
REMARK    3  A    between atoms: C_6  and  C_7
REMARK    4  A    between atoms: C_10  and  O_11
REMARK    5  A    between atoms: C_12  and  C_13
REMARK    6  A    between atoms: C_16  and  O_17
REMARK    7  A    between atoms: O_17  and  C_18
REMARK    8  A    between atoms: C_19  and  O_20
REMARK    9  A    between atoms: O_20  and  C_21
REMARK   10  A    between atoms: C_27  and  O_28
REMARK   11  A    between atoms: O_28  and  C_29
REMARK                            x       y       z     vdW  Elec       q    Type
REMARK                         _______ _______ _______ _____ _____    ______ ____
ROOT
ATOM      1  C   UNL     1       0.354   4.208 -23.371  0.00  0.00    +0.157 C 
ATOM      2  O   UNL     1       0.947   5.335 -23.632  0.00  0.00    -0.369 OA
ATOM      3  C   UNL     1       2.227   5.158 -23.496  0.00  0.00    +0.198 C 
ATOM      4  C   UNL     1       2.427   3.921 -23.149  0.00  0.00    +0.127 C 
ATOM      5  C   UNL     1       3.342   3.047 -22.850  0.00  0.00    +0.183 C 
ATOM      6  O   UNL     1       2.749   1.921 -22.588  0.00  0.00    -0.369 OA
ATOM      7  C   UNL     1       1.469   2.097 -22.725  0.00  0.00    +0.170 C 
ATOM      8  C   UNL     1       1.269   3.334 -23.072  0.00  0.00    +0.085 C 
ENDROOT
BRANCH   5   9
ATOM      9  C   UNL     1       4.623   3.263 -22.819  0.00  0.00    -0.012 A 
ATOM     10  C   UNL     1       5.323   3.183 -23.912  0.00  0.00    +0.010 A 
ATOM     11  C   UNL     1       6.605   3.399 -23.879  0.00  0.00    +0.050 A 
ATOM     12  C   UNL     1       7.186   3.695 -22.756  0.00  0.00    +0.162 A 
ATOM     13  C   UNL     1       6.486   3.775 -21.663  0.00  0.00    +0.162 A 
ATOM     14  C   UNL     1       5.205   3.559 -21.695  0.00  0.00    +0.055 A 
BRANCH  13  15
ATOM     15  O   UNL     1       7.068   4.071 -20.538  0.00  0.00    -0.491 OA
ATOM     16  C   UNL     1       7.145   5.310 -20.154  0.00  0.00    +0.277 C 
ENDBRANCH  13  15
BRANCH  12  17
ATOM     17  O   UNL     1       8.468   3.911 -22.724  0.00  0.00    -0.491 OA
ATOM     18  C   UNL     1       9.019   4.682 -23.614  0.00  0.00    +0.277 C 
ENDBRANCH  12  17
ENDBRANCH   5   9
BRANCH   1  22
ATOM     19  C   UNL     1      -3.490   3.561 -23.464  0.00  0.00    +0.162 A 
ATOM     20  C   UNL     1      -2.809   3.591 -24.571  0.00  0.00    +0.050 A 
ATOM     21  C   UNL     1      -1.527   3.807 -24.541  0.00  0.00    +0.010 A 
ATOM     22  C   UNL     1      -0.927   3.993 -23.402  0.00  0.00    -0.015 A 
ATOM     23  C   UNL     1      -1.608   3.962 -22.296  0.00  0.00    +0.055 A 
ATOM     24  C   UNL     1      -2.890   3.746 -22.326  0.00  0.00    +0.162 A 
BRANCH  19  26
ATOM     25  C   UNL     1      -5.519   3.989 -24.342  0.00  0.00    +0.277 C 
ATOM     26  O   UNL     1      -4.772   3.345 -23.495  0.00  0.00    -0.491 OA
ENDBRANCH  19  26
BRANCH  24  27
ATOM     27  O   UNL     1      -3.570   3.716 -21.219  0.00  0.00    -0.491 OA
ATOM     28  C   UNL     1      -2.952   3.740 -20.076  0.00  0.00    +0.277 C 
ENDBRANCH  24  27
ENDBRANCH   1  22
BRANCH   4  29
ATOM     29  O   UNL     1       3.584   4.508 -23.226  0.00  0.00    -0.383 OA
ATOM     30  H   UNL     1       3.804   4.903 -22.368  0.00  0.00    +0.210 HD
ENDBRANCH   4  29
TORSDOF 7
ENDMDL
MODEL 7
REMARK VINA RESULT:    -8.689      1.193      2.428
REMARK INTER + INTRA:          -9.105
REMARK INTER:                 -11.037
REMARK INTRA:                   1.932
REMARK UNBOUND:                 2.885
REMARK  Name = ZINC000001669371
REMARK  11 active torsions:
REMARK  status: ('A' for Active; 'I' for Inactive)
REMARK    1  A    between atoms: C_1  and  O_2
REMARK    2  A    between atoms: O_2  and  C_3
REMARK    3  A    between atoms: C_6  and  C_7
REMARK    4  A    between atoms: C_10  and  O_11
REMARK    5  A    between atoms: C_12  and  C_13
REMARK    6  A    between atoms: C_16  and  O_17
REMARK    7  A    between atoms: O_17  and  C_18
REMARK    8  A    between atoms: C_19  and  O_20
REMARK    9  A    between atoms: O_20  and  C_21
REMARK   10  A    between atoms: C_27  and  O_28
REMARK   11  A    between atoms: O_28  and  C_29
REMARK                            x       y       z     vdW  Elec       q    Type
REMARK                         _______ _______ _______ _____ _____    ______ ____
ROOT
ATOM      1  C   UNL     1       2.765   4.460 -23.199  0.00  0.00    +0.157 C 
ATOM      2  O   UNL     1       2.139   5.583 -23.391  0.00  0.00    -0.369 OA
ATOM      3  C   UNL     1       0.886   5.314 -23.603  0.00  0.00    +0.198 C 
ATOM      4  C   UNL     1       0.735   4.024 -23.542  0.00  0.00    +0.127 C 
ATOM      5  C   UNL     1      -0.133   3.060 -23.635  0.00  0.00    +0.183 C 
ATOM      6  O   UNL     1       0.493   1.938 -23.442  0.00  0.00    -0.369 OA
ATOM      7  C   UNL     1       1.746   2.206 -23.231  0.00  0.00    +0.170 C 
ATOM      8  C   UNL     1       1.897   3.496 -23.292  0.00  0.00    +0.085 C 
ENDROOT
BRANCH   5   9
ATOM      9  C   UNL     1      -1.402   3.197 -23.877  0.00  0.00    -0.012 A 
ATOM     10  C   UNL     1      -1.823   3.301 -25.104  0.00  0.00    +0.010 A 
ATOM     11  C   UNL     1      -3.093   3.437 -25.345  0.00  0.00    +0.050 A 
ATOM     12  C   UNL     1      -3.942   3.470 -24.362  0.00  0.00    +0.162 A 
ATOM     13  C   UNL     1      -3.522   3.366 -23.136  0.00  0.00    +0.162 A 
ATOM     14  C   UNL     1      -2.252   3.230 -22.894  0.00  0.00    +0.055 A 
BRANCH  13  15
ATOM     15  O   UNL     1      -4.371   3.399 -22.152  0.00  0.00    -0.491 OA
ATOM     16  C   UNL     1      -4.179   2.655 -21.103  0.00  0.00    +0.277 C 
ENDBRANCH  13  15
BRANCH  12  17
ATOM     17  O   UNL     1      -5.212   3.607 -24.604  0.00  0.00    -0.491 OA
ATOM     18  C   UNL     1      -5.679   3.347 -25.790  0.00  0.00    +0.277 C 
ENDBRANCH  12  17
ENDBRANCH   5   9
BRANCH   1  22
ATOM     19  C   UNL     1       6.574   4.050 -22.471  0.00  0.00    +0.162 A 
ATOM     20  C   UNL     1       6.080   5.230 -22.703  0.00  0.00    +0.050 A 
ATOM     21  C   UNL     1       4.810   5.367 -22.946  0.00  0.00    +0.010 A 
ATOM     22  C   UNL     1       4.034   4.324 -22.956  0.00  0.00    -0.015 A 
ATOM     23  C   UNL     1       4.529   3.144 -22.724  0.00  0.00    +0.055 A 
ATOM     24  C   UNL     1       5.798   3.007 -22.481  0.00  0.00    +0.162 A 
BRANCH  19  26
ATOM     25  C   UNL     1       8.592   4.965 -22.072  0.00  0.00    +0.277 C 
ATOM     26  O   UNL     1       7.844   3.913 -22.228  0.00  0.00    -0.491 OA
ENDBRANCH  19  26
BRANCH  24  27
ATOM     27  O   UNL     1       6.292   1.827 -22.249  0.00  0.00    -0.491 OA
ATOM     28  C   UNL     1       5.496   0.814 -22.067  0.00  0.00    +0.277 C 
ENDBRANCH  24  27
ENDBRANCH   1  22
BRANCH   4  29
ATOM     29  O   UNL     1      -0.426   4.552 -23.791  0.00  0.00    -0.383 OA
ATOM     30  H   UNL     1      -0.326   5.260 -24.447  0.00  0.00    +0.210 HD
ENDBRANCH   4  29
TORSDOF 7
ENDMDL
MODEL 8
REMARK VINA RESULT:    -6.999      1.212      8.869
REMARK INTER + INTRA:          -6.774
REMARK INTER:                  -9.927
REMARK INTRA:                   3.153
REMARK UNBOUND:                 2.885
REMARK  Name = ZINC000001669371
REMARK  11 active torsions:
REMARK  status: ('A' for Active; 'I' for Inactive)
REMARK    1  A    between atoms: C_1  and  O_2
REMARK    2  A    between atoms: O_2  and  C_3
REMARK    3  A    between atoms: C_6  and  C_7
REMARK    4  A    between atoms: C_10  and  O_11
REMARK    5  A    between atoms: C_12  and  C_13
REMARK    6  A    between atoms: C_16  and  O_17
REMARK    7  A    between atoms: O_17  and  C_18
REMARK    8  A    between atoms: C_19  and  O_20
REMARK    9  A    between atoms: O_20  and  C_21
REMARK   10  A    between atoms: C_27  and  O_28
REMARK   11  A    between atoms: O_28  and  C_29
REMARK                            x       y       z     vdW  Elec       q    Type
REMARK                         _______ _______ _______ _____ _____    ______ ____
ROOT
ATOM      1  C   UNL     1       0.535   3.300 -23.155  0.00  0.00    +0.157 C 
ATOM      2  O   UNL     1       1.255   2.243 -22.924  0.00  0.00    -0.369 OA
ATOM      3  C   UNL     1       2.500   2.610 -22.857  0.00  0.00    +0.198 C 
ATOM      4  C   UNL     1       2.551   3.895 -23.047  0.00  0.00    +0.127 C 
ATOM      5  C   UNL     1       3.351   4.917 -23.123  0.00  0.00    +0.183 C 
ATOM      6  O   UNL     1       2.631   5.974 -23.354  0.00  0.00    -0.369 OA
ATOM      7  C   UNL     1       1.386   5.606 -23.421  0.00  0.00    +0.170 C 
ATOM      8  C   UNL     1       1.336   4.321 -23.231  0.00  0.00    +0.085 C 
ENDROOT
BRANCH   5   9
ATOM      9  C   UNL     1       4.643   4.886 -22.991  0.00  0.00    -0.012 A 
ATOM     10  C   UNL     1       5.216   5.558 -22.035  0.00  0.00    +0.010 A 
ATOM     11  C   UNL     1       6.509   5.526 -21.905  0.00  0.00    +0.050 A 
ATOM     12  C   UNL     1       7.229   4.823 -22.727  0.00  0.00    +0.162 A 
ATOM     13  C   UNL     1       6.657   4.151 -23.682  0.00  0.00    +0.162 A 
ATOM     14  C   UNL     1       5.364   4.183 -23.813  0.00  0.00    +0.055 A 
BRANCH  13  15
ATOM     15  O   UNL     1       7.377   3.448 -24.504  0.00  0.00    -0.491 OA
ATOM     16  C   UNL     1       8.326   2.685 -24.048  0.00  0.00    +0.277 C 
ENDBRANCH  13  15
BRANCH  12  17
ATOM     17  O   UNL     1       8.522   4.792 -22.595  0.00  0.00    -0.491 OA
ATOM     18  C   UNL     1       9.062   5.014 -21.433  0.00  0.00    +0.277 C 
ENDBRANCH  12  17
ENDBRANCH   5   9
BRANCH   1  22
ATOM     19  C   UNL     1      -3.343   3.393 -23.552  0.00  0.00    +0.162 A 
ATOM     20  C   UNL     1      -2.793   3.792 -22.443  0.00  0.00    +0.050 A 
ATOM     21  C   UNL     1      -1.501   3.761 -22.310  0.00  0.00    +0.010 A 
ATOM     22  C   UNL     1      -0.757   3.331 -23.287  0.00  0.00    -0.015 A 
ATOM     23  C   UNL     1      -1.307   2.932 -24.395  0.00  0.00    +0.055 A 
ATOM     24  C   UNL     1      -2.600   2.963 -24.528  0.00  0.00    +0.162 A 
BRANCH  19  26
ATOM     25  C   UNL     1      -5.399   3.353 -22.634  0.00  0.00    +0.277 C 
ATOM     26  O   UNL     1      -4.636   3.424 -23.684  0.00  0.00    -0.491 OA
ENDBRANCH  19  26
BRANCH  24  27
ATOM     27  O   UNL     1      -3.149   2.563 -25.637  0.00  0.00    -0.491 OA
ATOM     28  C   UNL     1      -3.577   3.436 -26.500  0.00  0.00    +0.277 C 
ENDBRANCH  24  27
ENDBRANCH   1  22
BRANCH   4  29
ATOM     29  O   UNL     1       3.764   3.469 -22.862  0.00  0.00    -0.383 OA
ATOM     30  H   UNL     1       4.382   4.027 -23.361  0.00  0.00    +0.210 HD
ENDBRANCH   4  29
TORSDOF 7
ENDMDL
