MODEL 1
REMARK VINA RESULT:    -9.752      0.000      0.000
REMARK INTER + INTRA:          -9.752
REMARK INTER:                  -9.752
REMARK INTRA:                   0.000
REMARK UNBOUND:                 0.000
REMARK  Name = ZINC000004104809
REMARK  3 active torsions:
REMARK  status: ('A' for Active; 'I' for Inactive)
REMARK    1  A    between atoms: C_1  and  C_2
REMARK    2  A    between atoms: C_10  and  C_11
REMARK    3  A    between atoms: C_15  and  C_16
REMARK                            x       y       z     vdW  Elec       q    Type
REMARK                         _______ _______ _______ _____ _____    ______ ____
ROOT
ATOM      1  C   UNL     1      -0.247   2.269 -22.340  0.00  0.00    +0.019 C 
ATOM      2  C   UNL     1      -0.616   2.774 -23.480  0.00  0.00    +0.101 C 
ATOM      3  C   UNL     1       0.155   2.992 -24.504  0.00  0.00    +0.311 C 
ATOM      4  O   UNL     1      -0.572   3.503 -25.453  0.00  0.00    -0.458 OA
ATOM      5  C   UNL     1      -1.792   3.601 -25.015  0.00  0.00    +0.212 C 
ATOM      6  C   UNL     1      -2.882   4.042 -25.569  0.00  0.00    +0.191 C 
ATOM      7  O   UNL     1      -3.973   4.484 -26.123  0.00  0.00    -0.361 OA
ATOM      8  C   UNL     1      -3.999   4.034 -24.904  0.00  0.00    +0.097 C 
ATOM      9  C   UNL     1      -5.273   4.283 -24.839  0.00  0.00    +0.044 C 
ATOM     10  C   UNL     1      -4.026   3.583 -23.685  0.00  0.00    +0.037 C 
ATOM     11  C   UNL     1      -5.143   3.574 -23.019  0.00  0.00    +0.003 C 
ATOM     12  C   UNL     1      -5.169   3.124 -21.800  0.00  0.00    +0.003 C 
ATOM     13  C   UNL     1      -4.079   2.683 -21.246  0.00  0.00    -0.014 C 
ATOM     14  C   UNL     1      -4.106   2.232 -20.027  0.00  0.00    +0.007 C 
ATOM     15  C   UNL     1      -2.963   2.691 -21.911  0.00  0.00    +0.004 C 
ATOM     16  C   UNL     1      -2.936   3.142 -23.131  0.00  0.00    +0.008 C 
ATOM     17  O   UNL     1       1.429   2.742 -24.569  0.00  0.00    -0.251 OA
ATOM     18  C   UNL     1      -1.819   3.151 -23.796  0.00  0.00    +0.046 C 
ENDROOT
TORSDOF 0
ENDMDL
MODEL 2
REMARK VINA RESULT:    -9.750      1.941      3.503
REMARK INTER + INTRA:          -9.750
REMARK INTER:                  -9.750
REMARK INTRA:                   0.000
REMARK UNBOUND:                 0.000
REMARK  Name = ZINC000004104809
REMARK  3 active torsions:
REMARK  status: ('A' for Active; 'I' for Inactive)
REMARK    1  A    between atoms: C_1  and  C_2
REMARK    2  A    between atoms: C_10  and  C_11
REMARK    3  A    between atoms: C_15  and  C_16
REMARK                            x       y       z     vdW  Elec       q    Type
REMARK                         _______ _______ _______ _____ _____    ______ ____
ROOT
ATOM      1  C   UNL     1       0.170   2.623 -24.407  0.00  0.00    +0.019 C 
ATOM      2  C   UNL     1      -0.396   2.550 -23.239  0.00  0.00    +0.101 C 
ATOM      3  C   UNL     1       0.195   2.252 -22.121  0.00  0.00    +0.311 C 
ATOM      4  O   UNL     1      -0.696   2.280 -21.175  0.00  0.00    -0.458 OA
ATOM      5  C   UNL     1      -1.839   2.596 -21.709  0.00  0.00    +0.212 C 
ATOM      6  C   UNL     1      -3.024   2.753 -21.199  0.00  0.00    +0.191 C 
ATOM      7  O   UNL     1      -4.209   2.910 -20.688  0.00  0.00    -0.361 OA
ATOM      8  C   UNL     1      -4.023   3.077 -21.964  0.00  0.00    +0.097 C 
ATOM      9  C   UNL     1      -5.284   3.355 -22.111  0.00  0.00    +0.044 C 
ATOM     10  C   UNL     1      -3.837   3.244 -23.239  0.00  0.00    +0.037 C 
ATOM     11  C   UNL     1      -4.837   3.568 -24.005  0.00  0.00    +0.003 C 
ATOM     12  C   UNL     1      -4.651   3.735 -25.281  0.00  0.00    +0.003 C 
ATOM     13  C   UNL     1      -3.466   3.578 -25.791  0.00  0.00    -0.014 C 
ATOM     14  C   UNL     1      -3.280   3.745 -27.067  0.00  0.00    +0.007 C 
ATOM     15  C   UNL     1      -2.467   3.254 -25.026  0.00  0.00    +0.004 C 
ATOM     16  C   UNL     1      -2.652   3.087 -23.750  0.00  0.00    +0.008 C 
ATOM     17  O   UNL     1       1.456   1.974 -21.973  0.00  0.00    -0.251 OA
ATOM     18  C   UNL     1      -1.653   2.763 -22.985  0.00  0.00    +0.046 C 
ENDROOT
TORSDOF 0
ENDMDL
MODEL 3
REMARK VINA RESULT:    -9.591      1.674      4.164
REMARK INTER + INTRA:          -9.591
REMARK INTER:                  -9.591
REMARK INTRA:                   0.000
REMARK UNBOUND:                 0.000
REMARK  Name = ZINC000004104809
REMARK  3 active torsions:
REMARK  status: ('A' for Active; 'I' for Inactive)
REMARK    1  A    between atoms: C_1  and  C_2
REMARK    2  A    between atoms: C_10  and  C_11
REMARK    3  A    between atoms: C_15  and  C_16
REMARK                            x       y       z     vdW  Elec       q    Type
REMARK                         _______ _______ _______ _____ _____    ______ ____
ROOT
ATOM      1  C   UNL     1      -3.938   2.429 -20.662  0.00  0.00    +0.019 C 
ATOM      2  C   UNL     1      -4.123   2.873 -21.870  0.00  0.00    +0.101 C 
ATOM      3  C   UNL     1      -5.253   3.274 -22.372  0.00  0.00    +0.311 C 
ATOM      4  O   UNL     1      -5.039   3.643 -23.600  0.00  0.00    -0.458 OA
ATOM      5  C   UNL     1      -3.776   3.469 -23.857  0.00  0.00    +0.212 C 
ATOM      6  C   UNL     1      -3.069   3.683 -24.927  0.00  0.00    +0.191 C 
ATOM      7  O   UNL     1      -2.362   3.896 -25.996  0.00  0.00    -0.361 OA
ATOM      8  C   UNL     1      -1.796   3.421 -24.927  0.00  0.00    +0.097 C 
ATOM      9  C   UNL     1      -0.653   3.393 -25.544  0.00  0.00    +0.044 C 
ATOM     10  C   UNL     1      -1.230   2.945 -23.858  0.00  0.00    +0.037 C 
ATOM     11  C   UNL     1       0.043   2.683 -23.858  0.00  0.00    +0.003 C 
ATOM     12  C   UNL     1       0.609   2.207 -22.789  0.00  0.00    +0.003 C 
ATOM     13  C   UNL     1      -0.098   1.993 -21.719  0.00  0.00    -0.014 C 
ATOM     14  C   UNL     1       0.467   1.517 -20.650  0.00  0.00    +0.007 C 
ATOM     15  C   UNL     1      -1.371   2.255 -21.719  0.00  0.00    +0.004 C 
ATOM     16  C   UNL     1      -1.938   2.731 -22.788  0.00  0.00    +0.008 C 
ATOM     17  O   UNL     1      -6.396   3.302 -21.754  0.00  0.00    -0.251 OA
ATOM     18  C   UNL     1      -3.211   2.993 -22.788  0.00  0.00    +0.046 C 
ENDROOT
TORSDOF 0
ENDMDL
MODEL 4
REMARK VINA RESULT:    -9.152      1.102      3.437
REMARK INTER + INTRA:          -9.152
REMARK INTER:                  -9.152
REMARK INTRA:                   0.000
REMARK UNBOUND:                 0.000
REMARK  Name = ZINC000004104809
REMARK  3 active torsions:
REMARK  status: ('A' for Active; 'I' for Inactive)
REMARK    1  A    between atoms: C_1  and  C_2
REMARK    2  A    between atoms: C_10  and  C_11
REMARK    3  A    between atoms: C_15  and  C_16
REMARK                            x       y       z     vdW  Elec       q    Type
REMARK                         _______ _______ _______ _____ _____    ______ ____
ROOT
ATOM      1  C   UNL     1      -4.897   3.496 -25.628  0.00  0.00    +0.019 C 
ATOM      2  C   UNL     1      -3.604   3.407 -25.530  0.00  0.00    +0.101 C 
ATOM      3  C   UNL     1      -2.754   3.524 -26.506  0.00  0.00    +0.311 C 
ATOM      4  O   UNL     1      -1.558   3.375 -26.018  0.00  0.00    -0.458 OA
ATOM      5  C   UNL     1      -1.669   3.166 -24.740  0.00  0.00    +0.212 C 
ATOM      6  C   UNL     1      -0.783   2.960 -23.812  0.00  0.00    +0.191 C 
ATOM      7  O   UNL     1       0.104   2.755 -22.884  0.00  0.00    -0.361 OA
ATOM      8  C   UNL     1      -1.160   2.774 -22.582  0.00  0.00    +0.097 C 
ATOM      9  C   UNL     1      -0.866   2.548 -21.337  0.00  0.00    +0.044 C 
ATOM     10  C   UNL     1      -2.424   2.794 -22.281  0.00  0.00    +0.037 C 
ATOM     11  C   UNL     1      -2.802   2.608 -21.050  0.00  0.00    +0.003 C 
ATOM     12  C   UNL     1      -4.066   2.628 -20.749  0.00  0.00    +0.003 C 
ATOM     13  C   UNL     1      -4.953   2.834 -21.677  0.00  0.00    -0.014 C 
ATOM     14  C   UNL     1      -6.217   2.854 -21.375  0.00  0.00    +0.007 C 
ATOM     15  C   UNL     1      -4.576   3.020 -22.906  0.00  0.00    +0.004 C 
ATOM     16  C   UNL     1      -3.311   3.000 -23.209  0.00  0.00    +0.008 C 
ATOM     17  O   UNL     1      -3.048   3.750 -27.752  0.00  0.00    -0.251 OA
ATOM     18  C   UNL     1      -2.934   3.186 -24.438  0.00  0.00    +0.046 C 
ENDROOT
TORSDOF 0
ENDMDL
MODEL 5
REMARK VINA RESULT:    -9.127      1.921      3.679
REMARK INTER + INTRA:          -9.127
REMARK INTER:                  -9.127
REMARK INTRA:                   0.000
REMARK UNBOUND:                 0.000
REMARK  Name = ZINC000004104809
REMARK  3 active torsions:
REMARK  status: ('A' for Active; 'I' for Inactive)
REMARK    1  A    between atoms: C_1  and  C_2
REMARK    2  A    between atoms: C_10  and  C_11
REMARK    3  A    between atoms: C_15  and  C_16
REMARK                            x       y       z     vdW  Elec       q    Type
REMARK                         _______ _______ _______ _____ _____    ______ ____
ROOT
ATOM      1  C   UNL     1      -1.582   3.472 -25.944  0.00  0.00    +0.019 C 
ATOM      2  C   UNL     1      -2.799   3.658 -25.527  0.00  0.00    +0.101 C 
ATOM      3  C   UNL     1      -3.797   4.081 -26.246  0.00  0.00    +0.311 C 
ATOM      4  O   UNL     1      -4.847   4.138 -25.482  0.00  0.00    -0.458 OA
ATOM      5  C   UNL     1      -4.499   3.750 -24.291  0.00  0.00    +0.212 C 
ATOM      6  C   UNL     1      -5.170   3.629 -23.185  0.00  0.00    +0.191 C 
ATOM      7  O   UNL     1      -5.842   3.507 -22.079  0.00  0.00    -0.361 OA
ATOM      8  C   UNL     1      -4.577   3.210 -22.107  0.00  0.00    +0.097 C 
ATOM      9  C   UNL     1      -4.622   2.899 -20.846  0.00  0.00    +0.044 C 
ATOM     10  C   UNL     1      -3.312   2.914 -22.135  0.00  0.00    +0.037 C 
ATOM     11  C   UNL     1      -2.718   2.495 -21.057  0.00  0.00    +0.003 C 
ATOM     12  C   UNL     1      -1.453   2.199 -21.085  0.00  0.00    +0.003 C 
ATOM     13  C   UNL     1      -0.781   2.320 -22.191  0.00  0.00    -0.014 C 
ATOM     14  C   UNL     1       0.484   2.024 -22.220  0.00  0.00    +0.007 C 
ATOM     15  C   UNL     1      -1.374   2.739 -23.269  0.00  0.00    +0.004 C 
ATOM     16  C   UNL     1      -2.640   3.035 -23.242  0.00  0.00    +0.008 C 
ATOM     17  O   UNL     1      -3.752   4.393 -27.507  0.00  0.00    -0.251 OA
ATOM     18  C   UNL     1      -3.233   3.454 -24.320  0.00  0.00    +0.046 C 
ENDROOT
TORSDOF 0
ENDMDL
MODEL 6
REMARK VINA RESULT:    -8.839      2.272      3.979
REMARK INTER + INTRA:          -8.839
REMARK INTER:                  -8.839
REMARK INTRA:                   0.000
REMARK UNBOUND:                 0.000
REMARK  Name = ZINC000004104809
REMARK  3 active torsions:
REMARK  status: ('A' for Active; 'I' for Inactive)
REMARK    1  A    between atoms: C_1  and  C_2
REMARK    2  A    between atoms: C_10  and  C_11
REMARK    3  A    between atoms: C_15  and  C_16
REMARK                            x       y       z     vdW  Elec       q    Type
REMARK                         _______ _______ _______ _____ _____    ______ ____
ROOT
ATOM      1  C   UNL     1       0.808   1.423 -20.374  0.00  0.00    +0.019 C 
ATOM      2  C   UNL     1       1.443   1.486 -21.507  0.00  0.00    +0.101 C 
ATOM      3  C   UNL     1       2.602   0.956 -21.763  0.00  0.00    +0.311 C 
ATOM      4  O   UNL     1       2.906   1.231 -22.996  0.00  0.00    -0.458 OA
ATOM      5  C   UNL     1       1.935   1.931 -23.502  0.00  0.00    +0.212 C 
ATOM      6  C   UNL     1       1.757   2.446 -24.683  0.00  0.00    +0.191 C 
ATOM      7  O   UNL     1       1.579   2.961 -25.863  0.00  0.00    -0.361 OA
ATOM      8  C   UNL     1       0.675   3.118 -24.942  0.00  0.00    +0.097 C 
ATOM      9  C   UNL     1      -0.052   3.803 -25.773  0.00  0.00    +0.044 C 
ATOM     10  C   UNL     1      -0.228   3.275 -24.022  0.00  0.00    +0.037 C 
ATOM     11  C   UNL     1      -1.311   3.948 -24.281  0.00  0.00    +0.003 C 
ATOM     12  C   UNL     1      -2.215   4.105 -23.360  0.00  0.00    +0.003 C 
ATOM     13  C   UNL     1      -2.037   3.590 -22.180  0.00  0.00    -0.014 C 
ATOM     14  C   UNL     1      -2.941   3.747 -21.259  0.00  0.00    +0.007 C 
ATOM     15  C   UNL     1      -0.955   2.918 -21.920  0.00  0.00    +0.004 C 
ATOM     16  C   UNL     1      -0.051   2.761 -22.841  0.00  0.00    +0.008 C 
ATOM     17  O   UNL     1       3.330   0.270 -20.932  0.00  0.00    -0.251 OA
ATOM     18  C   UNL     1       1.031   2.089 -22.582  0.00  0.00    +0.046 C 
ENDROOT
TORSDOF 0
ENDMDL
MODEL 7
REMARK VINA RESULT:    -8.681      2.279      5.695
REMARK INTER + INTRA:          -8.681
REMARK INTER:                  -8.681
REMARK INTRA:                   0.000
REMARK UNBOUND:                 0.000
REMARK  Name = ZINC000004104809
REMARK  3 active torsions:
REMARK  status: ('A' for Active; 'I' for Inactive)
REMARK    1  A    between atoms: C_1  and  C_2
REMARK    2  A    between atoms: C_10  and  C_11
REMARK    3  A    between atoms: C_15  and  C_16
REMARK                            x       y       z     vdW  Elec       q    Type
REMARK                         _______ _______ _______ _____ _____    ______ ____
ROOT
ATOM      1  C   UNL     1      -2.913   3.989 -24.199  0.00  0.00    +0.019 C 
ATOM      2  C   UNL     1      -2.672   3.291 -23.128  0.00  0.00    +0.101 C 
ATOM      3  C   UNL     1      -3.551   2.917 -22.247  0.00  0.00    +0.311 C 
ATOM      4  O   UNL     1      -2.933   2.240 -21.325  0.00  0.00    -0.458 OA
ATOM      5  C   UNL     1      -1.671   2.197 -21.637  0.00  0.00    +0.212 C 
ATOM      6  C   UNL     1      -0.649   1.650 -21.050  0.00  0.00    +0.191 C 
ATOM      7  O   UNL     1       0.374   1.103 -20.463  0.00  0.00    -0.361 OA
ATOM      8  C   UNL     1       0.535   1.753 -21.578  0.00  0.00    +0.097 C 
ATOM      9  C   UNL     1       1.809   1.496 -21.544  0.00  0.00    +0.044 C 
ATOM     10  C   UNL     1       0.695   2.402 -22.692  0.00  0.00    +0.037 C 
ATOM     11  C   UNL     1       1.879   2.505 -23.220  0.00  0.00    +0.003 C 
ATOM     12  C   UNL     1       2.040   3.155 -24.334  0.00  0.00    +0.003 C 
ATOM     13  C   UNL     1       1.017   3.702 -24.921  0.00  0.00    -0.014 C 
ATOM     14  C   UNL     1       1.177   4.352 -26.035  0.00  0.00    +0.007 C 
ATOM     15  C   UNL     1      -0.166   3.599 -24.394  0.00  0.00    +0.004 C 
ATOM     16  C   UNL     1      -0.328   2.949 -23.279  0.00  0.00    +0.008 C 
ATOM     17  O   UNL     1      -4.825   3.173 -22.281  0.00  0.00    -0.251 OA
ATOM     18  C   UNL     1      -1.511   2.847 -22.751  0.00  0.00    +0.046 C 
ENDROOT
TORSDOF 0
ENDMDL
MODEL 8
REMARK VINA RESULT:    -8.294      2.225      4.451
REMARK INTER + INTRA:          -8.294
REMARK INTER:                  -8.294
REMARK INTRA:                   0.000
REMARK UNBOUND:                 0.000
REMARK  Name = ZINC000004104809
REMARK  3 active torsions:
REMARK  status: ('A' for Active; 'I' for Inactive)
REMARK    1  A    between atoms: C_1  and  C_2
REMARK    2  A    between atoms: C_10  and  C_11
REMARK    3  A    between atoms: C_15  and  C_16
REMARK                            x       y       z     vdW  Elec       q    Type
REMARK                         _______ _______ _______ _____ _____    ______ ____
ROOT
ATOM      1  C   UNL     1      -4.847   3.383 -21.768  0.00  0.00    +0.019 C 
ATOM      2  C   UNL     1      -3.557   3.407 -21.604  0.00  0.00    +0.101 C 
ATOM      3  C   UNL     1      -2.932   3.414 -20.464  0.00  0.00    +0.311 C 
ATOM      4  O   UNL     1      -1.655   3.439 -20.706  0.00  0.00    -0.458 OA
ATOM      5  C   UNL     1      -1.492   3.448 -21.996  0.00  0.00    +0.212 C 
ATOM      6  C   UNL     1      -0.424   3.472 -22.737  0.00  0.00    +0.191 C 
ATOM      7  O   UNL     1       0.644   3.495 -23.478  0.00  0.00    -0.361 OA
ATOM      8  C   UNL     1      -0.531   3.475 -24.032  0.00  0.00    +0.097 C 
ATOM      9  C   UNL     1       0.023   3.491 -25.208  0.00  0.00    +0.044 C 
ATOM     10  C   UNL     1      -1.706   3.455 -24.586  0.00  0.00    +0.037 C 
ATOM     11  C   UNL     1      -1.814   3.458 -25.882  0.00  0.00    +0.003 C 
ATOM     12  C   UNL     1      -2.990   3.438 -26.437  0.00  0.00    +0.003 C 
ATOM     13  C   UNL     1      -4.058   3.415 -25.696  0.00  0.00    -0.014 C 
ATOM     14  C   UNL     1      -5.233   3.395 -26.250  0.00  0.00    +0.007 C 
ATOM     15  C   UNL     1      -3.950   3.411 -24.401  0.00  0.00    +0.004 C 
ATOM     16  C   UNL     1      -2.774   3.431 -23.846  0.00  0.00    +0.008 C 
ATOM     17  O   UNL     1      -3.487   3.398 -19.289  0.00  0.00    -0.251 OA
ATOM     18  C   UNL     1      -2.667   3.428 -22.550  0.00  0.00    +0.046 C 
ENDROOT
TORSDOF 0
ENDMDL
MODEL 9
REMARK VINA RESULT:    -8.258      2.072      4.098
REMARK INTER + INTRA:          -8.258
REMARK INTER:                  -8.258
REMARK INTRA:                   0.000
REMARK UNBOUND:                 0.000
REMARK  Name = ZINC000004104809
REMARK  3 active torsions:
REMARK  status: ('A' for Active; 'I' for Inactive)
REMARK    1  A    between atoms: C_1  and  C_2
REMARK    2  A    between atoms: C_10  and  C_11
REMARK    3  A    between atoms: C_15  and  C_16
REMARK                            x       y       z     vdW  Elec       q    Type
REMARK                         _______ _______ _______ _____ _____    ______ ____
ROOT
ATOM      1  C   UNL     1      -1.528   2.614 -20.974  0.00  0.00    +0.019 C 
ATOM      2  C   UNL     1      -2.659   2.796 -21.589  0.00  0.00    +0.101 C 
ATOM      3  C   UNL     1      -3.840   2.740 -21.048  0.00  0.00    +0.311 C 
ATOM      4  O   UNL     1      -4.719   2.975 -21.978  0.00  0.00    -0.458 OA
ATOM      5  C   UNL     1      -4.080   3.177 -23.092  0.00  0.00    +0.212 C 
ATOM      6  C   UNL     1      -4.493   3.447 -24.294  0.00  0.00    +0.191 C 
ATOM      7  O   UNL     1      -4.907   3.717 -25.497  0.00  0.00    -0.361 OA
ATOM      8  C   UNL     1      -3.634   3.606 -25.256  0.00  0.00    +0.097 C 
ATOM      9  C   UNL     1      -3.376   3.854 -26.506  0.00  0.00    +0.044 C 
ATOM     10  C   UNL     1      -2.362   3.495 -25.016  0.00  0.00    +0.037 C 
ATOM     11  C   UNL     1      -1.502   3.655 -25.978  0.00  0.00    +0.003 C 
ATOM     12  C   UNL     1      -0.229   3.544 -25.738  0.00  0.00    +0.003 C 
ATOM     13  C   UNL     1       0.184   3.274 -24.535  0.00  0.00    -0.014 C 
ATOM     14  C   UNL     1       1.457   3.163 -24.294  0.00  0.00    +0.007 C 
ATOM     15  C   UNL     1      -0.675   3.114 -23.573  0.00  0.00    +0.004 C 
ATOM     16  C   UNL     1      -1.948   3.225 -23.813  0.00  0.00    +0.008 C 
ATOM     17  O   UNL     1      -4.098   2.492 -19.799  0.00  0.00    -0.251 OA
ATOM     18  C   UNL     1      -2.808   3.066 -22.851  0.00  0.00    +0.046 C 
ENDROOT
TORSDOF 0
ENDMDL
