MODEL 1
REMARK VINA RESULT:   -11.574      0.000      0.000
REMARK INTER + INTRA:         -13.298
REMARK INTER:                 -12.849
REMARK INTRA:                  -0.450
REMARK UNBOUND:                -0.371
REMARK  Name = ZINC000036020290
REMARK  4 active torsions:
REMARK  status: ('A' for Active; 'I' for Inactive)
REMARK    1  A    between atoms: C_1  and  C_2
REMARK    2  A    between atoms: C_7  and  C_8
REMARK    3  A    between atoms: C_12  and  C_13
REMARK    4  A    between atoms: C_13  and  N_14
REMARK                            x       y       z     vdW  Elec       q    Type
REMARK                         _______ _______ _______ _____ _____    ______ ____
ROOT
ATOM      1  C   UNL     1      -4.059   2.476 -20.497  0.00  0.00    +0.039 C 
ATOM      2  C   UNL     1      -4.348   2.912 -21.687  0.00  0.00    -0.067 C 
ATOM      3  C   UNL     1      -5.516   3.316 -22.091  0.00  0.00    -0.024 C 
ATOM      4  C   UNL     1      -5.410   3.674 -23.336  0.00  0.00    +0.065 C 
ATOM      5  C   UNL     1      -4.176   3.493 -23.702  0.00  0.00    +0.112 C 
ATOM      6  O   UNL     1      -4.987   3.964 -24.602  0.00  0.00    -0.360 OA
ATOM      7  C   UNL     1      -3.738   3.756 -24.897  0.00  0.00    +0.097 C 
ATOM      8  C   UNL     1      -2.534   3.614 -25.368  0.00  0.00    +0.038 C 
ATOM      9  C   UNL     1      -1.473   3.174 -24.762  0.00  0.00    +0.011 C 
ATOM     10  C   UNL     1      -1.351   2.766 -23.533  0.00  0.00    +0.049 C 
ATOM     11  C   UNL     1      -0.233   2.342 -23.026  0.00  0.00    +0.149 C 
ATOM     12  C   UNL     1      -0.451   2.013 -21.788  0.00  0.00    +0.316 C 
ATOM     13  O   UNL     1      -1.706   2.233 -21.530  0.00  0.00    -0.460 OA
ATOM     14  O   UNL     1       0.430   1.545 -20.954  0.00  0.00    -0.250 OA
ATOM     15  C   UNL     1      -2.263   2.698 -22.608  0.00  0.00    +0.190 C 
ATOM     16  C   UNL     1      -4.046   4.195 -26.081  0.00  0.00    +0.044 C 
ATOM     17  C   UNL     1      -3.520   3.022 -22.683  0.00  0.00    +0.090 C 
ENDROOT
BRANCH  11  18
ATOM     18  C   UNL     1       0.907   2.262 -23.648  0.00  0.00    +0.146 C 
BRANCH  18  19
ATOM     19  N   UNL     1       1.836   3.141 -23.419  0.00  0.00    +0.236 N 
ATOM     20  H   UNL     1       2.803   3.364 -23.182  0.00  0.00    +0.203 HD
ATOM     21  C   UNL     1       3.041   2.751 -23.124  0.00  0.00    +0.131 C 
ATOM     22  C   UNL     1       3.971   3.630 -22.895  0.00  0.00    +0.051 C 
ATOM     23  C   UNL     1       3.696   4.899 -22.960  0.00  0.00    +0.010 C 
ATOM     24  C   UNL     1       2.491   5.289 -23.255  0.00  0.00    +0.051 C 
ATOM     25  C   UNL     1       1.561   4.410 -23.484  0.00  0.00    +0.131 C 
ENDBRANCH  18  19
ENDBRANCH  11  18
TORSDOF 2
ENDMDL
MODEL 2
REMARK VINA RESULT:   -11.095      1.657      2.880
REMARK INTER + INTRA:         -12.762
REMARK INTER:                 -12.304
REMARK INTRA:                  -0.459
REMARK UNBOUND:                -0.371
REMARK  Name = ZINC000036020290
REMARK  4 active torsions:
REMARK  status: ('A' for Active; 'I' for Inactive)
REMARK    1  A    between atoms: C_1  and  C_2
REMARK    2  A    between atoms: C_7  and  C_8
REMARK    3  A    between atoms: C_12  and  C_13
REMARK    4  A    between atoms: C_13  and  N_14
REMARK                            x       y       z     vdW  Elec       q    Type
REMARK                         _______ _______ _______ _____ _____    ______ ____
ROOT
ATOM      1  C   UNL     1      -3.296   4.118 -26.285  0.00  0.00    +0.039 C 
ATOM      2  C   UNL     1      -3.704   3.886 -25.073  0.00  0.00    -0.067 C 
ATOM      3  C   UNL     1      -4.923   4.019 -24.639  0.00  0.00    -0.024 C 
ATOM      4  C   UNL     1      -4.939   3.696 -23.380  0.00  0.00    +0.065 C 
ATOM      5  C   UNL     1      -3.730   3.363 -23.036  0.00  0.00    +0.112 C 
ATOM      6  O   UNL     1      -4.636   3.304 -22.106  0.00  0.00    -0.360 OA
ATOM      7  C   UNL     1      -3.406   2.985 -21.835  0.00  0.00    +0.097 C 
ATOM      8  C   UNL     1      -2.238   2.633 -21.384  0.00  0.00    +0.038 C 
ATOM      9  C   UNL     1      -1.108   2.570 -22.021  0.00  0.00    +0.011 C 
ATOM     10  C   UNL     1      -0.864   2.844 -23.269  0.00  0.00    +0.049 C 
ATOM     11  C   UNL     1       0.314   2.746 -23.807  0.00  0.00    +0.149 C 
ATOM     12  C   UNL     1       0.216   3.090 -25.057  0.00  0.00    +0.316 C 
ATOM     13  O   UNL     1      -1.024   3.401 -25.291  0.00  0.00    -0.460 OA
ATOM     14  O   UNL     1       1.187   3.118 -25.920  0.00  0.00    -0.250 OA
ATOM     15  C   UNL     1      -1.692   3.249 -24.186  0.00  0.00    +0.190 C 
ATOM     16  C   UNL     1      -3.833   2.759 -20.628  0.00  0.00    +0.044 C 
ATOM     17  C   UNL     1      -2.968   3.480 -24.083  0.00  0.00    +0.090 C 
ENDROOT
BRANCH  11  18
ATOM     18  C   UNL     1       1.402   2.369 -23.201  0.00  0.00    +0.146 C 
BRANCH  18  19
ATOM     19  N   UNL     1       2.445   3.145 -23.196  0.00  0.00    +0.236 N 
ATOM     20  H   UNL     1       3.453   3.272 -23.297  0.00  0.00    +0.203 HD
ATOM     21  C   UNL     1       3.625   2.648 -23.423  0.00  0.00    +0.131 C 
ATOM     22  C   UNL     1       4.668   3.423 -23.418  0.00  0.00    +0.051 C 
ATOM     23  C   UNL     1       4.532   4.695 -23.186  0.00  0.00    +0.010 C 
ATOM     24  C   UNL     1       3.352   5.192 -22.959  0.00  0.00    +0.051 C 
ATOM     25  C   UNL     1       2.309   4.416 -22.964  0.00  0.00    +0.131 C 
ENDBRANCH  18  19
ENDBRANCH  11  18
TORSDOF 2
ENDMDL
MODEL 3
REMARK VINA RESULT:    -9.661      1.870      6.570
REMARK INTER + INTRA:         -11.161
REMARK INTER:                 -11.030
REMARK INTRA:                  -0.131
REMARK UNBOUND:                -0.371
REMARK  Name = ZINC000036020290
REMARK  4 active torsions:
REMARK  status: ('A' for Active; 'I' for Inactive)
REMARK    1  A    between atoms: C_1  and  C_2
REMARK    2  A    between atoms: C_7  and  C_8
REMARK    3  A    between atoms: C_12  and  C_13
REMARK    4  A    between atoms: C_13  and  N_14
REMARK                            x       y       z     vdW  Elec       q    Type
REMARK                         _______ _______ _______ _____ _____    ______ ____
ROOT
ATOM      1  C   UNL     1       2.659   0.421 -22.875  0.00  0.00    +0.039 C 
ATOM      2  C   UNL     1       3.178   1.611 -22.819  0.00  0.00    -0.067 C 
ATOM      3  C   UNL     1       4.431   1.889 -22.609  0.00  0.00    -0.024 C 
ATOM      4  C   UNL     1       4.564   3.182 -22.623  0.00  0.00    +0.065 C 
ATOM      5  C   UNL     1       3.393   3.703 -22.840  0.00  0.00    +0.112 C 
ATOM      6  O   UNL     1       4.381   4.535 -22.692  0.00  0.00    -0.360 OA
ATOM      7  C   UNL     1       3.181   4.984 -22.913  0.00  0.00    +0.097 C 
ATOM      8  C   UNL     1       2.061   5.610 -23.125  0.00  0.00    +0.038 C 
ATOM      9  C   UNL     1       0.877   5.110 -23.317  0.00  0.00    +0.011 C 
ATOM     10  C   UNL     1       0.519   3.861 -23.344  0.00  0.00    +0.049 C 
ATOM     11  C   UNL     1      -0.704   3.470 -23.545  0.00  0.00    +0.149 C 
ATOM     12  C   UNL     1      -0.722   2.170 -23.511  0.00  0.00    +0.316 C 
ATOM     13  O   UNL     1       0.490   1.758 -23.289  0.00  0.00    -0.460 OA
ATOM     14  O   UNL     1      -1.769   1.416 -23.672  0.00  0.00    -0.250 OA
ATOM     15  C   UNL     1       1.258   2.803 -23.185  0.00  0.00    +0.190 C 
ATOM     16  C   UNL     1       3.719   6.166 -22.853  0.00  0.00    +0.044 C 
ATOM     17  C   UNL     1       2.537   2.732 -22.962  0.00  0.00    +0.090 C 
ENDROOT
BRANCH  11  18
ATOM     18  C   UNL     1      -1.730   4.243 -23.745  0.00  0.00    +0.146 C 
BRANCH  18  19
ATOM     19  N   UNL     1      -2.869   3.971 -23.180  0.00  0.00    +0.236 N 
ATOM     20  H   UNL     1      -3.876   3.820 -23.249  0.00  0.00    +0.203 HD
ATOM     21  C   UNL     1      -3.952   3.911 -23.899  0.00  0.00    +0.131 C 
ATOM     22  C   UNL     1      -5.091   3.638 -23.335  0.00  0.00    +0.051 C 
ATOM     23  C   UNL     1      -5.148   3.427 -22.053  0.00  0.00    +0.010 C 
ATOM     24  C   UNL     1      -4.065   3.487 -21.335  0.00  0.00    +0.051 C 
ATOM     25  C   UNL     1      -2.926   3.760 -21.899  0.00  0.00    +0.131 C 
ENDBRANCH  18  19
ENDBRANCH  11  18
TORSDOF 2
ENDMDL
MODEL 4
REMARK VINA RESULT:    -9.345      2.106      6.879
REMARK INTER + INTRA:         -10.808
REMARK INTER:                 -10.339
REMARK INTRA:                  -0.470
REMARK UNBOUND:                -0.371
REMARK  Name = ZINC000036020290
REMARK  4 active torsions:
REMARK  status: ('A' for Active; 'I' for Inactive)
REMARK    1  A    between atoms: C_1  and  C_2
REMARK    2  A    between atoms: C_7  and  C_8
REMARK    3  A    between atoms: C_12  and  C_13
REMARK    4  A    between atoms: C_13  and  N_14
REMARK                            x       y       z     vdW  Elec       q    Type
REMARK                         _______ _______ _______ _____ _____    ______ ____
ROOT
ATOM      1  C   UNL     1       3.194   6.074 -23.231  0.00  0.00    +0.039 C 
ATOM      2  C   UNL     1       3.634   4.885 -22.942  0.00  0.00    -0.067 C 
ATOM      3  C   UNL     1       4.873   4.565 -22.708  0.00  0.00    -0.024 C 
ATOM      4  C   UNL     1       4.918   3.290 -22.458  0.00  0.00    +0.065 C 
ATOM      5  C   UNL     1       3.708   2.823 -22.537  0.00  0.00    +0.112 C 
ATOM      6  O   UNL     1       4.643   1.969 -22.243  0.00  0.00    -0.360 OA
ATOM      7  C   UNL     1       3.409   1.573 -22.340  0.00  0.00    +0.097 C 
ATOM      8  C   UNL     1       2.243   1.000 -22.394  0.00  0.00    +0.038 C 
ATOM      9  C   UNL     1       1.089   1.535 -22.657  0.00  0.00    +0.011 C 
ATOM     10  C   UNL     1       0.813   2.776 -22.933  0.00  0.00    +0.049 C 
ATOM     11  C   UNL     1      -0.387   3.205 -23.183  0.00  0.00    +0.149 C 
ATOM     12  C   UNL     1      -0.317   4.482 -23.417  0.00  0.00    +0.316 C 
ATOM     13  O   UNL     1       0.927   4.842 -23.312  0.00  0.00    -0.460 OA
ATOM     14  O   UNL     1      -1.317   5.262 -23.706  0.00  0.00    -0.250 OA
ATOM     15  C   UNL     1       1.627   3.787 -23.013  0.00  0.00    +0.190 C 
ATOM     16  C   UNL     1       3.868   0.392 -22.050  0.00  0.00    +0.044 C 
ATOM     17  C   UNL     1       2.915   3.809 -22.837  0.00  0.00    +0.090 C 
ENDROOT
BRANCH  11  18
ATOM     18  C   UNL     1      -1.470   2.484 -23.196  0.00  0.00    +0.146 C 
BRANCH  18  19
ATOM     19  N   UNL     1      -2.487   2.825 -22.463  0.00  0.00    +0.236 N 
ATOM     20  H   UNL     1      -3.476   3.063 -22.379  0.00  0.00    +0.203 HD
ATOM     21  C   UNL     1      -3.651   3.008 -23.013  0.00  0.00    +0.131 C 
ATOM     22  C   UNL     1      -4.669   3.349 -22.279  0.00  0.00    +0.051 C 
ATOM     23  C   UNL     1      -4.524   3.508 -20.997  0.00  0.00    +0.010 C 
ATOM     24  C   UNL     1      -3.359   3.325 -20.448  0.00  0.00    +0.051 C 
ATOM     25  C   UNL     1      -2.341   2.984 -21.181  0.00  0.00    +0.131 C 
ENDBRANCH  18  19
ENDBRANCH  11  18
TORSDOF 2
ENDMDL
MODEL 5
REMARK VINA RESULT:    -8.659      2.485      3.930
REMARK INTER + INTRA:         -10.042
REMARK INTER:                  -9.494
REMARK INTRA:                  -0.548
REMARK UNBOUND:                -0.371
REMARK  Name = ZINC000036020290
REMARK  4 active torsions:
REMARK  status: ('A' for Active; 'I' for Inactive)
REMARK    1  A    between atoms: C_1  and  C_2
REMARK    2  A    between atoms: C_7  and  C_8
REMARK    3  A    between atoms: C_12  and  C_13
REMARK    4  A    between atoms: C_13  and  N_14
REMARK                            x       y       z     vdW  Elec       q    Type
REMARK                         _______ _______ _______ _____ _____    ______ ____
ROOT
ATOM      1  C   UNL     1       0.141   1.472 -20.512  0.00  0.00    +0.039 C 
ATOM      2  C   UNL     1      -0.305   1.954 -21.634  0.00  0.00    -0.067 C 
ATOM      3  C   UNL     1      -1.556   2.092 -21.963  0.00  0.00    -0.024 C 
ATOM      4  C   UNL     1      -1.603   2.605 -23.157  0.00  0.00    +0.065 C 
ATOM      5  C   UNL     1      -0.382   2.784 -23.565  0.00  0.00    +0.112 C 
ATOM      6  O   UNL     1      -1.328   3.135 -24.386  0.00  0.00    -0.360 OA
ATOM      7  C   UNL     1      -0.082   3.285 -24.727  0.00  0.00    +0.097 C 
ATOM      8  C   UNL     1       1.094   3.507 -25.235  0.00  0.00    +0.038 C 
ATOM      9  C   UNL     1       2.260   3.283 -24.707  0.00  0.00    +0.011 C 
ATOM     10  C   UNL     1       2.539   2.782 -23.540  0.00  0.00    +0.049 C 
ATOM     11  C   UNL     1       3.751   2.600 -23.110  0.00  0.00    +0.149 C 
ATOM     12  C   UNL     1       3.683   2.087 -21.917  0.00  0.00    +0.316 C 
ATOM     13  O   UNL     1       2.427   1.951 -21.611  0.00  0.00    -0.460 OA
ATOM     14  O   UNL     1       4.693   1.765 -21.164  0.00  0.00    -0.250 OA
ATOM     15  C   UNL     1       1.719   2.381 -22.614  0.00  0.00    +0.190 C 
ATOM     16  C   UNL     1      -0.548   3.764 -25.843  0.00  0.00    +0.044 C 
ATOM     17  C   UNL     1       0.419   2.382 -22.624  0.00  0.00    +0.090 C 
ENDROOT
BRANCH  11  18
ATOM     18  C   UNL     1       4.843   2.882 -23.758  0.00  0.00    +0.146 C 
BRANCH  18  19
ATOM     19  N   UNL     1       5.678   3.756 -23.278  0.00  0.00    +0.236 N 
ATOM     20  H   UNL     1       6.630   4.026 -23.033  0.00  0.00    +0.203 HD
ATOM     21  C   UNL     1       6.946   3.477 -23.218  0.00  0.00    +0.131 C 
ATOM     22  C   UNL     1       7.781   4.350 -22.738  0.00  0.00    +0.051 C 
ATOM     23  C   UNL     1       7.347   5.502 -22.318  0.00  0.00    +0.010 C 
ATOM     24  C   UNL     1       6.078   5.780 -22.378  0.00  0.00    +0.051 C 
ATOM     25  C   UNL     1       5.244   4.907 -22.859  0.00  0.00    +0.131 C 
ENDBRANCH  18  19
ENDBRANCH  11  18
TORSDOF 2
ENDMDL
