MODEL 1
REMARK VINA RESULT:   -10.983      0.000      0.000
REMARK INTER + INTRA:         -12.064
REMARK INTER:                 -11.948
REMARK INTRA:                  -0.115
REMARK UNBOUND:                -0.118
REMARK  Name = COc1ccc2c3c1O[C@@H]1[C@H](O)C=C[C@@H]4[C@@H](C2)N(C=O)CC[C@]314      ZINC000253503941
REMARK  3 active torsions:
REMARK  status: ('A' for Active; 'I' for Inactive)
REMARK    1  A    between atoms: C_1  and  O_2
REMARK    2  A    between atoms: O_2  and  C_3
REMARK    3  A    between atoms: C_11  and  O_12
REMARK                            x       y       z     vdW  Elec       q    Type
REMARK                         _______ _______ _______ _____ _____    ______ ____
ROOT
ATOM      1  C   UNL     1       0.849   2.655 -23.971  0.00  0.00    +0.162 A 
ATOM      2  C   UNL     1       0.989   2.181 -22.806  0.00  0.00    +0.050 A 
ATOM      3  C   UNL     1       0.006   2.073 -22.042  0.00  0.00    +0.008 A 
ATOM      4  C   UNL     1      -1.127   2.437 -22.433  0.00  0.00    -0.038 A 
ATOM      5  C   UNL     1      -1.291   2.911 -23.587  0.00  0.00    +0.012 A 
ATOM      6  C   UNL     1      -2.423   3.272 -23.971  0.00  0.00    +0.049 C 
ATOM      7  C   UNL     1      -3.662   3.717 -24.519  0.00  0.00    +0.035 C 
ATOM      8  C   UNL     1      -4.791   3.607 -23.681  0.00  0.00    +0.109 C 
ATOM      9  N   UNL     1      -4.595   3.074 -22.389  0.00  0.00    -0.300 N 
ATOM     10  C   UNL     1      -5.546   2.939 -21.569  0.00  0.00    +0.328 C 
ATOM     11  O   UNL     1      -6.712   3.278 -21.881  0.00  0.00    -0.279 OA
ATOM     12  C   UNL     1      -3.267   2.692 -22.046  0.00  0.00    +0.088 C 
ATOM     13  C   UNL     1      -3.410   3.166 -23.209  0.00  0.00    +0.046 C 
ATOM     14  C   UNL     1      -4.557   3.532 -23.599  0.00  0.00    -0.022 C 
ATOM     15  C   UNL     1      -4.702   4.001 -24.749  0.00  0.00    +0.004 C 
ATOM     16  C   UNL     1      -3.713   4.114 -25.528  0.00  0.00    +0.178 C 
ATOM     17  C   UNL     1      -2.580   3.750 -25.138  0.00  0.00    +0.217 C 
ATOM     18  O   UNL     1      -1.114   3.604 -25.478  0.00  0.00    -0.481 OA
ATOM     19  C   UNL     1      -2.134   2.329 -21.657  0.00  0.00    +0.058 C 
ATOM     20  C   UNL     1      -0.299   3.021 -24.361  0.00  0.00    +0.167 A 
ENDROOT
BRANCH   1  22
ATOM     21  C   UNL     1       2.720   1.876 -24.739  0.00  0.00    +0.277 C 
ATOM     22  O   UNL     1       1.835   2.761 -24.731  0.00  0.00    -0.491 OA
ENDBRANCH   1  22
BRANCH  16  23
ATOM     23  O   UNL     1      -3.864   4.583 -26.676  0.00  0.00    -0.384 OA
ATOM     24  H   UNL     1      -4.793   4.836 -26.802  0.00  0.00    +0.210 HD
ENDBRANCH  16  23
TORSDOF 2
ENDMDL
MODEL 2
REMARK VINA RESULT:   -10.640      1.933      5.300
REMARK INTER + INTRA:         -11.691
REMARK INTER:                 -11.585
REMARK INTRA:                  -0.106
REMARK UNBOUND:                -0.118
REMARK  Name = COc1ccc2c3c1O[C@@H]1[C@H](O)C=C[C@@H]4[C@@H](C2)N(C=O)CC[C@]314      ZINC000253503941
REMARK  3 active torsions:
REMARK  status: ('A' for Active; 'I' for Inactive)
REMARK    1  A    between atoms: C_1  and  O_2
REMARK    2  A    between atoms: O_2  and  C_3
REMARK    3  A    between atoms: C_11  and  O_12
REMARK                            x       y       z     vdW  Elec       q    Type
REMARK                         _______ _______ _______ _____ _____    ______ ____
ROOT
ATOM      1  C   UNL     1      -3.569   3.494 -22.994  0.00  0.00    +0.162 A 
ATOM      2  C   UNL     1      -3.737   2.847 -21.919  0.00  0.00    +0.050 A 
ATOM      3  C   UNL     1      -2.792   2.205 -21.411  0.00  0.00    +0.008 A 
ATOM      4  C   UNL     1      -1.671   2.203 -21.969  0.00  0.00    -0.038 A 
ATOM      5  C   UNL     1      -1.480   2.840 -23.038  0.00  0.00    +0.012 A 
ATOM      6  C   UNL     1      -0.360   2.834 -23.590  0.00  0.00    +0.049 C 
ATOM      7  C   UNL     1       0.869   2.902 -24.310  0.00  0.00    +0.035 C 
ATOM      8  C   UNL     1       1.954   2.188 -23.761  0.00  0.00    +0.109 C 
ATOM      9  N   UNL     1       1.729   1.479 -22.562  0.00  0.00    -0.300 N 
ATOM     10  C   UNL     1       2.640   0.812 -21.998  0.00  0.00    +0.328 C 
ATOM     11  O   UNL     1       3.791   0.757 -22.491  0.00  0.00    -0.279 OA
ATOM     12  C   UNL     1       0.418   1.548 -22.011  0.00  0.00    +0.088 C 
ATOM     13  C   UNL     1       0.588   2.193 -23.085  0.00  0.00    +0.046 C 
ATOM     14  C   UNL     1       1.723   2.188 -23.645  0.00  0.00    -0.022 C 
ATOM     15  C   UNL     1       1.895   2.826 -24.707  0.00  0.00    +0.004 C 
ATOM     16  C   UNL     1       0.944   3.477 -25.228  0.00  0.00    +0.178 C 
ATOM     17  C   UNL     1      -0.176   3.479 -24.669  0.00  0.00    +0.217 C 
ATOM     18  O   UNL     1      -1.605   3.972 -24.708  0.00  0.00    -0.481 OA
ATOM     19  C   UNL     1      -0.703   1.550 -21.454  0.00  0.00    +0.058 C 
ATOM     20  C   UNL     1      -2.433   3.489 -23.555  0.00  0.00    +0.167 A 
ENDROOT
BRANCH   1  22
ATOM     21  C   UNL     1      -4.993   3.784 -24.601  0.00  0.00    +0.277 C 
ATOM     22  O   UNL     1      -4.517   4.134 -23.498  0.00  0.00    -0.491 OA
ENDBRANCH   1  22
BRANCH  16  23
ATOM     23  O   UNL     1       1.122   4.112 -26.289  0.00  0.00    -0.384 OA
ATOM     24  H   UNL     1       0.304   4.104 -26.811  0.00  0.00    +0.210 HD
ENDBRANCH  16  23
TORSDOF 2
ENDMDL
MODEL 3
REMARK VINA RESULT:   -10.628      1.011      1.309
REMARK INTER + INTRA:         -11.678
REMARK INTER:                 -11.541
REMARK INTRA:                  -0.137
REMARK UNBOUND:                -0.118
REMARK  Name = COc1ccc2c3c1O[C@@H]1[C@H](O)C=C[C@@H]4[C@@H](C2)N(C=O)CC[C@]314      ZINC000253503941
REMARK  3 active torsions:
REMARK  status: ('A' for Active; 'I' for Inactive)
REMARK    1  A    between atoms: C_1  and  O_2
REMARK    2  A    between atoms: O_2  and  C_3
REMARK    3  A    between atoms: C_11  and  O_12
REMARK                            x       y       z     vdW  Elec       q    Type
REMARK                         _______ _______ _______ _____ _____    ______ ____
ROOT
ATOM      1  C   UNL     1       1.730   1.842 -22.900  0.00  0.00    +0.162 A 
ATOM      2  C   UNL     1       1.607   1.555 -21.674  0.00  0.00    +0.050 A 
ATOM      3  C   UNL     1       0.501   1.670 -21.103  0.00  0.00    +0.008 A 
ATOM      4  C   UNL     1      -0.493   2.074 -21.750  0.00  0.00    -0.038 A 
ATOM      5  C   UNL     1      -0.394   2.366 -22.970  0.00  0.00    +0.012 A 
ATOM      6  C   UNL     1      -1.389   2.767 -23.610  0.00  0.00    +0.049 C 
ATOM      7  C   UNL     1      -2.449   3.234 -24.442  0.00  0.00    +0.035 C 
ATOM      8  C   UNL     1      -3.710   3.375 -23.826  0.00  0.00    +0.109 C 
ATOM      9  N   UNL     1      -3.808   3.045 -22.458  0.00  0.00    -0.300 N 
ATOM     10  C   UNL     1      -4.895   3.139 -21.823  0.00  0.00    +0.328 C 
ATOM     11  O   UNL     1      -5.938   3.535 -22.396  0.00  0.00    -0.279 OA
ATOM     12  C   UNL     1      -2.618   2.596 -21.817  0.00  0.00    +0.088 C 
ATOM     13  C   UNL     1      -2.498   2.884 -23.043  0.00  0.00    +0.046 C 
ATOM     14  C   UNL     1      -3.504   3.292 -23.692  0.00  0.00    -0.022 C 
ATOM     15  C   UNL     1      -3.389   3.577 -24.904  0.00  0.00    +0.004 C 
ATOM     16  C   UNL     1      -2.274   3.463 -25.488  0.00  0.00    +0.178 C 
ATOM     17  C   UNL     1      -1.281   3.060 -24.842  0.00  0.00    +0.217 C 
ATOM     18  O   UNL     1       0.192   2.718 -24.873  0.00  0.00    -0.481 OA
ATOM     19  C   UNL     1      -1.624   2.193 -21.172  0.00  0.00    +0.058 C 
ATOM     20  C   UNL     1       0.722   2.250 -23.550  0.00  0.00    +0.167 A 
ENDROOT
BRANCH   1  22
ATOM     21  C   UNL     1       3.506   2.743 -23.757  0.00  0.00    +0.277 C 
ATOM     22  O   UNL     1       2.838   1.725 -23.466  0.00  0.00    -0.491 OA
ENDBRANCH   1  22
BRANCH  16  23
ATOM     23  O   UNL     1      -2.165   3.750 -26.699  0.00  0.00    -0.384 OA
ATOM     24  H   UNL     1      -1.252   4.021 -26.887  0.00  0.00    +0.210 HD
ENDBRANCH  16  23
TORSDOF 2
ENDMDL
MODEL 4
REMARK VINA RESULT:   -10.491      1.806      3.213
REMARK INTER + INTRA:         -11.529
REMARK INTER:                 -11.420
REMARK INTRA:                  -0.109
REMARK UNBOUND:                -0.118
REMARK  Name = COc1ccc2c3c1O[C@@H]1[C@H](O)C=C[C@@H]4[C@@H](C2)N(C=O)CC[C@]314      ZINC000253503941
REMARK  3 active torsions:
REMARK  status: ('A' for Active; 'I' for Inactive)
REMARK    1  A    between atoms: C_1  and  O_2
REMARK    2  A    between atoms: O_2  and  C_3
REMARK    3  A    between atoms: C_11  and  O_12
REMARK                            x       y       z     vdW  Elec       q    Type
REMARK                         _______ _______ _______ _____ _____    ______ ____
ROOT
ATOM      1  C   UNL     1       1.340   1.675 -22.175  0.00  0.00    +0.162 A 
ATOM      2  C   UNL     1       1.888   2.069 -23.246  0.00  0.00    +0.050 A 
ATOM      3  C   UNL     1       1.222   2.679 -24.111  0.00  0.00    +0.008 A 
ATOM      4  C   UNL     1       0.006   2.902 -23.915  0.00  0.00    -0.038 A 
ATOM      5  C   UNL     1      -0.560   2.520 -22.858  0.00  0.00    +0.012 A 
ATOM      6  C   UNL     1      -1.774   2.745 -22.669  0.00  0.00    +0.049 C 
ATOM      7  C   UNL     1      -3.148   2.943 -22.342  0.00  0.00    +0.035 C 
ATOM      8  C   UNL     1      -3.924   3.629 -23.299  0.00  0.00    +0.109 C 
ATOM      9  N   UNL     1      -3.280   4.053 -24.480  0.00  0.00    -0.300 N 
ATOM     10  C   UNL     1      -3.894   4.673 -25.392  0.00  0.00    +0.328 C 
ATOM     11  O   UNL     1      -5.114   4.937 -25.276  0.00  0.00    -0.279 OA
ATOM     12  C   UNL     1      -1.894   3.748 -24.601  0.00  0.00    +0.088 C 
ATOM     13  C   UNL     1      -2.443   3.355 -23.532  0.00  0.00    +0.046 C 
ATOM     14  C   UNL     1      -3.673   3.583 -23.340  0.00  0.00    -0.022 C 
ATOM     15  C   UNL     1      -4.219   3.196 -22.283  0.00  0.00    +0.004 C 
ATOM     16  C   UNL     1      -3.553   2.578 -21.404  0.00  0.00    +0.178 C 
ATOM     17  C   UNL     1      -2.337   2.355 -21.599  0.00  0.00    +0.217 C 
ATOM     18  O   UNL     1      -1.063   1.747 -21.059  0.00  0.00    -0.481 OA
ATOM     19  C   UNL     1      -0.677   3.525 -24.795  0.00  0.00    +0.058 C 
ATOM     20  C   UNL     1       0.109   1.903 -21.982  0.00  0.00    +0.167 A 
ENDROOT
BRANCH   1  22
ATOM     21  C   UNL     1       3.183   0.710 -21.565  0.00  0.00    +0.277 C 
ATOM     22  O   UNL     1       2.010   1.065 -21.313  0.00  0.00    -0.491 OA
ENDBRANCH   1  22
BRANCH  16  23
ATOM     23  O   UNL     1      -4.105   2.194 -20.351  0.00  0.00    -0.384 OA
ATOM     24  H   UNL     1      -3.456   2.190 -19.629  0.00  0.00    +0.210 HD
ENDBRANCH  16  23
TORSDOF 2
ENDMDL
MODEL 5
REMARK VINA RESULT:   -10.417      1.984      5.824
REMARK INTER + INTRA:         -11.448
REMARK INTER:                 -11.301
REMARK INTRA:                  -0.147
REMARK UNBOUND:                -0.118
REMARK  Name = COc1ccc2c3c1O[C@@H]1[C@H](O)C=C[C@@H]4[C@@H](C2)N(C=O)CC[C@]314      ZINC000253503941
REMARK  3 active torsions:
REMARK  status: ('A' for Active; 'I' for Inactive)
REMARK    1  A    between atoms: C_1  and  O_2
REMARK    2  A    between atoms: O_2  and  C_3
REMARK    3  A    between atoms: C_11  and  O_12
REMARK                            x       y       z     vdW  Elec       q    Type
REMARK                         _______ _______ _______ _____ _____    ______ ____
ROOT
ATOM      1  C   UNL     1      -4.606   3.597 -22.603  0.00  0.00    +0.162 A 
ATOM      2  C   UNL     1      -4.797   4.089 -23.753  0.00  0.00    +0.050 A 
ATOM      3  C   UNL     1      -3.864   4.139 -24.583  0.00  0.00    +0.008 A 
ATOM      4  C   UNL     1      -2.733   3.698 -24.275  0.00  0.00    -0.038 A 
ATOM      5  C   UNL     1      -2.520   3.204 -23.137  0.00  0.00    +0.012 A 
ATOM      6  C   UNL     1      -1.391   2.766 -22.835  0.00  0.00    +0.049 C 
ATOM      7  C   UNL     1      -0.148   2.236 -22.377  0.00  0.00    +0.035 C 
ATOM      8  C   UNL     1       0.924   2.278 -23.292  0.00  0.00    +0.109 C 
ATOM      9  N   UNL     1       0.674   2.834 -24.564  0.00  0.00    -0.300 N 
ATOM     10  C   UNL     1       1.572   2.914 -25.448  0.00  0.00    +0.328 C 
ATOM     11  O   UNL     1       2.732   2.496 -25.220  0.00  0.00    -0.279 OA
ATOM     12  C   UNL     1      -0.647   3.306 -24.812  0.00  0.00    +0.088 C 
ATOM     13  C   UNL     1      -0.454   2.814 -23.663  0.00  0.00    +0.046 C 
ATOM     14  C   UNL     1       0.690   2.370 -23.356  0.00  0.00    -0.022 C 
ATOM     15  C   UNL     1       0.884   1.882 -22.221  0.00  0.00    +0.004 C 
ATOM     16  C   UNL     1      -0.054   1.828 -21.375  0.00  0.00    +0.178 C 
ATOM     17  C   UNL     1      -1.185   2.269 -21.684  0.00  0.00    +0.217 C 
ATOM     18  O   UNL     1      -2.610   2.508 -21.241  0.00  0.00    -0.481 OA
ATOM     19  C   UNL     1      -1.777   3.747 -25.119  0.00  0.00    +0.058 C 
ATOM     20  C   UNL     1      -3.461   3.152 -22.295  0.00  0.00    +0.167 A 
ENDROOT
BRANCH   1  22
ATOM     21  C   UNL     1      -6.291   2.548 -21.732  0.00  0.00    +0.277 C 
ATOM     22  O   UNL     1      -5.542   3.549 -21.776  0.00  0.00    -0.491 OA
ENDBRANCH   1  22
BRANCH  16  23
ATOM     23  O   UNL     1       0.145   1.339 -20.243  0.00  0.00    -0.384 OA
ATOM     24  H   UNL     1       0.491   2.026 -19.650  0.00  0.00    +0.210 HD
ENDBRANCH  16  23
TORSDOF 2
ENDMDL
MODEL 6
REMARK VINA RESULT:   -10.102      2.975      6.745
REMARK INTER + INTRA:         -11.106
REMARK INTER:                 -10.986
REMARK INTRA:                  -0.120
REMARK UNBOUND:                -0.118
REMARK  Name = COc1ccc2c3c1O[C@@H]1[C@H](O)C=C[C@@H]4[C@@H](C2)N(C=O)CC[C@]314      ZINC000253503941
REMARK  3 active torsions:
REMARK  status: ('A' for Active; 'I' for Inactive)
REMARK    1  A    between atoms: C_1  and  O_2
REMARK    2  A    between atoms: O_2  and  C_3
REMARK    3  A    between atoms: C_11  and  O_12
REMARK                            x       y       z     vdW  Elec       q    Type
REMARK                         _______ _______ _______ _____ _____    ______ ____
ROOT
ATOM      1  C   UNL     1      -1.734   3.323 -23.193  0.00  0.00    +0.162 A 
ATOM      2  C   UNL     1      -1.751   4.584 -23.297  0.00  0.00    +0.050 A 
ATOM      3  C   UNL     1      -0.683   5.233 -23.322  0.00  0.00    +0.008 A 
ATOM      4  C   UNL     1       0.412   4.630 -23.244  0.00  0.00    -0.038 A 
ATOM      5  C   UNL     1       0.454   3.377 -23.140  0.00  0.00    +0.012 A 
ATOM      6  C   UNL     1       1.549   2.781 -23.062  0.00  0.00    +0.049 C 
ATOM      7  C   UNL     1       2.734   1.994 -22.966  0.00  0.00    +0.035 C 
ATOM      8  C   UNL     1       3.955   2.698 -22.992  0.00  0.00    +0.109 C 
ATOM      9  N   UNL     1       3.896   4.102 -23.108  0.00  0.00    -0.300 N 
ATOM     10  C   UNL     1       4.937   4.816 -23.140  0.00  0.00    +0.328 C 
ATOM     11  O   UNL     1       6.074   4.292 -23.066  0.00  0.00    -0.279 OA
ATOM     12  C   UNL     1       2.600   4.687 -23.191  0.00  0.00    +0.088 C 
ATOM     13  C   UNL     1       2.620   3.427 -23.087  0.00  0.00    +0.046 C 
ATOM     14  C   UNL     1       3.729   2.823 -23.008  0.00  0.00    -0.022 C 
ATOM     15  C   UNL     1       3.752   1.577 -22.905  0.00  0.00    +0.004 C 
ATOM     16  C   UNL     1       2.677   0.913 -22.879  0.00  0.00    +0.178 C 
ATOM     17  C   UNL     1       1.582   1.515 -22.957  0.00  0.00    +0.217 C 
ATOM     18  O   UNL     1       0.075   1.397 -22.987  0.00  0.00    -0.481 OA
ATOM     19  C   UNL     1       1.505   5.288 -23.269  0.00  0.00    +0.058 C 
ATOM     20  C   UNL     1      -0.624   2.718 -23.114  0.00  0.00    +0.167 A 
ENDROOT
BRANCH   1  22
ATOM     21  C   UNL     1      -3.735   3.035 -22.411  0.00  0.00    +0.277 C 
ATOM     22  O   UNL     1      -2.805   2.678 -23.169  0.00  0.00    -0.491 OA
ENDBRANCH   1  22
BRANCH  16  23
ATOM     23  O   UNL     1       2.706  -0.332 -22.776  0.00  0.00    -0.384 OA
ATOM     24  H   UNL     1       1.920  -0.635 -22.294  0.00  0.00    +0.210 HD
ENDBRANCH  16  23
TORSDOF 2
ENDMDL
MODEL 7
REMARK VINA RESULT:    -9.744      2.110      3.603
REMARK INTER + INTRA:         -10.716
REMARK INTER:                 -10.567
REMARK INTRA:                  -0.148
REMARK UNBOUND:                -0.118
REMARK  Name = COc1ccc2c3c1O[C@@H]1[C@H](O)C=C[C@@H]4[C@@H](C2)N(C=O)CC[C@]314      ZINC000253503941
REMARK  3 active torsions:
REMARK  status: ('A' for Active; 'I' for Inactive)
REMARK    1  A    between atoms: C_1  and  O_2
REMARK    2  A    between atoms: O_2  and  C_3
REMARK    3  A    between atoms: C_11  and  O_12
REMARK                            x       y       z     vdW  Elec       q    Type
REMARK                         _______ _______ _______ _____ _____    ______ ____
ROOT
ATOM      1  C   UNL     1       3.882   1.640 -22.052  0.00  0.00    +0.162 A 
ATOM      2  C   UNL     1       3.470   1.142 -20.964  0.00  0.00    +0.050 A 
ATOM      3  C   UNL     1       2.252   1.154 -20.683  0.00  0.00    +0.008 A 
ATOM      4  C   UNL     1       1.434   1.663 -21.483  0.00  0.00    -0.038 A 
ATOM      5  C   UNL     1       1.821   2.165 -22.571  0.00  0.00    +0.012 A 
ATOM      6  C   UNL     1       1.001   2.671 -23.365  0.00  0.00    +0.049 C 
ATOM      7  C   UNL     1       0.162   3.275 -24.347  0.00  0.00    +0.035 C 
ATOM      8  C   UNL     1      -1.218   3.304 -24.057  0.00  0.00    +0.109 C 
ATOM      9  N   UNL     1      -1.640   2.739 -22.836  0.00  0.00    -0.300 N 
ATOM     10  C   UNL     1      -2.854   2.719 -22.491  0.00  0.00    +0.328 C 
ATOM     11  O   UNL     1      -3.737   3.208 -23.235  0.00  0.00    -0.279 OA
ATOM     12  C   UNL     1      -0.628   2.187 -21.999  0.00  0.00    +0.088 C 
ATOM     13  C   UNL     1      -0.219   2.685 -23.086  0.00  0.00    +0.046 C 
ATOM     14  C   UNL     1      -1.049   3.198 -23.892  0.00  0.00    -0.022 C 
ATOM     15  C   UNL     1      -0.647   3.692 -24.968  0.00  0.00    +0.004 C 
ATOM     16  C   UNL     1       0.582   3.684 -25.261  0.00  0.00    +0.178 C 
ATOM     17  C   UNL     1       1.400   3.175 -24.461  0.00  0.00    +0.217 C 
ATOM     18  O   UNL     1       2.847   2.845 -24.174  0.00  0.00    -0.481 OA
ATOM     19  C   UNL     1       0.190   1.678 -21.200  0.00  0.00    +0.058 C 
ATOM     20  C   UNL     1       3.051   2.154 -22.858  0.00  0.00    +0.167 A 
ENDROOT
BRANCH   1  22
ATOM     21  C   UNL     1       5.811   2.628 -22.091  0.00  0.00    +0.277 C 
ATOM     22  O   UNL     1       5.101   1.625 -22.330  0.00  0.00    -0.491 OA
ENDBRANCH   1  22
BRANCH  16  23
ATOM     23  O   UNL     1       0.978   4.178 -26.338  0.00  0.00    -0.384 OA
ATOM     24  H   UNL     1       1.502   3.521 -26.822  0.00  0.00    +0.210 HD
ENDBRANCH  16  23
TORSDOF 2
ENDMDL
MODEL 8
REMARK VINA RESULT:    -9.089      2.488      6.288
REMARK INTER + INTRA:         -10.004
REMARK INTER:                  -9.895
REMARK INTRA:                  -0.109
REMARK UNBOUND:                -0.118
REMARK  Name = COc1ccc2c3c1O[C@@H]1[C@H](O)C=C[C@@H]4[C@@H](C2)N(C=O)CC[C@]314      ZINC000253503941
REMARK  3 active torsions:
REMARK  status: ('A' for Active; 'I' for Inactive)
REMARK    1  A    between atoms: C_1  and  O_2
REMARK    2  A    between atoms: O_2  and  C_3
REMARK    3  A    between atoms: C_11  and  O_12
REMARK                            x       y       z     vdW  Elec       q    Type
REMARK                         _______ _______ _______ _____ _____    ______ ____
ROOT
ATOM      1  C   UNL     1      -2.628   3.230 -24.431  0.00  0.00    +0.162 A 
ATOM      2  C   UNL     1      -2.282   3.698 -25.555  0.00  0.00    +0.050 A 
ATOM      3  C   UNL     1      -1.074   3.766 -25.869  0.00  0.00    +0.008 A 
ATOM      4  C   UNL     1      -0.200   3.369 -25.065  0.00  0.00    -0.038 A 
ATOM      5  C   UNL     1      -0.520   2.900 -23.941  0.00  0.00    +0.012 A 
ATOM      6  C   UNL     1       0.356   2.506 -23.144  0.00  0.00    +0.049 C 
ATOM      7  C   UNL     1       1.263   2.027 -22.153  0.00  0.00    +0.035 C 
ATOM      8  C   UNL     1       2.634   2.091 -22.478  0.00  0.00    +0.109 C 
ATOM      9  N   UNL     1       2.981   2.618 -23.740  0.00  0.00    -0.300 N 
ATOM     10  C   UNL     1       4.182   2.715 -24.118  0.00  0.00    +0.328 C 
ATOM     11  O   UNL     1       5.118   2.340 -23.373  0.00  0.00    -0.279 OA
ATOM     12  C   UNL     1       1.909   3.041 -24.577  0.00  0.00    +0.088 C 
ATOM     13  C   UNL     1       1.566   2.573 -23.454  0.00  0.00    +0.046 C 
ATOM     14  C   UNL     1       2.453   2.173 -22.645  0.00  0.00    -0.022 C 
ATOM     15  C   UNL     1       2.118   1.710 -21.533  0.00  0.00    +0.004 C 
ATOM     16  C   UNL     1       0.898   1.638 -21.208  0.00  0.00    +0.178 C 
ATOM     17  C   UNL     1       0.024   2.034 -22.012  0.00  0.00    +0.217 C 
ATOM     18  O   UNL     1      -1.451   2.231 -22.276  0.00  0.00    -0.481 OA
ATOM     19  C   UNL     1       1.034   3.437 -25.380  0.00  0.00    +0.058 C 
ATOM     20  C   UNL     1      -1.740   2.830 -23.621  0.00  0.00    +0.167 A 
ENDROOT
BRANCH   1  22
ATOM     21  C   UNL     1      -4.699   3.727 -24.833  0.00  0.00    +0.277 C 
ATOM     22  O   UNL     1      -3.837   3.163 -24.122  0.00  0.00    -0.491 OA
ENDBRANCH   1  22
BRANCH  16  23
ATOM     23  O   UNL     1       0.569   1.174 -20.095  0.00  0.00    -0.384 OA
ATOM     24  H   UNL     1       0.235   1.891 -19.532  0.00  0.00    +0.210 HD
ENDBRANCH  16  23
TORSDOF 2
ENDMDL
MODEL 9
REMARK VINA RESULT:    -8.965      2.755      6.157
REMARK INTER + INTRA:          -9.869
REMARK INTER:                  -9.752
REMARK INTRA:                  -0.118
REMARK UNBOUND:                -0.118
REMARK  Name = COc1ccc2c3c1O[C@@H]1[C@H](O)C=C[C@@H]4[C@@H](C2)N(C=O)CC[C@]314      ZINC000253503941
REMARK  3 active torsions:
REMARK  status: ('A' for Active; 'I' for Inactive)
REMARK    1  A    between atoms: C_1  and  O_2
REMARK    2  A    between atoms: O_2  and  C_3
REMARK    3  A    between atoms: C_11  and  O_12
REMARK                            x       y       z     vdW  Elec       q    Type
REMARK                         _______ _______ _______ _____ _____    ______ ____
ROOT
ATOM      1  C   UNL     1      -1.832   3.932 -23.528  0.00  0.00    +0.162 A 
ATOM      2  C   UNL     1      -2.416   2.912 -23.057  0.00  0.00    +0.050 A 
ATOM      3  C   UNL     1      -1.758   2.007 -22.499  0.00  0.00    +0.008 A 
ATOM      4  C   UNL     1      -0.514   2.110 -22.405  0.00  0.00    -0.038 A 
ATOM      5  C   UNL     1       0.088   3.115 -22.866  0.00  0.00    +0.012 A 
ATOM      6  C   UNL     1       1.329   3.213 -22.769  0.00  0.00    +0.049 C 
ATOM      7  C   UNL     1       2.736   3.436 -22.719  0.00  0.00    +0.035 C 
ATOM      8  C   UNL     1       3.505   2.431 -22.095  0.00  0.00    +0.109 C 
ATOM      9  N   UNL     1       2.820   1.310 -21.582  0.00  0.00    -0.300 N 
ATOM     10  C   UNL     1       3.424   0.361 -21.007  0.00  0.00    +0.328 C 
ATOM     11  O   UNL     1       4.670   0.387 -20.872  0.00  0.00    -0.279 OA
ATOM     12  C   UNL     1       1.405   1.292 -21.741  0.00  0.00    +0.088 C 
ATOM     13  C   UNL     1       1.990   2.309 -22.211  0.00  0.00    +0.046 C 
ATOM     14  C   UNL     1       3.248   2.410 -22.114  0.00  0.00    -0.022 C 
ATOM     15  C   UNL     1       3.830   3.415 -22.577  0.00  0.00    +0.004 C 
ATOM     16  C   UNL     1       3.172   4.335 -23.143  0.00  0.00    +0.178 C 
ATOM     17  C   UNL     1       1.928   4.231 -23.237  0.00  0.00    +0.217 C 
ATOM     18  O   UNL     1       0.642   4.860 -23.724  0.00  0.00    -0.481 OA
ATOM     19  C   UNL     1       0.161   1.189 -21.836  0.00  0.00    +0.058 C 
ATOM     20  C   UNL     1      -0.573   4.032 -23.430  0.00  0.00    +0.167 A 
ENDROOT
BRANCH   1  22
ATOM     21  C   UNL     1      -3.405   4.538 -24.891  0.00  0.00    +0.277 C 
ATOM     22  O   UNL     1      -2.494   4.834 -24.085  0.00  0.00    -0.491 OA
ENDBRANCH   1  22
BRANCH  16  23
ATOM     23  O   UNL     1       3.759   5.337 -23.604  0.00  0.00    -0.384 OA
ATOM     24  H   UNL     1       4.633   5.076 -23.937  0.00  0.00    +0.210 HD
ENDBRANCH  16  23
TORSDOF 2
ENDMDL
