MODEL 1
REMARK VINA RESULT:   -10.910      0.000      0.000
REMARK INTER + INTRA:         -11.670
REMARK INTER:                 -11.521
REMARK INTRA:                  -0.149
REMARK UNBOUND:                -0.122
REMARK  Name = COc1ccc2c3c1O[C@@H]1[C@@H](Cl)C=C[C@H]4[C@@H](C2)N(C)CC[C@]314       ZINC000253504149
REMARK  3 active torsions:
REMARK  status: ('A' for Active; 'I' for Inactive)
REMARK    1  A    between atoms: C_1  and  O_2
REMARK    2  A    between atoms: O_2  and  C_3
REMARK    3  A    between atoms: N_18  and  C_19
REMARK                            x       y       z     vdW  Elec       q    Type
REMARK                         _______ _______ _______ _____ _____    ______ ____
ROOT
ATOM      1  C   UNL     1       0.924   2.250 -23.285  0.00  0.00    +0.162 A 
ATOM      2  C   UNL     1       0.887   1.891 -22.075  0.00  0.00    +0.050 A 
ATOM      3  C   UNL     1      -0.188   1.919 -21.438  0.00  0.00    +0.008 A 
ATOM      4  C   UNL     1      -1.235   2.305 -22.004  0.00  0.00    -0.034 A 
ATOM      5  C   UNL     1      -1.221   2.667 -23.208  0.00  0.00    +0.012 A 
ATOM      6  C   UNL     1      -2.268   3.052 -23.767  0.00  0.00    +0.054 C 
ATOM      7  C   UNL     1      -3.395   3.509 -24.510  0.00  0.00    +0.067 C 
ATOM      8  C   UNL     1      -4.621   3.551 -23.820  0.00  0.00    +0.132 C 
ATOM      9  N   UNL     1      -4.625   3.143 -22.471  0.00  0.00    +0.236 N 
ATOM     10  H   UNL     1      -5.486   3.154 -21.924  0.00  0.00    +0.203 HD
ATOM     11  C   UNL     1      -5.670   3.151 -21.787  0.00  0.00    +0.190 C 
ATOM     12  C   UNL     1      -3.380   2.722 -21.924  0.00  0.00    +0.076 C 
ATOM     13  C   UNL     1      -3.345   3.081 -23.134  0.00  0.00    +0.075 C 
ATOM     14  C   UNL     1      -4.405   3.471 -23.702  0.00  0.00    -0.020 C 
ATOM     15  C   UNL     1      -4.374   3.828 -24.899  0.00  0.00    -0.008 C 
ATOM     16  C   UNL     1      -3.292   3.803 -25.549  0.00  0.00    +0.144 C 
ATOM     17 CL   UNL     1      -3.267   4.160 -26.745  0.00  0.00    -0.113 Cl
ATOM     18  C   UNL     1      -2.246   3.416 -24.983  0.00  0.00    +0.207 C 
ATOM     19  O   UNL     1      -0.765   3.152 -25.114  0.00  0.00    -0.482 OA
ATOM     20  C   UNL     1      -2.334   2.336 -21.360  0.00  0.00    +0.090 C 
ATOM     21  C   UNL     1      -0.138   2.640 -23.853  0.00  0.00    +0.167 A 
ENDROOT
BRANCH   1  23
ATOM     22  C   UNL     1       2.704   3.251 -24.004  0.00  0.00    +0.277 C 
ATOM     23  O   UNL     1       2.001   2.221 -23.918  0.00  0.00    -0.491 OA
ENDBRANCH   1  23
TORSDOF 1
ENDMDL
MODEL 2
REMARK VINA RESULT:   -10.691      2.054      3.013
REMARK INTER + INTRA:         -11.438
REMARK INTER:                 -11.320
REMARK INTRA:                  -0.117
REMARK UNBOUND:                -0.122
REMARK  Name = COc1ccc2c3c1O[C@@H]1[C@@H](Cl)C=C[C@H]4[C@@H](C2)N(C)CC[C@]314       ZINC000253504149
REMARK  3 active torsions:
REMARK  status: ('A' for Active; 'I' for Inactive)
REMARK    1  A    between atoms: C_1  and  O_2
REMARK    2  A    between atoms: O_2  and  C_3
REMARK    3  A    between atoms: N_18  and  C_19
REMARK                            x       y       z     vdW  Elec       q    Type
REMARK                         _______ _______ _______ _____ _____    ______ ____
ROOT
ATOM      1  C   UNL     1       1.056   1.737 -22.182  0.00  0.00    +0.162 A 
ATOM      2  C   UNL     1       1.615   2.168 -23.230  0.00  0.00    +0.050 A 
ATOM      3  C   UNL     1       0.956   2.790 -24.090  0.00  0.00    +0.008 A 
ATOM      4  C   UNL     1      -0.266   2.989 -23.911  0.00  0.00    -0.034 A 
ATOM      5  C   UNL     1      -0.843   2.570 -22.875  0.00  0.00    +0.012 A 
ATOM      6  C   UNL     1      -2.062   2.770 -22.702  0.00  0.00    +0.054 C 
ATOM      7  C   UNL     1      -3.444   2.938 -22.395  0.00  0.00    +0.067 C 
ATOM      8  C   UNL     1      -4.213   3.637 -23.345  0.00  0.00    +0.132 C 
ATOM      9  N   UNL     1      -3.557   4.102 -24.502  0.00  0.00    +0.236 N 
ATOM     10  H   UNL     1      -4.066   4.613 -25.222  0.00  0.00    +0.203 HD
ATOM     11  C   UNL     1      -4.166   4.729 -25.393  0.00  0.00    +0.190 C 
ATOM     12  C   UNL     1      -2.165   3.822 -24.607  0.00  0.00    +0.076 C 
ATOM     13  C   UNL     1      -2.725   3.393 -23.560  0.00  0.00    +0.075 C 
ATOM     14  C   UNL     1      -3.960   3.596 -23.383  0.00  0.00    -0.020 C 
ATOM     15  C   UNL     1      -4.518   3.173 -22.348  0.00  0.00    -0.008 C 
ATOM     16  C   UNL     1      -3.859   2.543 -21.475  0.00  0.00    +0.144 C 
ATOM     17 CL   UNL     1      -4.422   2.122 -20.443  0.00  0.00    -0.113 Cl
ATOM     18  C   UNL     1      -2.637   2.344 -21.654  0.00  0.00    +0.207 C 
ATOM     19  O   UNL     1      -1.364   1.743 -21.109  0.00  0.00    -0.482 OA
ATOM     20  C   UNL     1      -0.944   3.623 -24.784  0.00  0.00    +0.090 C 
ATOM     21  C   UNL     1      -0.181   1.941 -22.006  0.00  0.00    +0.167 A 
ENDROOT
BRANCH   1  23
ATOM     22  C   UNL     1       2.873   1.496 -21.030  0.00  0.00    +0.277 C 
ATOM     23  O   UNL     1       1.719   1.115 -21.325  0.00  0.00    -0.491 OA
ENDBRANCH   1  23
TORSDOF 1
ENDMDL
MODEL 3
REMARK VINA RESULT:    -9.590      3.207      6.310
REMARK INTER + INTRA:         -10.272
REMARK INTER:                 -10.153
REMARK INTRA:                  -0.119
REMARK UNBOUND:                -0.122
REMARK  Name = COc1ccc2c3c1O[C@@H]1[C@@H](Cl)C=C[C@H]4[C@@H](C2)N(C)CC[C@]314       ZINC000253504149
REMARK  3 active torsions:
REMARK  status: ('A' for Active; 'I' for Inactive)
REMARK    1  A    between atoms: C_1  and  O_2
REMARK    2  A    between atoms: O_2  and  C_3
REMARK    3  A    between atoms: N_18  and  C_19
REMARK                            x       y       z     vdW  Elec       q    Type
REMARK                         _______ _______ _______ _____ _____    ______ ____
ROOT
ATOM      1  C   UNL     1      -1.560   3.308 -23.388  0.00  0.00    +0.162 A 
ATOM      2  C   UNL     1      -1.638   4.546 -23.627  0.00  0.00    +0.050 A 
ATOM      3  C   UNL     1      -0.611   5.256 -23.634  0.00  0.00    +0.008 A 
ATOM      4  C   UNL     1       0.504   4.738 -23.402  0.00  0.00    -0.034 A 
ATOM      5  C   UNL     1       0.605   3.508 -23.161  0.00  0.00    +0.012 A 
ATOM      6  C   UNL     1       1.719   2.996 -22.930  0.00  0.00    +0.054 C 
ATOM      7  C   UNL     1       2.932   2.301 -22.652  0.00  0.00    +0.067 C 
ATOM      8  C   UNL     1       4.108   3.075 -22.653  0.00  0.00    +0.132 C 
ATOM      9  N   UNL     1       3.983   4.452 -22.924  0.00  0.00    +0.236 N 
ATOM     10  H   UNL     1       4.803   5.059 -22.936  0.00  0.00    +0.203 HD
ATOM     11  C   UNL     1       4.976   5.209 -22.943  0.00  0.00    +0.190 C 
ATOM     12  C   UNL     1       2.670   4.940 -23.175  0.00  0.00    +0.076 C 
ATOM     13  C   UNL     1       2.750   3.703 -22.935  0.00  0.00    +0.075 C 
ATOM     14  C   UNL     1       3.878   3.182 -22.701  0.00  0.00    -0.020 C 
ATOM     15  C   UNL     1       3.962   1.959 -22.463  0.00  0.00    -0.008 C 
ATOM     16  C   UNL     1       2.928   1.235 -22.455  0.00  0.00    +0.144 C 
ATOM     17 CL   UNL     1       3.017   0.012 -22.217  0.00  0.00    -0.113 Cl
ATOM     18  C   UNL     1       1.813   1.753 -22.687  0.00  0.00    +0.207 C 
ATOM     19  O   UNL     1       0.326   1.536 -22.829  0.00  0.00    -0.482 OA
ATOM     20  C   UNL     1       1.556   5.457 -23.407  0.00  0.00    +0.090 C 
ATOM     21  C   UNL     1      -0.430   2.788 -23.153  0.00  0.00    +0.167 A 
ENDROOT
BRANCH   1  23
ATOM     22  C   UNL     1      -3.619   2.999 -22.792  0.00  0.00    +0.277 C 
ATOM     23  O   UNL     1      -2.590   2.601 -23.382  0.00  0.00    -0.491 OA
ENDBRANCH   1  23
TORSDOF 1
ENDMDL
MODEL 4
REMARK VINA RESULT:    -9.435      2.164      3.481
REMARK INTER + INTRA:         -10.108
REMARK INTER:                 -10.000
REMARK INTRA:                  -0.108
REMARK UNBOUND:                -0.122
REMARK  Name = COc1ccc2c3c1O[C@@H]1[C@@H](Cl)C=C[C@H]4[C@@H](C2)N(C)CC[C@]314       ZINC000253504149
REMARK  3 active torsions:
REMARK  status: ('A' for Active; 'I' for Inactive)
REMARK    1  A    between atoms: C_1  and  O_2
REMARK    2  A    between atoms: O_2  and  C_3
REMARK    3  A    between atoms: N_18  and  C_19
REMARK                            x       y       z     vdW  Elec       q    Type
REMARK                         _______ _______ _______ _____ _____    ______ ____
ROOT
ATOM      1  C   UNL     1       2.566   2.247 -22.215  0.00  0.00    +0.162 A 
ATOM      2  C   UNL     1       3.190   2.502 -23.284  0.00  0.00    +0.050 A 
ATOM      3  C   UNL     1       2.569   2.810 -24.323  0.00  0.00    +0.008 A 
ATOM      4  C   UNL     1       1.320   2.867 -24.305  0.00  0.00    -0.034 A 
ATOM      5  C   UNL     1       0.677   2.618 -23.253  0.00  0.00    +0.012 A 
ATOM      6  C   UNL     1      -0.569   2.676 -23.241  0.00  0.00    +0.054 C 
ATOM      7  C   UNL     1      -1.987   2.710 -23.105  0.00  0.00    +0.067 C 
ATOM      8  C   UNL     1      -2.716   3.054 -24.260  0.00  0.00    +0.132 C 
ATOM      9  N   UNL     1      -1.986   3.332 -25.433  0.00  0.00    +0.236 N 
ATOM     10  H   UNL     1      -2.464   3.586 -26.298  0.00  0.00    +0.203 HD
ATOM     11  C   UNL     1      -2.555   3.645 -26.500  0.00  0.00    +0.190 C 
ATOM     12  C   UNL     1      -0.568   3.238 -25.346  0.00  0.00    +0.076 C 
ATOM     13  C   UNL     1      -1.194   2.984 -24.278  0.00  0.00    +0.075 C 
ATOM     14  C   UNL     1      -2.457   3.042 -24.264  0.00  0.00    -0.020 C 
ATOM     15  C   UNL     1      -3.080   2.792 -23.211  0.00  0.00    -0.008 C 
ATOM     16  C   UNL     1      -2.459   2.480 -22.157  0.00  0.00    +0.144 C 
ATOM     17 CL   UNL     1      -3.086   2.230 -21.107  0.00  0.00    -0.113 Cl
ATOM     18  C   UNL     1      -1.210   2.423 -22.175  0.00  0.00    +0.207 C 
ATOM     19  O   UNL     1       0.052   2.151 -21.391  0.00  0.00    -0.482 OA
ATOM     20  C   UNL     1       0.680   3.181 -25.362  0.00  0.00    +0.090 C 
ATOM     21  C   UNL     1       1.302   2.306 -22.203  0.00  0.00    +0.167 A 
ENDROOT
BRANCH   1  23
ATOM     22  C   UNL     1       4.441   1.899 -21.191  0.00  0.00    +0.277 C 
ATOM     23  O   UNL     1       3.191   1.940 -21.179  0.00  0.00    -0.491 OA
ENDBRANCH   1  23
TORSDOF 1
ENDMDL
MODEL 5
REMARK VINA RESULT:    -8.361      2.480      3.827
REMARK INTER + INTRA:          -8.972
REMARK INTER:                  -8.859
REMARK INTRA:                  -0.113
REMARK UNBOUND:                -0.122
REMARK  Name = COc1ccc2c3c1O[C@@H]1[C@@H](Cl)C=C[C@H]4[C@@H](C2)N(C)CC[C@]314       ZINC000253504149
REMARK  3 active torsions:
REMARK  status: ('A' for Active; 'I' for Inactive)
REMARK    1  A    between atoms: C_1  and  O_2
REMARK    2  A    between atoms: O_2  and  C_3
REMARK    3  A    between atoms: N_18  and  C_19
REMARK                            x       y       z     vdW  Elec       q    Type
REMARK                         _______ _______ _______ _____ _____    ______ ____
ROOT
ATOM      1  C   UNL     1       4.694   2.493 -22.651  0.00  0.00    +0.162 A 
ATOM      2  C   UNL     1       4.721   1.897 -21.537  0.00  0.00    +0.050 A 
ATOM      3  C   UNL     1       3.659   1.569 -20.968  0.00  0.00    +0.008 A 
ATOM      4  C   UNL     1       2.560   1.831 -21.505  0.00  0.00    -0.034 A 
ATOM      5  C   UNL     1       2.509   2.423 -22.614  0.00  0.00    +0.012 A 
ATOM      6  C   UNL     1       1.410   2.682 -23.145  0.00  0.00    +0.054 C 
ATOM      7  C   UNL     1       0.220   3.030 -23.847  0.00  0.00    +0.067 C 
ATOM      8  C   UNL     1      -0.995   2.673 -23.231  0.00  0.00    +0.132 C 
ATOM      9  N   UNL     1      -0.926   2.010 -21.989  0.00  0.00    +0.236 N 
ATOM     10  H   UNL     1      -1.775   1.729 -21.499  0.00  0.00    +0.203 HD
ATOM     11  C   UNL     1      -1.956   1.659 -21.376  0.00  0.00    +0.190 C 
ATOM     12  C   UNL     1       0.374   1.760 -21.465  0.00  0.00    +0.076 C 
ATOM     13  C   UNL     1       0.345   2.355 -22.579  0.00  0.00    +0.075 C 
ATOM     14  C   UNL     1      -0.767   2.618 -23.119  0.00  0.00    -0.020 C 
ATOM     15  C   UNL     1      -0.801   3.207 -24.220  0.00  0.00    -0.008 C 
ATOM     16  C   UNL     1       0.268   3.542 -24.802  0.00  0.00    +0.144 C 
ATOM     17 CL   UNL     1       0.230   4.130 -25.902  0.00  0.00    -0.113 Cl
ATOM     18  C   UNL     1       1.367   3.280 -24.264  0.00  0.00    +0.207 C 
ATOM     19  O   UNL     1       2.871   3.366 -24.362  0.00  0.00    -0.482 OA
ATOM     20  C   UNL     1       1.473   1.498 -20.930  0.00  0.00    +0.090 C 
ATOM     21  C   UNL     1       3.580   2.756 -23.191  0.00  0.00    +0.167 A 
ENDROOT
BRANCH   1  23
ATOM     22  C   UNL     1       6.786   3.039 -22.538  0.00  0.00    +0.277 C 
ATOM     23  O   UNL     1       5.759   2.819 -23.217  0.00  0.00    -0.491 OA
ENDBRANCH   1  23
TORSDOF 1
ENDMDL
MODEL 6
REMARK VINA RESULT:    -8.350      3.601      6.772
REMARK INTER + INTRA:          -8.960
REMARK INTER:                  -8.851
REMARK INTRA:                  -0.109
REMARK UNBOUND:                -0.122
REMARK  Name = COc1ccc2c3c1O[C@@H]1[C@@H](Cl)C=C[C@H]4[C@@H](C2)N(C)CC[C@]314       ZINC000253504149
REMARK  3 active torsions:
REMARK  status: ('A' for Active; 'I' for Inactive)
REMARK    1  A    between atoms: C_1  and  O_2
REMARK    2  A    between atoms: O_2  and  C_3
REMARK    3  A    between atoms: N_18  and  C_19
REMARK                            x       y       z     vdW  Elec       q    Type
REMARK                         _______ _______ _______ _____ _____    ______ ____
ROOT
ATOM      1  C   UNL     1      -0.060   3.659 -23.396  0.00  0.00    +0.162 A 
ATOM      2  C   UNL     1      -0.679   2.674 -22.903  0.00  0.00    +0.050 A 
ATOM      3  C   UNL     1      -0.060   1.773 -22.299  0.00  0.00    +0.008 A 
ATOM      4  C   UNL     1       1.184   1.847 -22.181  0.00  0.00    -0.034 A 
ATOM      5  C   UNL     1       1.821   2.819 -22.663  0.00  0.00    +0.012 A 
ATOM      6  C   UNL     1       3.060   2.888 -22.542  0.00  0.00    +0.054 C 
ATOM      7  C   UNL     1       4.471   3.075 -22.468  0.00  0.00    +0.067 C 
ATOM      8  C   UNL     1       5.198   2.076 -21.793  0.00  0.00    +0.132 C 
ATOM      9  N   UNL     1       4.475   0.992 -21.257  0.00  0.00    +0.236 N 
ATOM     10  H   UNL     1       4.951   0.241 -20.758  0.00  0.00    +0.203 HD
ATOM     11  C   UNL     1       5.043   0.064 -20.643  0.00  0.00    +0.190 C 
ATOM     12  C   UNL     1       3.064   1.005 -21.447  0.00  0.00    +0.076 C 
ATOM     13  C   UNL     1       3.685   1.989 -21.939  0.00  0.00    +0.075 C 
ATOM     14  C   UNL     1       4.941   2.060 -21.817  0.00  0.00    -0.020 C 
ATOM     15  C   UNL     1       5.559   3.031 -22.302  0.00  0.00    -0.008 C 
ATOM     16  C   UNL     1       4.940   3.945 -22.914  0.00  0.00    +0.144 C 
ATOM     17 CL   UNL     1       5.562   4.914 -23.396  0.00  0.00    -0.113 Cl
ATOM     18  C   UNL     1       3.696   3.871 -23.032  0.00  0.00    +0.207 C 
ATOM     19  O   UNL     1       2.440   4.514 -23.568  0.00  0.00    -0.482 OA
ATOM     20  C   UNL     1       1.822   0.932 -21.566  0.00  0.00    +0.090 C 
ATOM     21  C   UNL     1       1.198   3.729 -23.273  0.00  0.00    +0.167 A 
ENDROOT
BRANCH   1  23
ATOM     22  C   UNL     1      -1.935   4.558 -24.001  0.00  0.00    +0.277 C 
ATOM     23  O   UNL     1      -0.684   4.557 -23.999  0.00  0.00    -0.491 OA
ENDBRANCH   1  23
TORSDOF 1
ENDMDL
MODEL 7
REMARK VINA RESULT:    -8.258      2.109      3.300
REMARK INTER + INTRA:          -8.862
REMARK INTER:                  -8.738
REMARK INTRA:                  -0.124
REMARK UNBOUND:                -0.122
REMARK  Name = COc1ccc2c3c1O[C@@H]1[C@@H](Cl)C=C[C@H]4[C@@H](C2)N(C)CC[C@]314       ZINC000253504149
REMARK  3 active torsions:
REMARK  status: ('A' for Active; 'I' for Inactive)
REMARK    1  A    between atoms: C_1  and  O_2
REMARK    2  A    between atoms: O_2  and  C_3
REMARK    3  A    between atoms: N_18  and  C_19
REMARK                            x       y       z     vdW  Elec       q    Type
REMARK                         _______ _______ _______ _____ _____    ______ ____
ROOT
ATOM      1  C   UNL     1      -0.249   3.588 -24.847  0.00  0.00    +0.162 A 
ATOM      2  C   UNL     1      -0.831   3.550 -25.968  0.00  0.00    +0.050 A 
ATOM      3  C   UNL     1      -2.077   3.502 -26.034  0.00  0.00    +0.008 A 
ATOM      4  C   UNL     1      -2.754   3.492 -24.981  0.00  0.00    -0.034 A 
ATOM      5  C   UNL     1      -2.196   3.530 -23.855  0.00  0.00    +0.012 A 
ATOM      6  C   UNL     1      -2.876   3.519 -22.809  0.00  0.00    +0.054 C 
ATOM      7  C   UNL     1      -3.544   3.513 -21.550  0.00  0.00    +0.067 C 
ATOM      8  C   UNL     1      -4.950   3.459 -21.591  0.00  0.00    +0.132 C 
ATOM      9  N   UNL     1      -5.565   3.417 -22.858  0.00  0.00    +0.236 N 
ATOM     10  H   UNL     1      -6.581   3.378 -22.946  0.00  0.00    +0.203 HD
ATOM     11  C   UNL     1      -6.807   3.369 -22.983  0.00  0.00    +0.190 C 
ATOM     12  C   UNL     1      -4.704   3.433 -23.991  0.00  0.00    +0.076 C 
ATOM     13  C   UNL     1      -4.123   3.471 -22.870  0.00  0.00    +0.075 C 
ATOM     14  C   UNL     1      -4.811   3.461 -21.809  0.00  0.00    -0.020 C 
ATOM     15  C   UNL     1      -4.241   3.499 -20.698  0.00  0.00    -0.008 C 
ATOM     16  C   UNL     1      -2.982   3.547 -20.624  0.00  0.00    +0.144 C 
ATOM     17 CL   UNL     1      -2.417   3.585 -19.511  0.00  0.00    -0.113 Cl
ATOM     18  C   UNL     1      -2.305   3.557 -21.676  0.00  0.00    +0.207 C 
ATOM     19  O   UNL     1      -0.925   3.600 -22.288  0.00  0.00    -0.482 OA
ATOM     20  C   UNL     1      -4.026   3.443 -25.041  0.00  0.00    +0.090 C 
ATOM     21  C   UNL     1      -0.938   3.578 -23.786  0.00  0.00    +0.167 A 
ENDROOT
BRANCH   1  23
ATOM     22  C   UNL     1       1.687   2.765 -25.363  0.00  0.00    +0.277 C 
ATOM     23  O   UNL     1       0.998   3.636 -24.787  0.00  0.00    -0.491 OA
ENDBRANCH   1  23
TORSDOF 1
ENDMDL
