MODEL 1
REMARK VINA RESULT:   -10.748      0.000      0.000
REMARK INTER + INTRA:         -12.153
REMARK INTER:                 -12.001
REMARK INTRA:                  -0.151
REMARK UNBOUND:                -0.148
REMARK  Name = ZINC000014447051
REMARK  4 active torsions:
REMARK  status: ('A' for Active; 'I' for Inactive)
REMARK    1  A    between atoms: C_1  and  O_2
REMARK    2  A    between atoms: O_2  and  C_3
REMARK    3  A    between atoms: C_15  and  O_16
REMARK    4  A    between atoms: N_19  and  C_20
REMARK                            x       y       z     vdW  Elec       q    Type
REMARK                         _______ _______ _______ _____ _____    ______ ____
ROOT
ATOM      1  C   UNL     1       0.517   2.578 -23.278  0.00  0.00    +0.162 A 
ATOM      2  C   UNL     1       0.499   2.053 -22.127  0.00  0.00    +0.050 A 
ATOM      3  C   UNL     1      -0.575   1.951 -21.493  0.00  0.00    +0.008 A 
ATOM      4  C   UNL     1      -1.639   2.372 -21.998  0.00  0.00    -0.034 A 
ATOM      5  C   UNL     1      -1.644   2.899 -23.145  0.00  0.00    +0.015 A 
ATOM      6  C   UNL     1      -2.709   3.318 -23.648  0.00  0.00    +0.086 C 
ATOM      7  C   UNL     1      -3.858   3.830 -24.321  0.00  0.00    +0.070 C 
ATOM      8  C   UNL     1      -5.083   3.729 -23.630  0.00  0.00    +0.132 C 
ATOM      9  N   UNL     1      -5.067   3.140 -22.352  0.00  0.00    +0.238 N 
ATOM     10  H   UNL     1      -5.933   3.049 -21.820  0.00  0.00    +0.203 HD
ATOM     11  C   UNL     1      -6.111   3.013 -21.674  0.00  0.00    +0.191 C 
ATOM     12  C   UNL     1      -3.804   2.692 -21.864  0.00  0.00    +0.106 C 
ATOM     13  C   UNL     1      -3.779   3.216 -23.014  0.00  0.00    +0.141 C 
ATOM     14  C   UNL     1      -4.862   3.638 -23.516  0.00  0.00    +0.017 C 
ATOM     15  C   UNL     1      -4.857   4.161 -24.656  0.00  0.00    +0.049 C 
ATOM     16  C   UNL     1      -3.777   4.269 -25.308  0.00  0.00    +0.197 C 
ATOM     17  O   UNL     1      -3.776   4.791 -26.445  0.00  0.00    -0.289 OA
ATOM     18  C   UNL     1      -2.707   3.849 -24.804  0.00  0.00    +0.257 C 
ATOM     19  O   UNL     1      -1.216   3.660 -24.968  0.00  0.00    -0.476 OA
ATOM     20  C   UNL     1      -2.740   2.273 -21.360  0.00  0.00    +0.093 C 
ATOM     21  C   UNL     1      -0.562   3.003 -23.789  0.00  0.00    +0.167 A 
ENDROOT
BRANCH   1  23
ATOM     22  C   UNL     1       2.234   3.752 -23.891  0.00  0.00    +0.277 C 
ATOM     23  O   UNL     1       1.593   2.677 -23.908  0.00  0.00    -0.491 OA
ENDBRANCH   1  23
BRANCH  13  24
ATOM     24  O   UNL     1      -2.717   2.794 -22.504  0.00  0.00    -0.378 OA
ATOM     25  H   UNL     1      -1.967   3.042 -23.068  0.00  0.00    +0.211 HD
ENDBRANCH  13  24
TORSDOF 2
ENDMDL
MODEL 2
REMARK VINA RESULT:   -10.361      1.837      5.435
REMARK INTER + INTRA:         -11.720
REMARK INTER:                 -11.588
REMARK INTRA:                  -0.132
REMARK UNBOUND:                -0.148
REMARK  Name = ZINC000014447051
REMARK  4 active torsions:
REMARK  status: ('A' for Active; 'I' for Inactive)
REMARK    1  A    between atoms: C_1  and  O_2
REMARK    2  A    between atoms: O_2  and  C_3
REMARK    3  A    between atoms: C_15  and  O_16
REMARK    4  A    between atoms: N_19  and  C_20
REMARK                            x       y       z     vdW  Elec       q    Type
REMARK                         _______ _______ _______ _____ _____    ______ ____
ROOT
ATOM      1  C   UNL     1      -4.531   3.409 -22.480  0.00  0.00    +0.162 A 
ATOM      2  C   UNL     1      -4.797   3.877 -23.626  0.00  0.00    +0.050 A 
ATOM      3  C   UNL     1      -3.911   3.940 -24.506  0.00  0.00    +0.008 A 
ATOM      4  C   UNL     1      -2.753   3.539 -24.256  0.00  0.00    -0.034 A 
ATOM      5  C   UNL     1      -2.466   3.068 -23.121  0.00  0.00    +0.015 A 
ATOM      6  C   UNL     1      -1.308   2.668 -22.873  0.00  0.00    +0.086 C 
ATOM      7  C   UNL     1      -0.026   2.182 -22.477  0.00  0.00    +0.070 C 
ATOM      8  C   UNL     1       0.993   2.241 -23.450  0.00  0.00    +0.132 C 
ATOM      9  N   UNL     1       0.661   2.767 -24.713  0.00  0.00    +0.238 N 
ATOM     10  H   UNL     1       1.371   2.826 -25.444  0.00  0.00    +0.203 HD
ATOM     11  C   UNL     1       1.508   2.854 -25.631  0.00  0.00    +0.191 C 
ATOM     12  C   UNL     1      -0.685   3.198 -24.900  0.00  0.00    +0.106 C 
ATOM     13  C   UNL     1      -0.426   2.732 -23.754  0.00  0.00    +0.141 C 
ATOM     14  C   UNL     1       0.749   2.328 -23.511  0.00  0.00    +0.017 C 
ATOM     15  C   UNL     1       1.026   1.862 -22.380  0.00  0.00    +0.049 C 
ATOM     16  C   UNL     1       0.139   1.793 -21.480  0.00  0.00    +0.197 C 
ATOM     17  O   UNL     1       0.418   1.327 -20.353  0.00  0.00    -0.289 OA
ATOM     18  C   UNL     1      -1.024   2.195 -21.727  0.00  0.00    +0.257 C 
ATOM     19  O   UNL     1      -2.432   2.400 -21.213  0.00  0.00    -0.476 OA
ATOM     20  C   UNL     1      -1.843   3.599 -25.148  0.00  0.00    +0.093 C 
ATOM     21  C   UNL     1      -3.357   3.002 -22.228  0.00  0.00    +0.167 A 
ENDROOT
BRANCH   1  23
ATOM     22  C   UNL     1      -6.430   2.630 -21.780  0.00  0.00    +0.277 C 
ATOM     23  O   UNL     1      -5.420   3.348 -21.602  0.00  0.00    -0.491 OA
ENDBRANCH   1  23
BRANCH  13  24
ATOM     24  O   UNL     1      -1.583   3.135 -24.009  0.00  0.00    -0.378 OA
ATOM     25  H   UNL     1      -1.536   3.874 -24.635  0.00  0.00    +0.211 HD
ENDBRANCH  13  24
TORSDOF 2
ENDMDL
MODEL 3
REMARK VINA RESULT:   -10.061      1.301      2.982
REMARK INTER + INTRA:         -11.385
REMARK INTER:                 -11.247
REMARK INTRA:                  -0.138
REMARK UNBOUND:                -0.148
REMARK  Name = ZINC000014447051
REMARK  4 active torsions:
REMARK  status: ('A' for Active; 'I' for Inactive)
REMARK    1  A    between atoms: C_1  and  O_2
REMARK    2  A    between atoms: O_2  and  C_3
REMARK    3  A    between atoms: C_15  and  O_16
REMARK    4  A    between atoms: N_19  and  C_20
REMARK                            x       y       z     vdW  Elec       q    Type
REMARK                         _______ _______ _______ _____ _____    ______ ____
ROOT
ATOM      1  C   UNL     1       0.953   2.350 -22.718  0.00  0.00    +0.162 A 
ATOM      2  C   UNL     1       1.243   2.705 -23.898  0.00  0.00    +0.050 A 
ATOM      3  C   UNL     1       0.354   3.128 -24.669  0.00  0.00    +0.008 A 
ATOM      4  C   UNL     1      -0.831   3.203 -24.274  0.00  0.00    -0.034 A 
ATOM      5  C   UNL     1      -1.142   2.855 -23.102  0.00  0.00    +0.015 A 
ATOM      6  C   UNL     1      -2.327   2.930 -22.710  0.00  0.00    +0.086 C 
ATOM      7  C   UNL     1      -3.639   2.972 -22.153  0.00  0.00    +0.070 C 
ATOM      8  C   UNL     1      -4.663   3.446 -23.000  0.00  0.00    +0.132 C 
ATOM      9  N   UNL     1      -4.305   3.831 -24.306  0.00  0.00    +0.238 N 
ATOM     10  H   UNL     1      -5.016   4.179 -24.949  0.00  0.00    +0.203 HD
ATOM     11  C   UNL     1      -5.153   4.262 -25.119  0.00  0.00    +0.191 C 
ATOM     12  C   UNL     1      -2.929   3.709 -24.660  0.00  0.00    +0.106 C 
ATOM     13  C   UNL     1      -3.212   3.353 -23.481  0.00  0.00    +0.141 C 
ATOM     14  C   UNL     1      -4.414   3.433 -23.091  0.00  0.00    +0.017 C 
ATOM     15  C   UNL     1      -4.715   3.085 -21.925  0.00  0.00    +0.049 C 
ATOM     16  C   UNL     1      -3.824   2.654 -21.134  0.00  0.00    +0.197 C 
ATOM     17  O   UNL     1      -4.127   2.308 -19.971  0.00  0.00    -0.289 OA
ATOM     18  C   UNL     1      -2.634   2.578 -21.527  0.00  0.00    +0.257 C 
ATOM     19  O   UNL     1      -1.208   2.208 -21.188  0.00  0.00    -0.476 OA
ATOM     20  C   UNL     1      -1.744   3.634 -25.054  0.00  0.00    +0.093 C 
ATOM     21  C   UNL     1      -0.248   2.427 -22.319  0.00  0.00    +0.167 A 
ENDROOT
BRANCH   1  23
ATOM     22  C   UNL     1       2.354   0.799 -22.139  0.00  0.00    +0.277 C 
ATOM     23  O   UNL     1       1.845   1.927 -21.949  0.00  0.00    -0.491 OA
ENDBRANCH   1  23
BRANCH  13  24
ATOM     24  O   UNL     1      -2.028   3.280 -23.881  0.00  0.00    -0.378 OA
ATOM     25  H   UNL     1      -1.762   2.349 -23.935  0.00  0.00    +0.211 HD
ENDBRANCH  13  24
TORSDOF 2
ENDMDL
MODEL 4
REMARK VINA RESULT:    -9.730      1.932      4.886
REMARK INTER + INTRA:         -11.016
REMARK INTER:                 -10.906
REMARK INTRA:                  -0.110
REMARK UNBOUND:                -0.148
REMARK  Name = ZINC000014447051
REMARK  4 active torsions:
REMARK  status: ('A' for Active; 'I' for Inactive)
REMARK    1  A    between atoms: C_1  and  O_2
REMARK    2  A    between atoms: O_2  and  C_3
REMARK    3  A    between atoms: C_15  and  O_16
REMARK    4  A    between atoms: N_19  and  C_20
REMARK                            x       y       z     vdW  Elec       q    Type
REMARK                         _______ _______ _______ _____ _____    ______ ____
ROOT
ATOM      1  C   UNL     1      -3.569   3.502 -22.999  0.00  0.00    +0.162 A 
ATOM      2  C   UNL     1      -3.776   2.859 -21.929  0.00  0.00    +0.050 A 
ATOM      3  C   UNL     1      -2.841   2.249 -21.364  0.00  0.00    +0.008 A 
ATOM      4  C   UNL     1      -1.692   2.273 -21.859  0.00  0.00    -0.034 A 
ATOM      5  C   UNL     1      -1.463   2.908 -22.926  0.00  0.00    +0.015 A 
ATOM      6  C   UNL     1      -0.314   2.930 -23.418  0.00  0.00    +0.086 C 
ATOM      7  C   UNL     1       0.950   3.026 -24.070  0.00  0.00    +0.070 C 
ATOM      8  C   UNL     1       2.024   2.348 -23.457  0.00  0.00    +0.132 C 
ATOM      9  N   UNL     1       1.757   1.643 -22.268  0.00  0.00    +0.238 N 
ATOM     10  H   UNL     1       2.508   1.140 -21.794  0.00  0.00    +0.203 HD
ATOM     11  C   UNL     1       2.655   1.015 -21.662  0.00  0.00    +0.191 C 
ATOM     12  C   UNL     1       0.416   1.676 -21.784  0.00  0.00    +0.106 C 
ATOM     13  C   UNL     1       0.617   2.320 -22.853  0.00  0.00    +0.141 C 
ATOM     14  C   UNL     1       1.783   2.338 -23.346  0.00  0.00    +0.017 C 
ATOM     15  C   UNL     1       2.002   2.972 -24.406  0.00  0.00    +0.049 C 
ATOM     16  C   UNL     1       1.064   3.593 -24.987  0.00  0.00    +0.197 C 
ATOM     17  O   UNL     1       1.285   4.224 -26.044  0.00  0.00    -0.289 OA
ATOM     18  C   UNL     1      -0.090   3.572 -24.493  0.00  0.00    +0.257 C 
ATOM     19  O   UNL     1      -1.529   4.022 -24.611  0.00  0.00    -0.476 OA
ATOM     20  C   UNL     1      -0.732   1.653 -21.291  0.00  0.00    +0.093 C 
ATOM     21  C   UNL     1      -2.404   3.525 -23.499  0.00  0.00    +0.167 A 
ENDROOT
BRANCH   1  23
ATOM     22  C   UNL     1      -4.914   3.738 -24.683  0.00  0.00    +0.277 C 
ATOM     23  O   UNL     1      -4.506   4.111 -23.560  0.00  0.00    -0.491 OA
ENDBRANCH   1  23
BRANCH  13  24
ATOM     24  O   UNL     1      -0.531   2.294 -22.354  0.00  0.00    -0.378 OA
ATOM     25  H   UNL     1      -1.176   2.593 -23.014  0.00  0.00    +0.211 HD
ENDBRANCH  13  24
TORSDOF 2
ENDMDL
MODEL 5
REMARK VINA RESULT:    -9.709      2.659      6.443
REMARK INTER + INTRA:         -10.992
REMARK INTER:                 -10.866
REMARK INTRA:                  -0.126
REMARK UNBOUND:                -0.148
REMARK  Name = ZINC000014447051
REMARK  4 active torsions:
REMARK  status: ('A' for Active; 'I' for Inactive)
REMARK    1  A    between atoms: C_1  and  O_2
REMARK    2  A    between atoms: O_2  and  C_3
REMARK    3  A    between atoms: C_15  and  O_16
REMARK    4  A    between atoms: N_19  and  C_20
REMARK                            x       y       z     vdW  Elec       q    Type
REMARK                         _______ _______ _______ _____ _____    ______ ____
ROOT
ATOM      1  C   UNL     1      -1.720   3.274 -23.272  0.00  0.00    +0.162 A 
ATOM      2  C   UNL     1      -1.758   4.509 -23.544  0.00  0.00    +0.050 A 
ATOM      3  C   UNL     1      -0.703   5.181 -23.586  0.00  0.00    +0.008 A 
ATOM      4  C   UNL     1       0.396   4.631 -23.358  0.00  0.00    -0.034 A 
ATOM      5  C   UNL     1       0.457   3.400 -23.084  0.00  0.00    +0.015 A 
ATOM      6  C   UNL     1       1.557   2.853 -22.856  0.00  0.00    +0.086 C 
ATOM      7  C   UNL     1       2.751   2.123 -22.579  0.00  0.00    +0.070 C 
ATOM      8  C   UNL     1       3.955   2.855 -22.619  0.00  0.00    +0.132 C 
ATOM      9  N   UNL     1       3.877   4.227 -22.925  0.00  0.00    +0.238 N 
ATOM     10  H   UNL     1       4.726   4.791 -22.964  0.00  0.00    +0.203 HD
ATOM     11  C   UNL     1       4.899   4.946 -22.981  0.00  0.00    +0.191 C 
ATOM     12  C   UNL     1       2.577   4.760 -23.170  0.00  0.00    +0.106 C 
ATOM     13  C   UNL     1       2.608   3.526 -22.898  0.00  0.00    +0.141 C 
ATOM     14  C   UNL     1       3.726   2.979 -22.668  0.00  0.00    +0.017 C 
ATOM     15  C   UNL     1       3.777   1.755 -22.397  0.00  0.00    +0.049 C 
ATOM     16  C   UNL     1       2.717   1.064 -22.351  0.00  0.00    +0.197 C 
ATOM     17  O   UNL     1       2.771  -0.156 -22.081  0.00  0.00    -0.289 OA
ATOM     18  C   UNL     1       1.611   1.612 -22.580  0.00  0.00    +0.257 C 
ATOM     19  O   UNL     1       0.113   1.447 -22.693  0.00  0.00    -0.476 OA
ATOM     20  C   UNL     1       1.477   5.308 -23.398  0.00  0.00    +0.093 C 
ATOM     21  C   UNL     1      -0.605   2.718 -23.040  0.00  0.00    +0.167 A 
ENDROOT
BRANCH   1  23
ATOM     22  C   UNL     1      -3.724   2.972 -22.499  0.00  0.00    +0.277 C 
ATOM     23  O   UNL     1      -2.777   2.605 -23.230  0.00  0.00    -0.491 OA
ENDBRANCH   1  23
BRANCH  13  24
ATOM     24  O   UNL     1       1.510   4.080 -23.128  0.00  0.00    -0.378 OA
ATOM     25  H   UNL     1       1.604   4.686 -23.880  0.00  0.00    +0.211 HD
ENDBRANCH  13  24
TORSDOF 2
ENDMDL
MODEL 6
REMARK VINA RESULT:    -9.671      1.303      1.872
REMARK INTER + INTRA:         -10.950
REMARK INTER:                 -10.822
REMARK INTRA:                  -0.128
REMARK UNBOUND:                -0.148
REMARK  Name = ZINC000014447051
REMARK  4 active torsions:
REMARK  status: ('A' for Active; 'I' for Inactive)
REMARK    1  A    between atoms: C_1  and  O_2
REMARK    2  A    between atoms: O_2  and  C_3
REMARK    3  A    between atoms: C_15  and  O_16
REMARK    4  A    between atoms: N_19  and  C_20
REMARK                            x       y       z     vdW  Elec       q    Type
REMARK                         _______ _______ _______ _____ _____    ______ ____
ROOT
ATOM      1  C   UNL     1       2.224   1.934 -23.442  0.00  0.00    +0.162 A 
ATOM      2  C   UNL     1       2.331   1.553 -22.241  0.00  0.00    +0.050 A 
ATOM      3  C   UNL     1       1.332   1.544 -21.487  0.00  0.00    +0.008 A 
ATOM      4  C   UNL     1       0.220   1.915 -21.922  0.00  0.00    -0.034 A 
ATOM      5  C   UNL     1       0.090   2.300 -23.117  0.00  0.00    +0.015 A 
ATOM      6  C   UNL     1      -1.023   2.670 -23.549  0.00  0.00    +0.086 C 
ATOM      7  C   UNL     1      -2.238   3.113 -24.151  0.00  0.00    +0.070 C 
ATOM      8  C   UNL     1      -3.380   3.115 -23.324  0.00  0.00    +0.132 C 
ATOM      9  N   UNL     1      -3.225   2.684 -21.993  0.00  0.00    +0.238 N 
ATOM     10  H   UNL     1      -4.028   2.671 -21.364  0.00  0.00    +0.203 HD
ATOM     11  C   UNL     1      -4.190   2.656 -21.196  0.00  0.00    +0.191 C 
ATOM     12  C   UNL     1      -1.917   2.281 -21.594  0.00  0.00    +0.106 C 
ATOM     13  C   UNL     1      -2.017   2.661 -22.795  0.00  0.00    +0.141 C 
ATOM     14  C   UNL     1      -3.148   3.035 -23.225  0.00  0.00    +0.017 C 
ATOM     15  C   UNL     1      -3.267   3.415 -24.414  0.00  0.00    +0.049 C 
ATOM     16  C   UNL     1      -2.265   3.428 -25.187  0.00  0.00    +0.197 C 
ATOM     17  O   UNL     1      -2.387   3.808 -26.373  0.00  0.00    -0.289 OA
ATOM     18  C   UNL     1      -1.146   3.056 -24.755  0.00  0.00    +0.257 C 
ATOM     19  O   UNL     1       0.318   2.828 -25.055  0.00  0.00    -0.476 OA
ATOM     20  C   UNL     1      -0.805   1.911 -21.160  0.00  0.00    +0.093 C 
ATOM     21  C   UNL     1       1.095   2.310 -23.881  0.00  0.00    +0.167 A 
ENDROOT
BRANCH   1  23
ATOM     22  C   UNL     1       4.247   2.589 -23.872  0.00  0.00    +0.277 C 
ATOM     23  O   UNL     1       3.225   1.941 -24.193  0.00  0.00    -0.491 OA
ENDBRANCH   1  23
BRANCH  13  24
ATOM     24  O   UNL     1      -0.906   2.289 -22.356  0.00  0.00    -0.378 OA
ATOM     25  H   UNL     1      -0.392   3.064 -22.080  0.00  0.00    +0.211 HD
ENDBRANCH  13  24
TORSDOF 2
ENDMDL
MODEL 7
REMARK VINA RESULT:    -9.061      1.855      4.406
REMARK INTER + INTRA:         -10.269
REMARK INTER:                 -10.120
REMARK INTRA:                  -0.148
REMARK UNBOUND:                -0.148
REMARK  Name = ZINC000014447051
REMARK  4 active torsions:
REMARK  status: ('A' for Active; 'I' for Inactive)
REMARK    1  A    between atoms: C_1  and  O_2
REMARK    2  A    between atoms: O_2  and  C_3
REMARK    3  A    between atoms: C_15  and  O_16
REMARK    4  A    between atoms: N_19  and  C_20
REMARK                            x       y       z     vdW  Elec       q    Type
REMARK                         _______ _______ _______ _____ _____    ______ ____
ROOT
ATOM      1  C   UNL     1      -4.882   3.394 -21.757  0.00  0.00    +0.162 A 
ATOM      2  C   UNL     1      -4.254   3.328 -20.660  0.00  0.00    +0.050 A 
ATOM      3  C   UNL     1      -3.004   3.297 -20.647  0.00  0.00    +0.008 A 
ATOM      4  C   UNL     1      -2.367   3.331 -21.723  0.00  0.00    -0.034 A 
ATOM      5  C   UNL     1      -2.973   3.397 -22.828  0.00  0.00    +0.015 A 
ATOM      6  C   UNL     1      -2.335   3.430 -23.902  0.00  0.00    +0.086 C 
ATOM      7  C   UNL     1      -1.716   3.474 -25.186  0.00  0.00    +0.070 C 
ATOM      8  C   UNL     1      -0.306   3.441 -25.202  0.00  0.00    +0.132 C 
ATOM      9  N   UNL     1       0.360   3.368 -23.964  0.00  0.00    +0.238 N 
ATOM     10  H   UNL     1       1.380   3.342 -23.933  0.00  0.00    +0.203 HD
ATOM     11  C   UNL     1       1.609   3.334 -23.891  0.00  0.00    +0.191 C 
ATOM     12  C   UNL     1      -0.454   3.334 -22.794  0.00  0.00    +0.106 C 
ATOM     13  C   UNL     1      -1.087   3.399 -23.886  0.00  0.00    +0.141 C 
ATOM     14  C   UNL     1      -0.434   3.433 -24.969  0.00  0.00    +0.017 C 
ATOM     15  C   UNL     1      -1.044   3.498 -26.063  0.00  0.00    +0.049 C 
ATOM     16  C   UNL     1      -2.309   3.530 -26.091  0.00  0.00    +0.197 C 
ATOM     17  O   UNL     1      -2.915   3.595 -27.183  0.00  0.00    -0.289 OA
ATOM     18  C   UNL     1      -2.952   3.496 -25.013  0.00  0.00    +0.257 C 
ATOM     19  O   UNL     1      -4.308   3.498 -24.343  0.00  0.00    -0.476 OA
ATOM     20  C   UNL     1      -1.092   3.300 -21.719  0.00  0.00    +0.093 C 
ATOM     21  C   UNL     1      -4.236   3.428 -22.847  0.00  0.00    +0.167 A 
ENDROOT
BRANCH   1  23
ATOM     22  C   UNL     1      -6.788   2.357 -21.762  0.00  0.00    +0.277 C 
ATOM     23  O   UNL     1      -6.133   3.425 -21.766  0.00  0.00    -0.491 OA
ENDBRANCH   1  23
BRANCH  13  24
ATOM     24  O   UNL     1      -1.720   3.365 -22.807  0.00  0.00    -0.378 OA
ATOM     25  H   UNL     1      -2.345   4.107 -22.775  0.00  0.00    +0.211 HD
ENDBRANCH  13  24
TORSDOF 2
ENDMDL
MODEL 8
REMARK VINA RESULT:    -8.070      3.296      6.979
REMARK INTER + INTRA:          -9.161
REMARK INTER:                  -9.049
REMARK INTRA:                  -0.112
REMARK UNBOUND:                -0.148
REMARK  Name = ZINC000014447051
REMARK  4 active torsions:
REMARK  status: ('A' for Active; 'I' for Inactive)
REMARK    1  A    between atoms: C_1  and  O_2
REMARK    2  A    between atoms: O_2  and  C_3
REMARK    3  A    between atoms: C_15  and  O_16
REMARK    4  A    between atoms: N_19  and  C_20
REMARK                            x       y       z     vdW  Elec       q    Type
REMARK                         _______ _______ _______ _____ _____    ______ ____
ROOT
ATOM      1  C   UNL     1      -0.078   3.666 -23.395  0.00  0.00    +0.162 A 
ATOM      2  C   UNL     1      -0.686   2.680 -22.886  0.00  0.00    +0.050 A 
ATOM      3  C   UNL     1      -0.053   1.792 -22.272  0.00  0.00    +0.008 A 
ATOM      4  C   UNL     1       1.190   1.877 -22.160  0.00  0.00    -0.034 A 
ATOM      5  C   UNL     1       1.817   2.852 -22.660  0.00  0.00    +0.015 A 
ATOM      6  C   UNL     1       3.059   2.934 -22.547  0.00  0.00    +0.086 C 
ATOM      7  C   UNL     1       4.470   3.134 -22.481  0.00  0.00    +0.070 C 
ATOM      8  C   UNL     1       5.210   2.148 -21.795  0.00  0.00    +0.132 C 
ATOM      9  N   UNL     1       4.501   1.066 -21.241  0.00  0.00    +0.238 N 
ATOM     10  H   UNL     1       5.000   0.332 -20.738  0.00  0.00    +0.203 HD
ATOM     11  C   UNL     1       5.083   0.150 -20.618  0.00  0.00    +0.191 C 
ATOM     12  C   UNL     1       3.086   1.060 -21.423  0.00  0.00    +0.106 C 
ATOM     13  C   UNL     1       3.688   2.047 -21.934  0.00  0.00    +0.141 C 
ATOM     14  C   UNL     1       4.946   2.124 -21.815  0.00  0.00    +0.017 C 
ATOM     15  C   UNL     1       5.561   3.095 -22.315  0.00  0.00    +0.049 C 
ATOM     16  C   UNL     1       4.933   4.000 -22.938  0.00  0.00    +0.197 C 
ATOM     17  O   UNL     1       5.549   4.968 -23.436  0.00  0.00    -0.289 OA
ATOM     18  C   UNL     1       3.685   3.919 -23.053  0.00  0.00    +0.257 C 
ATOM     19  O   UNL     1       2.417   4.542 -23.592  0.00  0.00    -0.476 OA
ATOM     20  C   UNL     1       1.844   0.976 -21.536  0.00  0.00    +0.093 C 
ATOM     21  C   UNL     1       1.182   3.750 -23.280  0.00  0.00    +0.167 A 
ENDROOT
BRANCH   1  23
ATOM     22  C   UNL     1      -1.959   4.472 -24.112  0.00  0.00    +0.277 C 
ATOM     23  O   UNL     1      -0.714   4.551 -24.008  0.00  0.00    -0.491 OA
ENDBRANCH   1  23
BRANCH  13  24
ATOM     24  O   UNL     1       2.445   1.958 -22.044  0.00  0.00    -0.378 OA
ATOM     25  H   UNL     1       2.026   2.707 -21.591  0.00  0.00    +0.211 HD
ENDBRANCH  13  24
TORSDOF 2
ENDMDL
