MODEL 1
REMARK VINA RESULT:    -9.601      0.000      0.000
REMARK INTER + INTRA:         -10.589
REMARK INTER:                 -10.734
REMARK INTRA:                   0.144
REMARK UNBOUND:                 0.134
REMARK  Name = ZINC000071325812
REMARK  5 active torsions:
REMARK  status: ('A' for Active; 'I' for Inactive)
REMARK    1  A    between atoms: C_1  and  C_2
REMARK    2  A    between atoms: C_2  and  O_4
REMARK    3  A    between atoms: O_4  and  C_5
REMARK    4  A    between atoms: C_15  and  C_16
REMARK    5  A    between atoms: C_21  and  C_22
REMARK                            x       y       z     vdW  Elec       q    Type
REMARK                         _______ _______ _______ _____ _____    ______ ____
ROOT
ATOM      1  C   UNL     1      -2.662   3.660 -23.606  0.00  0.00    +0.203 C 
ATOM      2  C   UNL     1      -1.694   3.594 -23.844  0.00  0.00    +0.054 C 
ATOM      3  C   UNL     1      -1.231   4.055 -24.882  0.00  0.00    +0.046 C 
ATOM      4  C   UNL     1      -0.346   3.774 -24.686  0.00  0.00    +0.037 C 
ATOM      5  C   UNL     1      -0.381   3.190 -23.579  0.00  0.00    +0.032 C 
ATOM      6  C   UNL     1       0.780   2.814 -23.307  0.00  0.00    +0.234 C 
ATOM      7  C   UNL     1       0.999   2.218 -22.272  0.00  0.00    +0.045 A 
ATOM      8  C   UNL     1       2.141   1.821 -21.953  0.00  0.00    -0.005 A 
ATOM      9  C   UNL     1       2.053   1.244 -20.838  0.00  0.00    +0.199 A 
ATOM     10  O   UNL     1       0.853   1.290 -20.474  0.00  0.00    -0.463 OA
ATOM     11  C   UNL     1       3.192   1.973 -22.632  0.00  0.00    +0.047 C 
ATOM     12  C   UNL     1       0.197   1.892 -21.360  0.00  0.00    +0.135 A 
ATOM     13  C   UNL     1      -2.064   2.325 -21.325  0.00  0.00    +0.049 C 
ATOM     14  O   UNL     1       1.535   3.163 -24.245  0.00  0.00    -0.449 OA
ATOM     15  C   UNL     1       0.835   3.758 -25.100  0.00  0.00    +0.336 C 
ATOM     16  O   UNL     1       1.250   4.249 -26.177  0.00  0.00    -0.245 OA
ATOM     17  C   UNL     1      -3.072   3.093 -22.388  0.00  0.00    -0.029 C 
ATOM     18  C   UNL     1      -4.328   3.193 -22.105  0.00  0.00    +0.043 C 
ENDROOT
BRANCH   1  19
ATOM     19  O   UNL     1      -3.341   4.313 -24.578  0.00  0.00    -0.457 OA
BRANCH  19  21
ATOM     20  C   UNL     1      -4.690   3.155 -25.836  0.00  0.00    +0.136 C 
ATOM     21  C   UNL     1      -4.478   4.164 -25.060  0.00  0.00    +0.305 C 
ATOM     22  O   UNL     1      -5.379   4.943 -24.814  0.00  0.00    -0.251 OA
ENDBRANCH  19  21
ENDBRANCH   1  19
TORSDOF 2
ENDMDL
MODEL 2
REMARK VINA RESULT:    -9.486      1.590      5.307
REMARK INTER + INTRA:         -10.461
REMARK INTER:                 -10.831
REMARK INTRA:                   0.370
REMARK UNBOUND:                 0.134
REMARK  Name = ZINC000071325812
REMARK  5 active torsions:
REMARK  status: ('A' for Active; 'I' for Inactive)
REMARK    1  A    between atoms: C_1  and  C_2
REMARK    2  A    between atoms: C_2  and  O_4
REMARK    3  A    between atoms: O_4  and  C_5
REMARK    4  A    between atoms: C_15  and  C_16
REMARK    5  A    between atoms: C_21  and  C_22
REMARK                            x       y       z     vdW  Elec       q    Type
REMARK                         _______ _______ _______ _____ _____    ______ ____
ROOT
ATOM      1  C   UNL     1       0.375   2.306 -23.503  0.00  0.00    +0.203 C 
ATOM      2  C   UNL     1      -0.491   2.610 -23.899  0.00  0.00    +0.054 C 
ATOM      3  C   UNL     1      -0.605   2.935 -25.077  0.00  0.00    +0.046 C 
ATOM      4  C   UNL     1      -1.530   3.133 -24.997  0.00  0.00    +0.037 C 
ATOM      5  C   UNL     1      -1.854   2.909 -23.809  0.00  0.00    +0.032 C 
ATOM      6  C   UNL     1      -3.071   3.165 -23.689  0.00  0.00    +0.234 C 
ATOM      7  C   UNL     1      -3.620   3.023 -22.615  0.00  0.00    +0.045 A 
ATOM      8  C   UNL     1      -4.835   3.266 -22.442  0.00  0.00    -0.005 A 
ATOM      9  C   UNL     1      -5.109   3.026 -21.238  0.00  0.00    +0.199 A 
ATOM     10  O   UNL     1      -4.059   2.635 -20.672  0.00  0.00    -0.463 OA
ATOM     11  C   UNL     1      -5.638   3.677 -23.322  0.00  0.00    +0.047 C 
ATOM     12  C   UNL     1      -3.135   2.632 -21.522  0.00  0.00    +0.135 A 
ATOM     13  C   UNL     1      -0.945   2.023 -21.154  0.00  0.00    +0.049 C 
ATOM     14  O   UNL     1      -3.503   3.548 -24.802  0.00  0.00    -0.449 OA
ATOM     15  C   UNL     1      -2.546   3.528 -25.612  0.00  0.00    +0.336 C 
ATOM     16  O   UNL     1      -2.601   3.847 -26.824  0.00  0.00    -0.245 OA
ATOM     17  C   UNL     1       0.380   1.961 -22.141  0.00  0.00    -0.029 C 
ATOM     18  C   UNL     1       1.511   1.571 -21.654  0.00  0.00    +0.043 C 
ENDROOT
BRANCH   1  19
ATOM     19  O   UNL     1       1.350   2.314 -24.441  0.00  0.00    -0.457 OA
BRANCH  19  21
ATOM     20  C   UNL     1       3.496   2.580 -24.175  0.00  0.00    +0.136 C 
ATOM     21  C   UNL     1       2.494   1.824 -24.475  0.00  0.00    +0.305 C 
ATOM     22  O   UNL     1       2.677   0.662 -24.782  0.00  0.00    -0.251 OA
ENDBRANCH  19  21
ENDBRANCH   1  19
TORSDOF 2
ENDMDL
MODEL 3
REMARK VINA RESULT:    -9.110      1.636      6.244
REMARK INTER + INTRA:         -10.042
REMARK INTER:                 -10.147
REMARK INTRA:                   0.105
REMARK UNBOUND:                 0.134
REMARK  Name = ZINC000071325812
REMARK  5 active torsions:
REMARK  status: ('A' for Active; 'I' for Inactive)
REMARK    1  A    between atoms: C_1  and  C_2
REMARK    2  A    between atoms: C_2  and  O_4
REMARK    3  A    between atoms: O_4  and  C_5
REMARK    4  A    between atoms: C_15  and  C_16
REMARK    5  A    between atoms: C_21  and  C_22
REMARK                            x       y       z     vdW  Elec       q    Type
REMARK                         _______ _______ _______ _____ _____    ______ ____
ROOT
ATOM      1  C   UNL     1       0.415   2.560 -22.898  0.00  0.00    +0.203 C 
ATOM      2  C   UNL     1      -0.541   2.656 -22.623  0.00  0.00    +0.054 C 
ATOM      3  C   UNL     1      -0.932   2.422 -21.485  0.00  0.00    +0.046 C 
ATOM      4  C   UNL     1      -1.836   2.635 -21.684  0.00  0.00    +0.037 C 
ATOM      5  C   UNL     1      -1.878   2.966 -22.891  0.00  0.00    +0.032 C 
ATOM      6  C   UNL     1      -3.063   3.250 -23.168  0.00  0.00    +0.234 C 
ATOM      7  C   UNL     1      -3.357   3.604 -24.293  0.00  0.00    +0.045 A 
ATOM      8  C   UNL     1      -4.527   3.899 -24.622  0.00  0.00    -0.005 A 
ATOM      9  C   UNL     1      -4.517   4.223 -25.838  0.00  0.00    +0.199 A 
ATOM     10  O   UNL     1      -3.337   4.124 -26.254  0.00  0.00    -0.463 OA
ATOM     11  C   UNL     1      -5.535   3.876 -23.865  0.00  0.00    +0.047 C 
ATOM     12  C   UNL     1      -2.616   3.741 -25.299  0.00  0.00    +0.135 A 
ATOM     13  C   UNL     1      -0.347   3.358 -25.373  0.00  0.00    +0.049 C 
ATOM     14  O   UNL     1      -3.756   3.097 -22.135  0.00  0.00    -0.449 OA
ATOM     15  C   UNL     1      -2.993   2.715 -21.215  0.00  0.00    +0.336 C 
ATOM     16  O   UNL     1      -3.333   2.460 -20.035  0.00  0.00    -0.245 OA
ATOM     17  C   UNL     1       0.741   2.859 -24.231  0.00  0.00    -0.029 C 
ATOM     18  C   UNL     1       1.983   2.726 -24.560  0.00  0.00    +0.043 C 
ENDROOT
BRANCH   1  19
ATOM     19  O   UNL     1       1.166   2.146 -21.850  0.00  0.00    -0.457 OA
BRANCH  19  21
ATOM     20  C   UNL     1       3.105   1.565 -21.045  0.00  0.00    +0.136 C 
ATOM     21  C   UNL     1       2.053   1.281 -21.736  0.00  0.00    +0.305 C 
ATOM     22  O   UNL     1       1.944   0.189 -22.259  0.00  0.00    -0.251 OA
ENDBRANCH  19  21
ENDBRANCH   1  19
TORSDOF 2
ENDMDL
MODEL 4
REMARK VINA RESULT:    -8.965      1.469      3.559
REMARK INTER + INTRA:          -9.880
REMARK INTER:                 -10.005
REMARK INTRA:                   0.125
REMARK UNBOUND:                 0.134
REMARK  Name = ZINC000071325812
REMARK  5 active torsions:
REMARK  status: ('A' for Active; 'I' for Inactive)
REMARK    1  A    between atoms: C_1  and  C_2
REMARK    2  A    between atoms: C_2  and  O_4
REMARK    3  A    between atoms: O_4  and  C_5
REMARK    4  A    between atoms: C_15  and  C_16
REMARK    5  A    between atoms: C_21  and  C_22
REMARK                            x       y       z     vdW  Elec       q    Type
REMARK                         _______ _______ _______ _____ _____    ______ ____
ROOT
ATOM      1  C   UNL     1      -2.886   2.847 -23.060  0.00  0.00    +0.203 C 
ATOM      2  C   UNL     1      -1.987   2.571 -22.722  0.00  0.00    +0.054 C 
ATOM      3  C   UNL     1      -1.817   2.085 -21.609  0.00  0.00    +0.046 C 
ATOM      4  C   UNL     1      -0.879   1.990 -21.724  0.00  0.00    +0.037 C 
ATOM      5  C   UNL     1      -0.604   2.421 -22.868  0.00  0.00    +0.032 C 
ATOM      6  C   UNL     1       0.629   2.303 -23.035  0.00  0.00    +0.234 C 
ATOM      7  C   UNL     1       1.138   2.657 -24.079  0.00  0.00    +0.045 A 
ATOM      8  C   UNL     1       2.366   2.561 -24.297  0.00  0.00    -0.005 A 
ATOM      9  C   UNL     1       2.590   3.005 -25.452  0.00  0.00    +0.199 A 
ATOM     10  O   UNL     1       1.495   3.374 -25.944  0.00  0.00    -0.463 OA
ATOM     11  C   UNL     1       3.223   2.100 -23.496  0.00  0.00    +0.047 C 
ATOM     12  C   UNL     1       0.594   3.160 -25.096  0.00  0.00    +0.135 A 
ATOM     13  C   UNL     1      -1.651   3.605 -25.350  0.00  0.00    +0.049 C 
ATOM     14  O   UNL     1       1.119   1.800 -21.997  0.00  0.00    -0.449 OA
ATOM     15  C   UNL     1       0.183   1.606 -21.185  0.00  0.00    +0.336 C 
ATOM     16  O   UNL     1       0.294   1.115 -20.037  0.00  0.00    -0.245 OA
ATOM     17  C   UNL     1      -2.953   3.391 -24.354  0.00  0.00    -0.029 C 
ATOM     18  C   UNL     1      -4.127   3.740 -24.767  0.00  0.00    +0.043 C 
ENDROOT
BRANCH   1  19
ATOM     19  O   UNL     1      -3.835   2.605 -22.126  0.00  0.00    -0.457 OA
BRANCH  19  21
ATOM     20  C   UNL     1      -5.955   2.972 -21.783  0.00  0.00    +0.136 C 
ATOM     21  C   UNL     1      -4.722   3.315 -21.619  0.00  0.00    +0.305 C 
ATOM     22  O   UNL     1      -4.447   4.314 -20.982  0.00  0.00    -0.251 OA
ENDBRANCH  19  21
ENDBRANCH   1  19
TORSDOF 2
ENDMDL
MODEL 5
REMARK VINA RESULT:    -8.593      1.811      5.635
REMARK INTER + INTRA:          -9.464
REMARK INTER:                  -9.588
REMARK INTRA:                   0.124
REMARK UNBOUND:                 0.134
REMARK  Name = ZINC000071325812
REMARK  5 active torsions:
REMARK  status: ('A' for Active; 'I' for Inactive)
REMARK    1  A    between atoms: C_1  and  C_2
REMARK    2  A    between atoms: C_2  and  O_4
REMARK    3  A    between atoms: O_4  and  C_5
REMARK    4  A    between atoms: C_15  and  C_16
REMARK    5  A    between atoms: C_21  and  C_22
REMARK                            x       y       z     vdW  Elec       q    Type
REMARK                         _______ _______ _______ _____ _____    ______ ____
ROOT
ATOM      1  C   UNL     1       2.680   2.181 -22.460  0.00  0.00    +0.203 C 
ATOM      2  C   UNL     1       2.020   2.586 -23.091  0.00  0.00    +0.054 C 
ATOM      3  C   UNL     1       2.349   3.124 -24.143  0.00  0.00    +0.046 C 
ATOM      4  C   UNL     1       1.457   3.342 -24.384  0.00  0.00    +0.037 C 
ATOM      5  C   UNL     1       0.715   2.918 -23.468  0.00  0.00    +0.032 C 
ATOM      6  C   UNL     1      -0.465   3.198 -23.773  0.00  0.00    +0.234 C 
ATOM      7  C   UNL     1      -1.375   2.885 -23.031  0.00  0.00    +0.045 A 
ATOM      8  C   UNL     1      -2.572   3.142 -23.288  0.00  0.00    -0.005 A 
ATOM      9  C   UNL     1      -3.274   2.698 -22.343  0.00  0.00    +0.199 A 
ATOM     10  O   UNL     1      -2.504   2.169 -21.505  0.00  0.00    -0.463 OA
ATOM     11  C   UNL     1      -2.995   3.739 -24.315  0.00  0.00    +0.047 C 
ATOM     12  C   UNL     1      -1.327   2.283 -21.928  0.00  0.00    +0.135 A 
ATOM     13  C   UNL     1       0.578   1.529 -20.878  0.00  0.00    +0.049 C 
ATOM     14  O   UNL     1      -0.456   3.794 -24.875  0.00  0.00    -0.449 OA
ATOM     15  C   UNL     1       0.737   3.882 -25.253  0.00  0.00    +0.336 C 
ATOM     16  O   UNL     1       1.135   4.418 -26.315  0.00  0.00    -0.245 OA
ATOM     17  C   UNL     1       2.180   1.594 -21.286  0.00  0.00    -0.029 C 
ATOM     18  C   UNL     1       3.054   1.076 -20.488  0.00  0.00    +0.043 C 
ENDROOT
BRANCH   1  19
ATOM     19  O   UNL     1       3.937   2.319 -22.942  0.00  0.00    -0.457 OA
BRANCH  19  21
ATOM     20  C   UNL     1       6.057   2.185 -22.460  0.00  0.00    +0.136 C 
ATOM     21  C   UNL     1       4.960   2.864 -22.490  0.00  0.00    +0.305 C 
ATOM     22  O   UNL     1       4.940   4.009 -22.081  0.00  0.00    -0.251 OA
ENDBRANCH  19  21
ENDBRANCH   1  19
TORSDOF 2
ENDMDL
MODEL 6
REMARK VINA RESULT:    -8.264      2.234      4.023
REMARK INTER + INTRA:          -9.097
REMARK INTER:                  -9.228
REMARK INTRA:                   0.130
REMARK UNBOUND:                 0.134
REMARK  Name = ZINC000071325812
REMARK  5 active torsions:
REMARK  status: ('A' for Active; 'I' for Inactive)
REMARK    1  A    between atoms: C_1  and  C_2
REMARK    2  A    between atoms: C_2  and  O_4
REMARK    3  A    between atoms: O_4  and  C_5
REMARK    4  A    between atoms: C_15  and  C_16
REMARK    5  A    between atoms: C_21  and  C_22
REMARK                            x       y       z     vdW  Elec       q    Type
REMARK                         _______ _______ _______ _____ _____    ______ ____
ROOT
ATOM      1  C   UNL     1      -0.163   3.465 -23.094  0.00  0.00    +0.203 C 
ATOM      2  C   UNL     1       0.650   2.898 -22.971  0.00  0.00    +0.054 C 
ATOM      3  C   UNL     1       0.595   1.682 -22.819  0.00  0.00    +0.046 C 
ATOM      4  C   UNL     1       1.537   1.585 -22.748  0.00  0.00    +0.037 C 
ATOM      5  C   UNL     1       2.034   2.729 -22.864  0.00  0.00    +0.032 C 
ATOM      6  C   UNL     1       3.275   2.617 -22.772  0.00  0.00    +0.234 C 
ATOM      7  C   UNL     1       3.982   3.602 -22.855  0.00  0.00    +0.045 A 
ATOM      8  C   UNL     1       5.229   3.544 -22.770  0.00  0.00    -0.005 A 
ATOM      9  C   UNL     1       5.679   4.713 -22.892  0.00  0.00    +0.199 A 
ATOM     10  O   UNL     1       4.704   5.488 -23.052  0.00  0.00    -0.463 OA
ATOM     11  C   UNL     1       5.910   2.499 -22.594  0.00  0.00    +0.047 C 
ATOM     12  C   UNL     1       3.652   4.802 -23.029  0.00  0.00    +0.135 A 
ATOM     13  C   UNL     1       1.503   5.595 -23.264  0.00  0.00    +0.049 C 
ATOM     14  O   UNL     1       3.549   1.406 -22.600  0.00  0.00    -0.449 OA
ATOM     15  C   UNL     1       2.470   0.767 -22.585  0.00  0.00    +0.336 C 
ATOM     16  O   UNL     1       2.350  -0.472 -22.434  0.00  0.00    -0.245 OA
ATOM     17  C   UNL     1       0.028   4.847 -23.260  0.00  0.00    -0.029 C 
ATOM     18  C   UNL     1      -1.039   5.557 -23.417  0.00  0.00    +0.043 C 
ENDROOT
BRANCH   1  19
ATOM     19  O   UNL     1      -1.280   2.700 -23.066  0.00  0.00    -0.457 OA
BRANCH  19  21
ATOM     20  C   UNL     1      -2.530   2.899 -21.293  0.00  0.00    +0.136 C 
ATOM     21  C   UNL     1      -2.411   2.875 -22.578  0.00  0.00    +0.305 C 
ATOM     22  O   UNL     1      -3.391   3.020 -23.283  0.00  0.00    -0.251 OA
ENDBRANCH  19  21
ENDBRANCH   1  19
TORSDOF 2
ENDMDL
MODEL 7
REMARK VINA RESULT:    -8.180      1.416      5.723
REMARK INTER + INTRA:          -9.003
REMARK INTER:                  -9.306
REMARK INTRA:                   0.304
REMARK UNBOUND:                 0.134
REMARK  Name = ZINC000071325812
REMARK  5 active torsions:
REMARK  status: ('A' for Active; 'I' for Inactive)
REMARK    1  A    between atoms: C_1  and  C_2
REMARK    2  A    between atoms: C_2  and  O_4
REMARK    3  A    between atoms: O_4  and  C_5
REMARK    4  A    between atoms: C_15  and  C_16
REMARK    5  A    between atoms: C_21  and  C_22
REMARK                            x       y       z     vdW  Elec       q    Type
REMARK                         _______ _______ _______ _____ _____    ______ ____
ROOT
ATOM      1  C   UNL     1       1.188   3.106 -24.200  0.00  0.00    +0.203 C 
ATOM      2  C   UNL     1       0.681   2.795 -23.397  0.00  0.00    +0.054 C 
ATOM      3  C   UNL     1       1.218   2.229 -22.451  0.00  0.00    +0.046 C 
ATOM      4  C   UNL     1       0.407   2.131 -21.968  0.00  0.00    +0.037 C 
ATOM      5  C   UNL     1      -0.501   2.640 -22.666  0.00  0.00    +0.032 C 
ATOM      6  C   UNL     1      -1.576   2.518 -22.041  0.00  0.00    +0.234 C 
ATOM      7  C   UNL     1      -2.609   2.940 -22.522  0.00  0.00    +0.045 A 
ATOM      8  C   UNL     1      -3.712   2.844 -21.938  0.00  0.00    -0.005 A 
ATOM      9  C   UNL     1      -4.586   3.367 -22.677  0.00  0.00    +0.199 A 
ATOM     10  O   UNL     1      -4.017   3.784 -23.715  0.00  0.00    -0.463 OA
ATOM     11  C   UNL     1      -3.907   2.317 -20.811  0.00  0.00    +0.047 C 
ATOM     12  C   UNL     1      -2.792   3.521 -23.622  0.00  0.00    +0.135 A 
ATOM     13  C   UNL     1      -1.171   4.012 -25.181  0.00  0.00    +0.049 C 
ATOM     14  O   UNL     1      -1.338   1.936 -20.957  0.00  0.00    -0.449 OA
ATOM     15  C   UNL     1      -0.107   1.697 -20.913  0.00  0.00    +0.336 C 
ATOM     16  O   UNL     1       0.497   1.123 -19.976  0.00  0.00    -0.245 OA
ATOM     17  C   UNL     1       0.461   3.743 -25.220  0.00  0.00    -0.029 C 
ATOM     18  C   UNL     1       1.139   4.135 -26.247  0.00  0.00    +0.043 C 
ENDROOT
BRANCH   1  19
ATOM     19  O   UNL     1       2.502   2.810 -24.071  0.00  0.00    -0.457 OA
BRANCH  19  21
ATOM     20  C   UNL     1       4.641   2.904 -23.670  0.00  0.00    +0.136 C 
ATOM     21  C   UNL     1       3.492   3.487 -23.742  0.00  0.00    +0.305 C 
ATOM     22  O   UNL     1       3.394   4.673 -23.491  0.00  0.00    -0.251 OA
ENDBRANCH  19  21
ENDBRANCH   1  19
TORSDOF 2
ENDMDL
MODEL 8
REMARK VINA RESULT:    -8.042      2.886      6.881
REMARK INTER + INTRA:          -8.848
REMARK INTER:                  -8.999
REMARK INTRA:                   0.151
REMARK UNBOUND:                 0.134
REMARK  Name = ZINC000071325812
REMARK  5 active torsions:
REMARK  status: ('A' for Active; 'I' for Inactive)
REMARK    1  A    between atoms: C_1  and  C_2
REMARK    2  A    between atoms: C_2  and  O_4
REMARK    3  A    between atoms: O_4  and  C_5
REMARK    4  A    between atoms: C_15  and  C_16
REMARK    5  A    between atoms: C_21  and  C_22
REMARK                            x       y       z     vdW  Elec       q    Type
REMARK                         _______ _______ _______ _____ _____    ______ ____
ROOT
ATOM      1  C   UNL     1       4.429   3.951 -22.682  0.00  0.00    +0.203 C 
ATOM      2  C   UNL     1       3.694   3.281 -22.776  0.00  0.00    +0.054 C 
ATOM      3  C   UNL     1       3.884   2.071 -22.704  0.00  0.00    +0.046 C 
ATOM      4  C   UNL     1       2.970   1.856 -22.842  0.00  0.00    +0.037 C 
ATOM      5  C   UNL     1       2.353   2.937 -22.976  0.00  0.00    +0.032 C 
ATOM      6  C   UNL     1       1.146   2.669 -23.158  0.00  0.00    +0.234 C 
ATOM      7  C   UNL     1       0.341   3.565 -23.316  0.00  0.00    +0.045 A 
ATOM      8  C   UNL     1      -0.877   3.350 -23.502  0.00  0.00    -0.005 A 
ATOM      9  C   UNL     1      -1.451   4.463 -23.630  0.00  0.00    +0.199 A 
ATOM     10  O   UNL     1      -0.580   5.361 -23.523  0.00  0.00    -0.463 OA
ATOM     11  C   UNL     1      -1.429   2.218 -23.550  0.00  0.00    +0.047 C 
ATOM     12  C   UNL     1       0.531   4.808 -23.329  0.00  0.00    +0.135 A 
ATOM     13  C   UNL     1       2.552   5.872 -23.045  0.00  0.00    +0.049 C 
ATOM     14  O   UNL     1       1.013   1.423 -23.136  0.00  0.00    -0.449 OA
ATOM     15  C   UNL     1       2.145   0.920 -22.940  0.00  0.00    +0.336 C 
ATOM     16  O   UNL     1       2.402  -0.305 -22.857  0.00  0.00    -0.245 OA
ATOM     17  C   UNL     1       4.085   5.310 -22.783  0.00  0.00    -0.029 C 
ATOM     18  C   UNL     1       5.054   6.155 -22.659  0.00  0.00    +0.043 C 
ENDROOT
BRANCH   1  19
ATOM     19  O   UNL     1       5.611   3.327 -22.474  0.00  0.00    -0.457 OA
BRANCH  19  21
ATOM     20  C   UNL     1       7.699   3.890 -22.210  0.00  0.00    +0.136 C 
ATOM     21  C   UNL     1       6.561   3.553 -21.703  0.00  0.00    +0.305 C 
ATOM     22  O   UNL     1       6.435   3.462 -20.497  0.00  0.00    -0.251 OA
ENDBRANCH  19  21
ENDBRANCH   1  19
TORSDOF 2
ENDMDL
MODEL 9
REMARK VINA RESULT:    -6.852      4.677      7.187
REMARK INTER + INTRA:          -7.520
REMARK INTER:                  -7.653
REMARK INTRA:                   0.134
REMARK UNBOUND:                 0.134
REMARK  Name = ZINC000071325812
REMARK  5 active torsions:
REMARK  status: ('A' for Active; 'I' for Inactive)
REMARK    1  A    between atoms: C_1  and  C_2
REMARK    2  A    between atoms: C_2  and  O_4
REMARK    3  A    between atoms: O_4  and  C_5
REMARK    4  A    between atoms: C_15  and  C_16
REMARK    5  A    between atoms: C_21  and  C_22
REMARK                            x       y       z     vdW  Elec       q    Type
REMARK                         _______ _______ _______ _____ _____    ______ ____
ROOT
ATOM      1  C   UNL     1       3.766   3.551 -23.623  0.00  0.00    +0.203 C 
ATOM      2  C   UNL     1       4.640   3.950 -23.350  0.00  0.00    +0.054 C 
ATOM      3  C   UNL     1       5.705   3.352 -23.455  0.00  0.00    +0.046 C 
ATOM      4  C   UNL     1       6.216   4.069 -23.099  0.00  0.00    +0.037 C 
ATOM      5  C   UNL     1       5.414   4.992 -22.829  0.00  0.00    +0.032 C 
ATOM      6  C   UNL     1       6.072   5.945 -22.359  0.00  0.00    +0.234 C 
ATOM      7  C   UNL     1       5.507   6.965 -22.019  0.00  0.00    +0.045 A 
ATOM      8  C   UNL     1       6.119   7.947 -21.543  0.00  0.00    -0.005 A 
ATOM      9  C   UNL     1       5.273   8.843 -21.289  0.00  0.00    +0.199 A 
ATOM     10  O   UNL     1       4.141   8.408 -21.610  0.00  0.00    -0.463 OA
ATOM     11  C   UNL     1       7.363   8.021 -21.354  0.00  0.00    +0.047 C 
ATOM     12  C   UNL     1       4.282   7.245 -22.063  0.00  0.00    +0.135 A 
ATOM     13  C   UNL     1       2.605   5.869 -22.834  0.00  0.00    +0.049 C 
ATOM     14  O   UNL     1       7.281   5.615 -22.337  0.00  0.00    -0.449 OA
ATOM     15  C   UNL     1       7.368   4.451 -22.797  0.00  0.00    +0.336 C 
ATOM     16  O   UNL     1       8.426   3.789 -22.929  0.00  0.00    -0.245 OA
ATOM     17  C   UNL     1       2.613   4.336 -23.454  0.00  0.00    -0.029 C 
ATOM     18  C   UNL     1       1.496   3.797 -23.815  0.00  0.00    +0.043 C 
ENDROOT
BRANCH   1  19
ATOM     19  O   UNL     1       3.950   2.300 -24.105  0.00  0.00    -0.457 OA
BRANCH  19  21
ATOM     20  C   UNL     1       3.278   0.701 -22.787  0.00  0.00    +0.136 C 
ATOM     21  C   UNL     1       3.319   1.238 -23.960  0.00  0.00    +0.305 C 
ATOM     22  O   UNL     1       2.749   0.705 -24.894  0.00  0.00    -0.251 OA
ENDBRANCH  19  21
ENDBRANCH   1  19
TORSDOF 2
ENDMDL
