MODEL 1
REMARK VINA RESULT:   -11.392      0.000      0.000
REMARK INTER + INTRA:         -12.661
REMARK INTER:                 -12.775
REMARK INTRA:                   0.114
REMARK UNBOUND:                 0.062
REMARK  Name = CC[C@]1(O)CC[C@@H]2[C@@H]3CC(=O)C4=CC(=O)CC[C@]4(C)[C@H]3CC[C@@]21C  ZINC000253505652
REMARK  5 active torsions:
REMARK  status: ('A' for Active; 'I' for Inactive)
REMARK    1  A    between atoms: C_1  and  C_2
REMARK    2  A    between atoms: C_2  and  C_3
REMARK    3  A    between atoms: C_3  and  O_4
REMARK    4  A    between atoms: C_18  and  C_19
REMARK    5  A    between atoms: C_23  and  C_24
REMARK                            x       y       z     vdW  Elec       q    Type
REMARK                         _______ _______ _______ _____ _____    ______ ____
ROOT
ATOM      1  C   UNL     1      -4.682   3.266 -22.523  0.00  0.00    +0.071 C 
ATOM      2  C   UNL     1      -4.659   2.744 -21.322  0.00  0.00    +0.035 C 
ATOM      3  C   UNL     1      -3.429   2.361 -21.072  0.00  0.00    +0.007 C 
ATOM      4  C   UNL     1      -2.693   2.645 -22.116  0.00  0.00    +0.002 C 
ATOM      5  C   UNL     1      -1.421   2.466 -22.366  0.00  0.00    +0.004 C 
ATOM      6  C   UNL     1      -0.650   1.905 -21.462  0.00  0.00    +0.083 C 
ATOM      7  C   UNL     1       0.625   1.725 -21.710  0.00  0.00    +0.160 C 
ATOM      8  C   UNL     1       1.130   2.105 -22.856  0.00  0.00    +0.004 C 
ATOM      9  C   UNL     1       2.406   1.925 -23.105  0.00  0.00    +0.053 C 
ATOM     10  C   UNL     1       2.911   2.305 -24.252  0.00  0.00    +0.157 C 
ATOM     11  C   UNL     1       2.143   2.867 -25.157  0.00  0.00    +0.080 C 
ATOM     12  C   UNL     1       0.867   3.045 -24.907  0.00  0.00    +0.019 C 
ATOM     13  O   UNL     1       4.188   2.125 -24.499  0.00  0.00    -0.293 OA
ATOM     14  C   UNL     1       0.361   2.666 -23.760  0.00  0.00    -0.000 C 
ATOM     15  C   UNL     1      -0.408   3.227 -24.662  0.00  0.00    +0.016 C 
ATOM     16  O   UNL     1       1.394   1.164 -20.807  0.00  0.00    -0.292 OA
ATOM     17  C   UNL     1      -0.914   2.846 -23.514  0.00  0.00    +0.003 C 
ATOM     18  C   UNL     1      -1.685   3.407 -24.416  0.00  0.00    +0.005 C 
ATOM     19  C   UNL     1      -2.960   3.586 -24.167  0.00  0.00    +0.010 C 
ATOM     20  C   UNL     1      -3.464   3.206 -23.020  0.00  0.00    -0.000 C 
ATOM     21  C   UNL     1      -4.258   3.754 -23.880  0.00  0.00    +0.014 C 
ENDROOT
BRANCH   1  23
ATOM     22  C   UNL     1      -6.636   2.486 -21.644  0.00  0.00    +0.007 C 
ATOM     23  C   UNL     1      -5.957   3.427 -22.233  0.00  0.00    +0.032 C 
ENDBRANCH   1  23
BRANCH   1  24
ATOM     24  O   UNL     1      -5.024   3.710 -23.377  0.00  0.00    -0.388 OA
ATOM     25  H   UNL     1      -4.456   4.464 -23.600  0.00  0.00    +0.210 HD
ENDBRANCH   1  24
TORSDOF 2
ENDMDL
MODEL 2
REMARK VINA RESULT:   -11.334      1.066      6.583
REMARK INTER + INTRA:         -12.597
REMARK INTER:                 -12.665
REMARK INTRA:                   0.068
REMARK UNBOUND:                 0.062
REMARK  Name = CC[C@]1(O)CC[C@@H]2[C@@H]3CC(=O)C4=CC(=O)CC[C@]4(C)[C@H]3CC[C@@]21C  ZINC000253505652
REMARK  5 active torsions:
REMARK  status: ('A' for Active; 'I' for Inactive)
REMARK    1  A    between atoms: C_1  and  C_2
REMARK    2  A    between atoms: C_2  and  C_3
REMARK    3  A    between atoms: C_3  and  O_4
REMARK    4  A    between atoms: C_18  and  C_19
REMARK    5  A    between atoms: C_23  and  C_24
REMARK                            x       y       z     vdW  Elec       q    Type
REMARK                         _______ _______ _______ _____ _____    ______ ____
ROOT
ATOM      1  C   UNL     1       2.502   2.171 -23.507  0.00  0.00    +0.071 C 
ATOM      2  C   UNL     1       2.533   2.698 -24.706  0.00  0.00    +0.035 C 
ATOM      3  C   UNL     1       1.317   3.089 -25.006  0.00  0.00    +0.007 C 
ATOM      4  C   UNL     1       0.535   2.805 -23.996  0.00  0.00    +0.002 C 
ATOM      5  C   UNL     1      -0.746   2.989 -23.800  0.00  0.00    +0.004 C 
ATOM      6  C   UNL     1      -1.474   3.558 -24.734  0.00  0.00    +0.083 C 
ATOM      7  C   UNL     1      -2.758   3.744 -24.539  0.00  0.00    +0.160 C 
ATOM      8  C   UNL     1      -3.313   3.362 -23.417  0.00  0.00    +0.004 C 
ATOM      9  C   UNL     1      -4.597   3.547 -23.222  0.00  0.00    +0.053 C 
ATOM     10  C   UNL     1      -5.153   3.165 -22.099  0.00  0.00    +0.157 C 
ATOM     11  C   UNL     1      -4.427   2.596 -21.165  0.00  0.00    +0.080 C 
ATOM     12  C   UNL     1      -3.142   2.411 -21.361  0.00  0.00    +0.019 C 
ATOM     13  O   UNL     1      -6.439   3.351 -21.906  0.00  0.00    -0.293 OA
ATOM     14  C   UNL     1      -2.586   2.793 -22.484  0.00  0.00    -0.000 C 
ATOM     15  C   UNL     1      -1.859   2.224 -21.552  0.00  0.00    +0.016 C 
ATOM     16  O   UNL     1      -3.485   4.312 -25.472  0.00  0.00    -0.292 OA
ATOM     17  C   UNL     1      -1.303   2.607 -22.676  0.00  0.00    +0.003 C 
ATOM     18  C   UNL     1      -0.574   2.038 -21.744  0.00  0.00    +0.005 C 
ATOM     19  C   UNL     1       0.710   1.853 -21.939  0.00  0.00    +0.010 C 
ATOM     20  C   UNL     1       1.265   2.235 -23.063  0.00  0.00    -0.000 C 
ATOM     21  C   UNL     1       2.018   1.680 -22.172  0.00  0.00    +0.014 C 
ENDROOT
BRANCH   1  23
ATOM     22  C   UNL     1       4.624   2.997 -23.639  0.00  0.00    +0.007 C 
ATOM     23  C   UNL     1       3.788   2.005 -23.744  0.00  0.00    +0.032 C 
ENDBRANCH   1  23
BRANCH   1  24
ATOM     24  O   UNL     1       2.805   1.722 -22.642  0.00  0.00    -0.388 OA
ATOM     25  H   UNL     1       2.200   0.996 -22.424  0.00  0.00    +0.210 HD
ENDBRANCH   1  24
TORSDOF 2
ENDMDL
MODEL 3
REMARK VINA RESULT:   -10.886      1.336      2.844
REMARK INTER + INTRA:         -12.097
REMARK INTER:                 -12.317
REMARK INTRA:                   0.220
REMARK UNBOUND:                 0.062
REMARK  Name = CC[C@]1(O)CC[C@@H]2[C@@H]3CC(=O)C4=CC(=O)CC[C@]4(C)[C@H]3CC[C@@]21C  ZINC000253505652
REMARK  5 active torsions:
REMARK  status: ('A' for Active; 'I' for Inactive)
REMARK    1  A    between atoms: C_1  and  C_2
REMARK    2  A    between atoms: C_2  and  C_3
REMARK    3  A    between atoms: C_3  and  O_4
REMARK    4  A    between atoms: C_18  and  C_19
REMARK    5  A    between atoms: C_23  and  C_24
REMARK                            x       y       z     vdW  Elec       q    Type
REMARK                         _______ _______ _______ _____ _____    ______ ____
ROOT
ATOM      1  C   UNL     1      -3.686   3.210 -22.646  0.00  0.00    +0.071 C 
ATOM      2  C   UNL     1      -3.695   3.730 -23.848  0.00  0.00    +0.035 C 
ATOM      3  C   UNL     1      -2.483   3.626 -24.341  0.00  0.00    +0.007 C 
ATOM      4  C   UNL     1      -1.727   3.043 -23.446  0.00  0.00    +0.002 C 
ATOM      5  C   UNL     1      -0.460   2.714 -23.451  0.00  0.00    +0.004 C 
ATOM      6  C   UNL     1       0.279   2.975 -24.505  0.00  0.00    +0.083 C 
ATOM      7  C   UNL     1       1.549   2.646 -24.511  0.00  0.00    +0.160 C 
ATOM      8  C   UNL     1       2.079   2.058 -23.468  0.00  0.00    +0.004 C 
ATOM      9  C   UNL     1       3.349   1.728 -23.474  0.00  0.00    +0.053 C 
ATOM     10  C   UNL     1       3.880   1.140 -22.431  0.00  0.00    +0.157 C 
ATOM     11  C   UNL     1       3.142   0.879 -21.376  0.00  0.00    +0.080 C 
ATOM     12  C   UNL     1       1.872   1.209 -21.372  0.00  0.00    +0.019 C 
ATOM     13  O   UNL     1       5.151   0.811 -22.438  0.00  0.00    -0.293 OA
ATOM     14  C   UNL     1       1.341   1.797 -22.414  0.00  0.00    -0.000 C 
ATOM     15  C   UNL     1       0.603   1.536 -21.362  0.00  0.00    +0.016 C 
ATOM     16  O   UNL     1       2.287   2.906 -25.564  0.00  0.00    -0.292 OA
ATOM     17  C   UNL     1       0.072   2.125 -22.407  0.00  0.00    +0.003 C 
ATOM     18  C   UNL     1      -0.668   1.865 -21.354  0.00  0.00    +0.005 C 
ATOM     19  C   UNL     1      -1.937   2.194 -21.349  0.00  0.00    +0.010 C 
ATOM     20  C   UNL     1      -2.467   2.782 -22.392  0.00  0.00    -0.000 C 
ATOM     21  C   UNL     1      -3.230   2.544 -21.377  0.00  0.00    +0.014 C 
ENDROOT
BRANCH   1  23
ATOM     22  C   UNL     1      -5.554   3.802 -23.812  0.00  0.00    +0.007 C 
ATOM     23  C   UNL     1      -4.957   3.558 -22.682  0.00  0.00    +0.032 C 
ENDBRANCH   1  23
BRANCH   1  24
ATOM     24  O   UNL     1      -4.002   2.897 -21.726  0.00  0.00    -0.388 OA
ATOM     25  H   UNL     1      -4.388   3.645 -21.244  0.00  0.00    +0.210 HD
ENDBRANCH   1  24
TORSDOF 2
ENDMDL
MODEL 4
REMARK VINA RESULT:   -10.648      1.756      2.545
REMARK INTER + INTRA:         -11.831
REMARK INTER:                 -11.927
REMARK INTRA:                   0.096
REMARK UNBOUND:                 0.062
REMARK  Name = CC[C@]1(O)CC[C@@H]2[C@@H]3CC(=O)C4=CC(=O)CC[C@]4(C)[C@H]3CC[C@@]21C  ZINC000253505652
REMARK  5 active torsions:
REMARK  status: ('A' for Active; 'I' for Inactive)
REMARK    1  A    between atoms: C_1  and  C_2
REMARK    2  A    between atoms: C_2  and  C_3
REMARK    3  A    between atoms: C_3  and  O_4
REMARK    4  A    between atoms: C_18  and  C_19
REMARK    5  A    between atoms: C_23  and  C_24
REMARK                            x       y       z     vdW  Elec       q    Type
REMARK                         _______ _______ _______ _____ _____    ______ ____
ROOT
ATOM      1  C   UNL     1      -2.465   3.433 -22.872  0.00  0.00    +0.071 C 
ATOM      2  C   UNL     1      -2.723   2.389 -22.123  0.00  0.00    +0.035 C 
ATOM      3  C   UNL     1      -1.578   1.867 -21.752  0.00  0.00    +0.007 C 
ATOM      4  C   UNL     1      -0.614   2.586 -22.269  0.00  0.00    +0.002 C 
ATOM      5  C   UNL     1       0.689   2.484 -22.199  0.00  0.00    +0.004 C 
ATOM      6  C   UNL     1       1.232   1.511 -21.503  0.00  0.00    +0.083 C 
ATOM      7  C   UNL     1       2.537   1.407 -21.431  0.00  0.00    +0.160 C 
ATOM      8  C   UNL     1       3.298   2.272 -22.053  0.00  0.00    +0.004 C 
ATOM      9  C   UNL     1       4.605   2.169 -21.982  0.00  0.00    +0.053 C 
ATOM     10  C   UNL     1       5.367   3.034 -22.603  0.00  0.00    +0.157 C 
ATOM     11  C   UNL     1       4.826   4.007 -23.299  0.00  0.00    +0.080 C 
ATOM     12  C   UNL     1       3.520   4.110 -23.369  0.00  0.00    +0.019 C 
ATOM     13  O   UNL     1       6.674   2.929 -22.531  0.00  0.00    -0.293 OA
ATOM     14  C   UNL     1       2.757   3.245 -22.748  0.00  0.00    -0.000 C 
ATOM     15  C   UNL     1       2.215   4.216 -23.443  0.00  0.00    +0.016 C 
ATOM     16  O   UNL     1       3.079   0.435 -20.736  0.00  0.00    -0.292 OA
ATOM     17  C   UNL     1       1.452   3.350 -22.820  0.00  0.00    +0.003 C 
ATOM     18  C   UNL     1       0.909   4.322 -23.516  0.00  0.00    +0.005 C 
ATOM     19  C   UNL     1      -0.397   4.424 -23.586  0.00  0.00    +0.010 C 
ATOM     20  C   UNL     1      -1.158   3.559 -22.964  0.00  0.00    -0.000 C 
ATOM     21  C   UNL     1      -1.733   4.500 -23.637  0.00  0.00    +0.014 C 
ENDROOT
BRANCH   1  23
ATOM     22  C   UNL     1      -4.496   3.391 -21.834  0.00  0.00    +0.007 C 
ATOM     23  C   UNL     1      -3.780   3.500 -22.917  0.00  0.00    +0.032 C 
ENDBRANCH   1  23
BRANCH   1  24
ATOM     24  O   UNL     1      -2.601   4.256 -23.461  0.00  0.00    -0.388 OA
ATOM     25  H   UNL     1      -1.981   4.953 -23.192  0.00  0.00    +0.210 HD
ENDBRANCH   1  24
TORSDOF 2
ENDMDL
MODEL 5
REMARK VINA RESULT:   -10.290      1.385      6.044
REMARK INTER + INTRA:         -11.431
REMARK INTER:                 -11.483
REMARK INTRA:                   0.053
REMARK UNBOUND:                 0.062
REMARK  Name = CC[C@]1(O)CC[C@@H]2[C@@H]3CC(=O)C4=CC(=O)CC[C@]4(C)[C@H]3CC[C@@]21C  ZINC000253505652
REMARK  5 active torsions:
REMARK  status: ('A' for Active; 'I' for Inactive)
REMARK    1  A    between atoms: C_1  and  C_2
REMARK    2  A    between atoms: C_2  and  C_3
REMARK    3  A    between atoms: C_3  and  O_4
REMARK    4  A    between atoms: C_18  and  C_19
REMARK    5  A    between atoms: C_23  and  C_24
REMARK                            x       y       z     vdW  Elec       q    Type
REMARK                         _______ _______ _______ _____ _____    ______ ____
ROOT
ATOM      1  C   UNL     1       2.967   1.704 -22.602  0.00  0.00    +0.071 C 
ATOM      2  C   UNL     1       2.719   1.249 -21.399  0.00  0.00    +0.035 C 
ATOM      3  C   UNL     1       1.439   1.416 -21.161  0.00  0.00    +0.007 C 
ATOM      4  C   UNL     1       0.897   1.973 -22.213  0.00  0.00    +0.002 C 
ATOM      5  C   UNL     1      -0.332   2.340 -22.475  0.00  0.00    +0.004 C 
ATOM      6  C   UNL     1      -1.274   2.158 -21.577  0.00  0.00    +0.083 C 
ATOM      7  C   UNL     1      -2.505   2.526 -21.837  0.00  0.00    +0.160 C 
ATOM      8  C   UNL     1      -2.796   3.073 -22.990  0.00  0.00    +0.004 C 
ATOM      9  C   UNL     1      -4.029   3.441 -23.251  0.00  0.00    +0.053 C 
ATOM     10  C   UNL     1      -4.321   3.988 -24.404  0.00  0.00    +0.157 C 
ATOM     11  C   UNL     1      -3.381   4.171 -25.303  0.00  0.00    +0.080 C 
ATOM     12  C   UNL     1      -2.149   3.803 -25.041  0.00  0.00    +0.019 C 
ATOM     13  O   UNL     1      -5.554   4.356 -24.664  0.00  0.00    -0.293 OA
ATOM     14  C   UNL     1      -1.856   3.255 -23.888  0.00  0.00    -0.000 C 
ATOM     15  C   UNL     1      -0.917   3.437 -24.784  0.00  0.00    +0.016 C 
ATOM     16  O   UNL     1      -3.445   2.344 -20.940  0.00  0.00    -0.292 OA
ATOM     17  C   UNL     1      -0.625   2.888 -23.629  0.00  0.00    +0.003 C 
ATOM     18  C   UNL     1       0.317   3.070 -24.526  0.00  0.00    +0.005 C 
ATOM     19  C   UNL     1       1.548   2.702 -24.264  0.00  0.00    +0.010 C 
ATOM     20  C   UNL     1       1.839   2.155 -23.111  0.00  0.00    -0.000 C 
ATOM     21  C   UNL     1       2.795   2.315 -23.965  0.00  0.00    +0.014 C 
ENDROOT
BRANCH   1  23
ATOM     22  C   UNL     1       4.853   1.890 -21.334  0.00  0.00    +0.007 C 
ATOM     23  C   UNL     1       4.190   1.321 -22.299  0.00  0.00    +0.032 C 
ENDBRANCH   1  23
BRANCH   1  24
ATOM     24  O   UNL     1       3.469   1.958 -23.454  0.00  0.00    -0.388 OA
ATOM     25  H   UNL     1       2.935   2.580 -23.972  0.00  0.00    +0.210 HD
ENDBRANCH   1  24
TORSDOF 2
ENDMDL
MODEL 6
REMARK VINA RESULT:    -9.675      2.015      6.562
REMARK INTER + INTRA:         -10.744
REMARK INTER:                 -10.797
REMARK INTRA:                   0.053
REMARK UNBOUND:                 0.062
REMARK  Name = CC[C@]1(O)CC[C@@H]2[C@@H]3CC(=O)C4=CC(=O)CC[C@]4(C)[C@H]3CC[C@@]21C  ZINC000253505652
REMARK  5 active torsions:
REMARK  status: ('A' for Active; 'I' for Inactive)
REMARK    1  A    between atoms: C_1  and  C_2
REMARK    2  A    between atoms: C_2  and  C_3
REMARK    3  A    between atoms: C_3  and  O_4
REMARK    4  A    between atoms: C_18  and  C_19
REMARK    5  A    between atoms: C_23  and  C_24
REMARK                            x       y       z     vdW  Elec       q    Type
REMARK                         _______ _______ _______ _____ _____    ______ ____
ROOT
ATOM      1  C   UNL     1       4.607   3.294 -22.566  0.00  0.00    +0.071 C 
ATOM      2  C   UNL     1       4.651   2.232 -21.800  0.00  0.00    +0.035 C 
ATOM      3  C   UNL     1       3.420   1.817 -21.614  0.00  0.00    +0.007 C 
ATOM      4  C   UNL     1       2.616   2.620 -22.263  0.00  0.00    +0.002 C 
ATOM      5  C   UNL     1       1.314   2.638 -22.395  0.00  0.00    +0.004 C 
ATOM      6  C   UNL     1       0.585   1.720 -21.802  0.00  0.00    +0.083 C 
ATOM      7  C   UNL     1      -0.720   1.736 -21.932  0.00  0.00    +0.160 C 
ATOM      8  C   UNL     1      -1.295   2.666 -22.652  0.00  0.00    +0.004 C 
ATOM      9  C   UNL     1      -2.601   2.682 -22.783  0.00  0.00    +0.053 C 
ATOM     10  C   UNL     1      -3.177   3.613 -23.503  0.00  0.00    +0.157 C 
ATOM     11  C   UNL     1      -2.450   4.531 -24.095  0.00  0.00    +0.080 C 
ATOM     12  C   UNL     1      -1.145   4.514 -23.964  0.00  0.00    +0.019 C 
ATOM     13  O   UNL     1      -4.484   3.628 -23.632  0.00  0.00    -0.293 OA
ATOM     14  C   UNL     1      -0.568   3.584 -23.244  0.00  0.00    -0.000 C 
ATOM     15  C   UNL     1       0.160   4.500 -23.836  0.00  0.00    +0.016 C 
ATOM     16  O   UNL     1      -1.448   0.819 -21.341  0.00  0.00    -0.292 OA
ATOM     17  C   UNL     1       0.737   3.569 -23.115  0.00  0.00    +0.003 C 
ATOM     18  C   UNL     1       1.466   4.486 -23.707  0.00  0.00    +0.005 C 
ATOM     19  C   UNL     1       2.771   4.469 -23.576  0.00  0.00    +0.010 C 
ATOM     20  C   UNL     1       3.346   3.538 -22.856  0.00  0.00    -0.000 C 
ATOM     21  C   UNL     1       4.101   4.422 -23.421  0.00  0.00    +0.014 C 
ENDROOT
BRANCH   1  23
ATOM     22  C   UNL     1       6.460   3.464 -21.248  0.00  0.00    +0.007 C 
ATOM     23  C   UNL     1       5.914   3.240 -22.408  0.00  0.00    +0.032 C 
ENDBRANCH   1  23
BRANCH   1  24
ATOM     24  O   UNL     1       4.905   4.100 -23.117  0.00  0.00    -0.388 OA
ATOM     25  H   UNL     1       4.999   3.840 -24.047  0.00  0.00    +0.210 HD
ENDBRANCH   1  24
TORSDOF 2
ENDMDL
MODEL 7
REMARK VINA RESULT:    -9.038      2.913      4.556
REMARK INTER + INTRA:         -10.032
REMARK INTER:                 -10.088
REMARK INTRA:                   0.056
REMARK UNBOUND:                 0.062
REMARK  Name = CC[C@]1(O)CC[C@@H]2[C@@H]3CC(=O)C4=CC(=O)CC[C@]4(C)[C@H]3CC[C@@]21C  ZINC000253505652
REMARK  5 active torsions:
REMARK  status: ('A' for Active; 'I' for Inactive)
REMARK    1  A    between atoms: C_1  and  C_2
REMARK    2  A    between atoms: C_2  and  C_3
REMARK    3  A    between atoms: C_3  and  O_4
REMARK    4  A    between atoms: C_18  and  C_19
REMARK    5  A    between atoms: C_23  and  C_24
REMARK                            x       y       z     vdW  Elec       q    Type
REMARK                         _______ _______ _______ _____ _____    ______ ____
ROOT
ATOM      1  C   UNL     1      -1.055   3.555 -24.000  0.00  0.00    +0.071 C 
ATOM      2  C   UNL     1      -1.390   4.756 -23.595  0.00  0.00    +0.035 C 
ATOM      3  C   UNL     1      -0.291   5.389 -23.260  0.00  0.00    +0.007 C 
ATOM      4  C   UNL     1       0.722   4.584 -23.457  0.00  0.00    +0.002 C 
ATOM      5  C   UNL     1       2.009   4.736 -23.280  0.00  0.00    +0.004 C 
ATOM      6  C   UNL     1       2.476   5.875 -22.821  0.00  0.00    +0.083 C 
ATOM      7  C   UNL     1       3.765   6.029 -22.642  0.00  0.00    +0.160 C 
ATOM      8  C   UNL     1       4.588   5.049 -22.920  0.00  0.00    +0.004 C 
ATOM      9  C   UNL     1       5.878   5.203 -22.742  0.00  0.00    +0.053 C 
ATOM     10  C   UNL     1       6.702   4.223 -23.020  0.00  0.00    +0.157 C 
ATOM     11  C   UNL     1       6.238   3.083 -23.479  0.00  0.00    +0.080 C 
ATOM     12  C   UNL     1       4.946   2.931 -23.657  0.00  0.00    +0.019 C 
ATOM     13  O   UNL     1       7.993   4.378 -22.841  0.00  0.00    -0.293 OA
ATOM     14  C   UNL     1       4.123   3.910 -23.379  0.00  0.00    -0.000 C 
ATOM     15  C   UNL     1       3.657   2.773 -23.837  0.00  0.00    +0.016 C 
ATOM     16  O   UNL     1       4.231   7.167 -22.184  0.00  0.00    -0.292 OA
ATOM     17  C   UNL     1       2.834   3.755 -23.558  0.00  0.00    +0.003 C 
ATOM     18  C   UNL     1       2.367   2.617 -24.017  0.00  0.00    +0.005 C 
ATOM     19  C   UNL     1       1.076   2.464 -24.195  0.00  0.00    +0.010 C 
ATOM     20  C   UNL     1       0.254   3.445 -23.916  0.00  0.00    -0.000 C 
ATOM     21  C   UNL     1      -0.247   2.342 -24.365  0.00  0.00    +0.014 C 
ENDROOT
BRANCH   1  23
ATOM     22  C   UNL     1      -2.963   4.039 -25.152  0.00  0.00    +0.007 C 
ATOM     23  C   UNL     1      -2.357   3.443 -24.165  0.00  0.00    +0.032 C 
ENDBRANCH   1  23
BRANCH   1  24
ATOM     24  O   UNL     1      -1.127   2.600 -24.355  0.00  0.00    -0.388 OA
ATOM     25  H   UNL     1      -1.727   2.582 -25.117  0.00  0.00    +0.210 HD
ENDBRANCH   1  24
TORSDOF 2
ENDMDL
MODEL 8
REMARK VINA RESULT:    -8.998      2.105      3.217
REMARK INTER + INTRA:          -9.988
REMARK INTER:                 -10.068
REMARK INTRA:                   0.080
REMARK UNBOUND:                 0.062
REMARK  Name = CC[C@]1(O)CC[C@@H]2[C@@H]3CC(=O)C4=CC(=O)CC[C@]4(C)[C@H]3CC[C@@]21C  ZINC000253505652
REMARK  5 active torsions:
REMARK  status: ('A' for Active; 'I' for Inactive)
REMARK    1  A    between atoms: C_1  and  C_2
REMARK    2  A    between atoms: C_2  and  C_3
REMARK    3  A    between atoms: C_3  and  O_4
REMARK    4  A    between atoms: C_18  and  C_19
REMARK    5  A    between atoms: C_23  and  C_24
REMARK                            x       y       z     vdW  Elec       q    Type
REMARK                         _______ _______ _______ _____ _____    ______ ____
ROOT
ATOM      1  C   UNL     1      -1.922   3.547 -25.065  0.00  0.00    +0.071 C 
ATOM      2  C   UNL     1      -2.720   3.448 -24.031  0.00  0.00    +0.035 C 
ATOM      3  C   UNL     1      -2.019   2.984 -23.024  0.00  0.00    +0.007 C 
ATOM      4  C   UNL     1      -0.790   2.796 -23.433  0.00  0.00    +0.002 C 
ATOM      5  C   UNL     1       0.279   2.354 -22.822  0.00  0.00    +0.004 C 
ATOM      6  C   UNL     1       0.212   2.007 -21.556  0.00  0.00    +0.083 C 
ATOM      7  C   UNL     1       1.282   1.564 -20.942  0.00  0.00    +0.160 C 
ATOM      8  C   UNL     1       2.417   1.468 -21.588  0.00  0.00    +0.004 C 
ATOM      9  C   UNL     1       3.488   1.025 -20.974  0.00  0.00    +0.053 C 
ATOM     10  C   UNL     1       4.624   0.928 -21.620  0.00  0.00    +0.157 C 
ATOM     11  C   UNL     1       4.693   1.275 -22.884  0.00  0.00    +0.080 C 
ATOM     12  C   UNL     1       3.621   1.718 -23.498  0.00  0.00    +0.019 C 
ATOM     13  O   UNL     1       5.695   0.485 -21.003  0.00  0.00    -0.293 OA
ATOM     14  C   UNL     1       2.485   1.815 -22.852  0.00  0.00    -0.000 C 
ATOM     15  C   UNL     1       2.553   2.161 -24.115  0.00  0.00    +0.016 C 
ATOM     16  O   UNL     1       1.215   1.217 -19.678  0.00  0.00    -0.292 OA
ATOM     17  C   UNL     1       1.416   2.258 -23.468  0.00  0.00    +0.003 C 
ATOM     18  C   UNL     1       1.482   2.605 -24.732  0.00  0.00    +0.005 C 
ATOM     19  C   UNL     1       0.411   3.048 -25.346  0.00  0.00    +0.010 C 
ATOM     20  C   UNL     1      -0.723   3.144 -24.699  0.00  0.00    -0.000 C 
ATOM     21  C   UNL     1      -0.702   3.496 -25.942  0.00  0.00    +0.014 C 
ENDROOT
BRANCH   1  23
ATOM     22  C   UNL     1      -3.917   3.160 -26.099  0.00  0.00    +0.007 C 
ATOM     23  C   UNL     1      -3.021   3.987 -25.644  0.00  0.00    +0.032 C 
ENDBRANCH   1  23
BRANCH   1  24
ATOM     24  O   UNL     1      -1.585   3.736 -26.011  0.00  0.00    -0.388 OA
ATOM     25  H   UNL     1      -2.133   4.425 -26.418  0.00  0.00    +0.210 HD
ENDBRANCH   1  24
TORSDOF 2
ENDMDL
MODEL 9
REMARK VINA RESULT:    -8.472      3.695      7.964
REMARK INTER + INTRA:          -9.401
REMARK INTER:                  -9.463
REMARK INTRA:                   0.062
REMARK UNBOUND:                 0.062
REMARK  Name = CC[C@]1(O)CC[C@@H]2[C@@H]3CC(=O)C4=CC(=O)CC[C@]4(C)[C@H]3CC[C@@]21C  ZINC000253505652
REMARK  5 active torsions:
REMARK  status: ('A' for Active; 'I' for Inactive)
REMARK    1  A    between atoms: C_1  and  C_2
REMARK    2  A    between atoms: C_2  and  C_3
REMARK    3  A    between atoms: C_3  and  O_4
REMARK    4  A    between atoms: C_18  and  C_19
REMARK    5  A    between atoms: C_23  and  C_24
REMARK                            x       y       z     vdW  Elec       q    Type
REMARK                         _______ _______ _______ _____ _____    ______ ____
ROOT
ATOM      1  C   UNL     1       6.776   5.240 -22.353  0.00  0.00    +0.071 C 
ATOM      2  C   UNL     1       7.326   4.093 -22.667  0.00  0.00    +0.035 C 
ATOM      3  C   UNL     1       6.384   3.310 -23.139  0.00  0.00    +0.007 C 
ATOM      4  C   UNL     1       5.255   3.971 -23.117  0.00  0.00    +0.002 C 
ATOM      5  C   UNL     1       4.040   3.641 -23.476  0.00  0.00    +0.004 C 
ATOM      6  C   UNL     1       3.805   2.443 -23.962  0.00  0.00    +0.083 C 
ATOM      7  C   UNL     1       2.589   2.110 -24.322  0.00  0.00    +0.160 C 
ATOM      8  C   UNL     1       1.610   2.971 -24.197  0.00  0.00    +0.004 C 
ATOM      9  C   UNL     1       0.393   2.638 -24.557  0.00  0.00    +0.053 C 
ATOM     10  C   UNL     1      -0.587   3.499 -24.433  0.00  0.00    +0.157 C 
ATOM     11  C   UNL     1      -0.354   4.696 -23.947  0.00  0.00    +0.080 C 
ATOM     12  C   UNL     1       0.864   5.027 -23.587  0.00  0.00    +0.019 C 
ATOM     13  O   UNL     1      -1.805   3.165 -24.794  0.00  0.00    -0.293 OA
ATOM     14  C   UNL     1       1.844   4.168 -23.711  0.00  0.00    -0.000 C 
ATOM     15  C   UNL     1       2.078   5.363 -23.226  0.00  0.00    +0.016 C 
ATOM     16  O   UNL     1       2.354   0.914 -24.808  0.00  0.00    -0.292 OA
ATOM     17  C   UNL     1       3.059   4.501 -23.351  0.00  0.00    +0.003 C 
ATOM     18  C   UNL     1       3.295   5.698 -22.865  0.00  0.00    +0.005 C 
ATOM     19  C   UNL     1       4.512   6.029 -22.505  0.00  0.00    +0.010 C 
ATOM     20  C   UNL     1       5.491   5.168 -22.630  0.00  0.00    -0.000 C 
ATOM     21  C   UNL     1       5.766   6.334 -22.147  0.00  0.00    +0.014 C 
ENDROOT
BRANCH   1  23
ATOM     22  C   UNL     1       8.523   5.075 -20.897  0.00  0.00    +0.007 C 
ATOM     23  C   UNL     1       8.012   5.532 -22.003  0.00  0.00    +0.032 C 
ENDBRANCH   1  23
BRANCH   1  24
ATOM     24  O   UNL     1       6.666   6.199 -22.021  0.00  0.00    -0.388 OA
ATOM     25  H   UNL     1       6.574   6.200 -21.055  0.00  0.00    +0.210 HD
ENDBRANCH   1  24
TORSDOF 2
ENDMDL
