MODEL 1
REMARK VINA RESULT:   -11.294      0.000      0.000
REMARK INTER + INTRA:         -11.958
REMARK INTER:                 -12.767
REMARK INTRA:                   0.809
REMARK UNBOUND:                 0.656
REMARK  Name = ZINC000013523362
REMARK  5 active torsions:
REMARK  status: ('A' for Active; 'I' for Inactive)
REMARK    1  A    between atoms: C_1  and  C_2
REMARK    2  A    between atoms: C_2  and  O_4
REMARK    3  A    between atoms: O_4  and  C_5
REMARK    4  A    between atoms: C_18  and  C_19
REMARK    5  A    between atoms: C_23  and  C_24
REMARK                            x       y       z     vdW  Elec       q    Type
REMARK                         _______ _______ _______ _____ _____    ______ ____
ROOT
ATOM      1  C   UNL     1       1.954   3.114 -23.682  0.00  0.00    +0.183 C 
ATOM      2  C   UNL     1       1.865   3.778 -24.796  0.00  0.00    +0.045 C 
ATOM      3  C   UNL     1       0.610   4.046 -25.006  0.00  0.00    +0.008 C 
ATOM      4  C   UNL     1      -0.077   3.547 -24.022  0.00  0.00    +0.002 C 
ATOM      5  C   UNL     1      -1.352   3.543 -23.764  0.00  0.00    -0.003 C 
ATOM      6  C   UNL     1      -2.181   4.118 -24.583  0.00  0.00    +0.008 C 
ATOM      7  C   UNL     1      -3.455   4.114 -24.326  0.00  0.00    +0.032 C 
ATOM      8  C   UNL     1      -3.900   3.534 -23.251  0.00  0.00    -0.060 C 
ATOM      9  C   UNL     1      -5.174   3.530 -22.993  0.00  0.00    +0.046 C 
ATOM     10  C   UNL     1      -5.619   2.950 -21.919  0.00  0.00    +0.156 C 
ATOM     11  C   UNL     1      -4.789   2.374 -21.101  0.00  0.00    +0.080 C 
ATOM     12  C   UNL     1      -3.514   2.379 -21.358  0.00  0.00    +0.019 C 
ATOM     13  O   UNL     1      -6.893   2.946 -21.662  0.00  0.00    -0.293 OA
ATOM     14  C   UNL     1      -3.070   2.958 -22.432  0.00  0.00    -0.007 C 
ATOM     15  C   UNL     1      -2.240   2.383 -21.614  0.00  0.00    +0.016 C 
ATOM     16  C   UNL     1      -1.796   2.963 -22.689  0.00  0.00    +0.002 C 
ATOM     17  C   UNL     1      -0.966   2.387 -21.871  0.00  0.00    +0.005 C 
ATOM     18  C   UNL     1       0.308   2.391 -22.128  0.00  0.00    +0.011 C 
ATOM     19  C   UNL     1       0.753   2.971 -23.203  0.00  0.00    +0.008 C 
ATOM     20  C   UNL     1       1.683   2.433 -22.470  0.00  0.00    +0.015 C 
ENDROOT
BRANCH   1  21
ATOM     21  O   UNL     1       3.049   2.670 -23.141  0.00  0.00    -0.461 OA
BRANCH  21  23
ATOM     22  C   UNL     1       5.208   3.003 -23.687  0.00  0.00    +0.136 C 
ATOM     23  C   UNL     1       4.113   3.417 -23.123  0.00  0.00    +0.304 C 
ATOM     24  O   UNL     1       4.082   4.579 -22.540  0.00  0.00    -0.251 OA
ENDBRANCH  21  23
ENDBRANCH   1  21
TORSDOF 2
ENDMDL
MODEL 2
REMARK VINA RESULT:   -10.650      1.282      1.856
REMARK INTER + INTRA:         -11.239
REMARK INTER:                 -12.132
REMARK INTRA:                   0.893
REMARK UNBOUND:                 0.656
REMARK  Name = ZINC000013523362
REMARK  5 active torsions:
REMARK  status: ('A' for Active; 'I' for Inactive)
REMARK    1  A    between atoms: C_1  and  C_2
REMARK    2  A    between atoms: C_2  and  O_4
REMARK    3  A    between atoms: O_4  and  C_5
REMARK    4  A    between atoms: C_18  and  C_19
REMARK    5  A    between atoms: C_23  and  C_24
REMARK                            x       y       z     vdW  Elec       q    Type
REMARK                         _______ _______ _______ _____ _____    ______ ____
ROOT
ATOM      1  C   UNL     1       3.534   2.776 -22.544  0.00  0.00    +0.183 C 
ATOM      2  C   UNL     1       3.709   3.783 -23.347  0.00  0.00    +0.045 C 
ATOM      3  C   UNL     1       2.541   4.282 -23.628  0.00  0.00    +0.008 C 
ATOM      4  C   UNL     1       1.644   3.583 -22.998  0.00  0.00    +0.002 C 
ATOM      5  C   UNL     1       0.348   3.673 -22.948  0.00  0.00    -0.003 C 
ATOM      6  C   UNL     1      -0.265   4.603 -23.618  0.00  0.00    +0.008 C 
ATOM      7  C   UNL     1      -1.560   4.694 -23.568  0.00  0.00    +0.032 C 
ATOM      8  C   UNL     1      -2.243   3.854 -22.848  0.00  0.00    -0.060 C 
ATOM      9  C   UNL     1      -3.539   3.944 -22.798  0.00  0.00    +0.046 C 
ATOM     10  C   UNL     1      -4.223   3.105 -22.079  0.00  0.00    +0.156 C 
ATOM     11  C   UNL     1      -3.610   2.175 -21.409  0.00  0.00    +0.080 C 
ATOM     12  C   UNL     1      -2.313   2.085 -21.459  0.00  0.00    +0.019 C 
ATOM     13  O   UNL     1      -5.518   3.196 -22.029  0.00  0.00    -0.293 OA
ATOM     14  C   UNL     1      -1.630   2.924 -22.178  0.00  0.00    -0.007 C 
ATOM     15  C   UNL     1      -1.017   1.993 -21.508  0.00  0.00    +0.016 C 
ATOM     16  C   UNL     1      -0.335   2.833 -22.228  0.00  0.00    +0.002 C 
ATOM     17  C   UNL     1       0.278   1.903 -21.558  0.00  0.00    +0.005 C 
ATOM     18  C   UNL     1       1.574   1.812 -21.608  0.00  0.00    +0.011 C 
ATOM     19  C   UNL     1       2.257   2.652 -22.328  0.00  0.00    +0.008 C 
ATOM     20  C   UNL     1       2.986   1.772 -21.708  0.00  0.00    +0.015 C 
ENDROOT
BRANCH   1  21
ATOM     21  O   UNL     1       4.469   2.025 -22.044  0.00  0.00    -0.461 OA
BRANCH  21  23
ATOM     22  C   UNL     1       6.570   2.630 -22.583  0.00  0.00    +0.136 C 
ATOM     23  C   UNL     1       5.611   2.547 -21.708  0.00  0.00    +0.304 C 
ATOM     24  O   UNL     1       5.796   2.986 -20.499  0.00  0.00    -0.251 OA
ENDBRANCH  21  23
ENDBRANCH   1  21
TORSDOF 2
ENDMDL
MODEL 3
REMARK VINA RESULT:   -10.610      1.565      6.643
REMARK INTER + INTRA:         -11.194
REMARK INTER:                 -12.648
REMARK INTRA:                   1.454
REMARK UNBOUND:                 0.656
REMARK  Name = ZINC000013523362
REMARK  5 active torsions:
REMARK  status: ('A' for Active; 'I' for Inactive)
REMARK    1  A    between atoms: C_1  and  C_2
REMARK    2  A    between atoms: C_2  and  O_4
REMARK    3  A    between atoms: O_4  and  C_5
REMARK    4  A    between atoms: C_18  and  C_19
REMARK    5  A    between atoms: C_23  and  C_24
REMARK                            x       y       z     vdW  Elec       q    Type
REMARK                         _______ _______ _______ _____ _____    ______ ____
ROOT
ATOM      1  C   UNL     1      -3.106   3.290 -22.698  0.00  0.00    +0.183 C 
ATOM      2  C   UNL     1      -3.089   3.781 -23.902  0.00  0.00    +0.045 C 
ATOM      3  C   UNL     1      -1.893   3.623 -24.385  0.00  0.00    +0.008 C 
ATOM      4  C   UNL     1      -1.169   3.034 -23.479  0.00  0.00    +0.002 C 
ATOM      5  C   UNL     1       0.076   2.658 -23.469  0.00  0.00    -0.003 C 
ATOM      6  C   UNL     1       0.825   2.864 -24.511  0.00  0.00    +0.008 C 
ATOM      7  C   UNL     1       2.070   2.488 -24.501  0.00  0.00    +0.032 C 
ATOM      8  C   UNL     1       2.564   1.907 -23.449  0.00  0.00    -0.060 C 
ATOM      9  C   UNL     1       3.809   1.531 -23.439  0.00  0.00    +0.046 C 
ATOM     10  C   UNL     1       4.305   0.950 -22.388  0.00  0.00    +0.156 C 
ATOM     11  C   UNL     1       3.555   0.744 -21.345  0.00  0.00    +0.080 C 
ATOM     12  C   UNL     1       2.310   1.120 -21.356  0.00  0.00    +0.019 C 
ATOM     13  O   UNL     1       5.549   0.575 -22.378  0.00  0.00    -0.293 OA
ATOM     14  C   UNL     1       1.815   1.701 -22.407  0.00  0.00    -0.007 C 
ATOM     15  C   UNL     1       1.065   1.495 -21.365  0.00  0.00    +0.016 C 
ATOM     16  C   UNL     1       0.571   2.077 -22.417  0.00  0.00    +0.002 C 
ATOM     17  C   UNL     1      -0.179   1.871 -21.375  0.00  0.00    +0.005 C 
ATOM     18  C   UNL     1      -1.423   2.246 -21.385  0.00  0.00    +0.011 C 
ATOM     19  C   UNL     1      -1.918   2.828 -22.437  0.00  0.00    +0.008 C 
ATOM     20  C   UNL     1      -2.769   2.681 -21.465  0.00  0.00    +0.015 C 
ENDROOT
BRANCH   1  21
ATOM     21  O   UNL     1      -4.128   3.264 -21.896  0.00  0.00    -0.461 OA
BRANCH  21  23
ATOM     22  C   UNL     1      -6.312   2.737 -21.749  0.00  0.00    +0.136 C 
ATOM     23  C   UNL     1      -5.334   3.315 -22.380  0.00  0.00    +0.304 C 
ATOM     24  O   UNL     1      -5.561   3.944 -23.495  0.00  0.00    -0.251 OA
ENDBRANCH  21  23
ENDBRANCH   1  21
TORSDOF 2
ENDMDL
MODEL 4
REMARK VINA RESULT:   -10.547      1.580      6.970
REMARK INTER + INTRA:         -11.124
REMARK INTER:                 -11.921
REMARK INTRA:                   0.796
REMARK UNBOUND:                 0.656
REMARK  Name = ZINC000013523362
REMARK  5 active torsions:
REMARK  status: ('A' for Active; 'I' for Inactive)
REMARK    1  A    between atoms: C_1  and  C_2
REMARK    2  A    between atoms: C_2  and  O_4
REMARK    3  A    between atoms: O_4  and  C_5
REMARK    4  A    between atoms: C_18  and  C_19
REMARK    5  A    between atoms: C_23  and  C_24
REMARK                            x       y       z     vdW  Elec       q    Type
REMARK                         _______ _______ _______ _____ _____    ______ ____
ROOT
ATOM      1  C   UNL     1      -2.580   3.594 -23.364  0.00  0.00    +0.183 C 
ATOM      2  C   UNL     1      -2.941   2.642 -22.554  0.00  0.00    +0.045 C 
ATOM      3  C   UNL     1      -1.866   2.101 -22.064  0.00  0.00    +0.008 C 
ATOM      4  C   UNL     1      -0.839   2.717 -22.570  0.00  0.00    +0.002 C 
ATOM      5  C   UNL     1       0.440   2.558 -22.404  0.00  0.00    -0.003 C 
ATOM      6  C   UNL     1       0.881   1.635 -21.601  0.00  0.00    +0.008 C 
ATOM      7  C   UNL     1       2.160   1.475 -21.434  0.00  0.00    +0.032 C 
ATOM      8  C   UNL     1       2.998   2.238 -22.070  0.00  0.00    -0.060 C 
ATOM      9  C   UNL     1       4.278   2.078 -21.904  0.00  0.00    +0.046 C 
ATOM     10  C   UNL     1       5.117   2.840 -22.540  0.00  0.00    +0.156 C 
ATOM     11  C   UNL     1       4.676   3.763 -23.343  0.00  0.00    +0.080 C 
ATOM     12  C   UNL     1       3.396   3.922 -23.509  0.00  0.00    +0.019 C 
ATOM     13  O   UNL     1       6.396   2.680 -22.373  0.00  0.00    -0.293 OA
ATOM     14  C   UNL     1       2.558   3.160 -22.873  0.00  0.00    -0.007 C 
ATOM     15  C   UNL     1       2.117   4.083 -23.677  0.00  0.00    +0.016 C 
ATOM     16  C   UNL     1       1.279   3.320 -23.040  0.00  0.00    +0.002 C 
ATOM     17  C   UNL     1       0.838   4.243 -23.843  0.00  0.00    +0.005 C 
ATOM     18  C   UNL     1      -0.441   4.402 -24.010  0.00  0.00    +0.011 C 
ATOM     19  C   UNL     1      -1.280   3.640 -23.373  0.00  0.00    +0.008 C 
ATOM     20  C   UNL     1      -1.846   4.521 -24.144  0.00  0.00    +0.015 C 
ENDROOT
BRANCH   1  21
ATOM     21  O   UNL     1      -3.376   4.364 -24.044  0.00  0.00    -0.461 OA
BRANCH  21  23
ATOM     22  C   UNL     1      -4.714   3.435 -25.599  0.00  0.00    +0.136 C 
ATOM     23  C   UNL     1      -4.546   3.928 -24.408  0.00  0.00    +0.304 C 
ATOM     24  O   UNL     1      -5.547   3.986 -23.580  0.00  0.00    -0.251 OA
ENDBRANCH  21  23
ENDBRANCH   1  21
TORSDOF 2
ENDMDL
MODEL 5
REMARK VINA RESULT:   -10.509      1.532      6.720
REMARK INTER + INTRA:         -11.081
REMARK INTER:                 -11.865
REMARK INTRA:                   0.784
REMARK UNBOUND:                 0.656
REMARK  Name = ZINC000013523362
REMARK  5 active torsions:
REMARK  status: ('A' for Active; 'I' for Inactive)
REMARK    1  A    between atoms: C_1  and  C_2
REMARK    2  A    between atoms: C_2  and  O_4
REMARK    3  A    between atoms: O_4  and  C_5
REMARK    4  A    between atoms: C_18  and  C_19
REMARK    5  A    between atoms: C_23  and  C_24
REMARK                            x       y       z     vdW  Elec       q    Type
REMARK                         _______ _______ _______ _____ _____    ______ ____
ROOT
ATOM      1  C   UNL     1      -2.595   3.134 -22.635  0.00  0.00    +0.183 C 
ATOM      2  C   UNL     1      -2.622   4.132 -23.468  0.00  0.00    +0.045 C 
ATOM      3  C   UNL     1      -1.397   4.415 -23.796  0.00  0.00    +0.008 C 
ATOM      4  C   UNL     1      -0.612   3.592 -23.166  0.00  0.00    +0.002 C 
ATOM      5  C   UNL     1       0.682   3.461 -23.153  0.00  0.00    -0.003 C 
ATOM      6  C   UNL     1       1.422   4.253 -23.871  0.00  0.00    +0.008 C 
ATOM      7  C   UNL     1       2.716   4.122 -23.858  0.00  0.00    +0.032 C 
ATOM      8  C   UNL     1       3.268   3.200 -23.127  0.00  0.00    -0.060 C 
ATOM      9  C   UNL     1       4.562   3.070 -23.113  0.00  0.00    +0.046 C 
ATOM     10  C   UNL     1       5.115   2.148 -22.383  0.00  0.00    +0.156 C 
ATOM     11  C   UNL     1       4.375   1.357 -21.665  0.00  0.00    +0.080 C 
ATOM     12  C   UNL     1       3.081   1.488 -21.678  0.00  0.00    +0.019 C 
ATOM     13  O   UNL     1       6.408   2.018 -22.370  0.00  0.00    -0.293 OA
ATOM     14  C   UNL     1       2.528   2.409 -22.409  0.00  0.00    -0.007 C 
ATOM     15  C   UNL     1       1.787   1.618 -21.691  0.00  0.00    +0.016 C 
ATOM     16  C   UNL     1       1.235   2.540 -22.422  0.00  0.00    +0.002 C 
ATOM     17  C   UNL     1       0.494   1.748 -21.704  0.00  0.00    +0.005 C 
ATOM     18  C   UNL     1      -0.799   1.879 -21.717  0.00  0.00    +0.011 C 
ATOM     19  C   UNL     1      -1.352   2.801 -22.448  0.00  0.00    +0.008 C 
ATOM     20  C   UNL     1      -2.200   2.077 -21.779  0.00  0.00    +0.015 C 
ENDROOT
BRANCH   1  21
ATOM     21  O   UNL     1      -3.628   2.569 -22.084  0.00  0.00    -0.461 OA
BRANCH  21  23
ATOM     22  C   UNL     1      -5.812   3.113 -22.160  0.00  0.00    +0.136 C 
ATOM     23  C   UNL     1      -4.622   3.297 -21.669  0.00  0.00    +0.304 C 
ATOM     24  O   UNL     1      -4.427   4.209 -20.763  0.00  0.00    -0.251 OA
ENDBRANCH  21  23
ENDBRANCH   1  21
TORSDOF 2
ENDMDL
MODEL 6
REMARK VINA RESULT:   -10.424      1.467      2.952
REMARK INTER + INTRA:         -10.986
REMARK INTER:                 -11.628
REMARK INTRA:                   0.642
REMARK UNBOUND:                 0.656
REMARK  Name = ZINC000013523362
REMARK  5 active torsions:
REMARK  status: ('A' for Active; 'I' for Inactive)
REMARK    1  A    between atoms: C_1  and  C_2
REMARK    2  A    between atoms: C_2  and  O_4
REMARK    3  A    between atoms: O_4  and  C_5
REMARK    4  A    between atoms: C_18  and  C_19
REMARK    5  A    between atoms: C_23  and  C_24
REMARK                            x       y       z     vdW  Elec       q    Type
REMARK                         _______ _______ _______ _____ _____    ______ ____
ROOT
ATOM      1  C   UNL     1       2.919   1.777 -22.382  0.00  0.00    +0.183 C 
ATOM      2  C   UNL     1       2.681   1.350 -21.177  0.00  0.00    +0.045 C 
ATOM      3  C   UNL     1       1.412   1.500 -20.940  0.00  0.00    +0.008 C 
ATOM      4  C   UNL     1       0.864   2.019 -21.998  0.00  0.00    +0.002 C 
ATOM      5  C   UNL     1      -0.362   2.358 -22.266  0.00  0.00    -0.003 C 
ATOM      6  C   UNL     1      -1.293   2.187 -21.375  0.00  0.00    +0.008 C 
ATOM      7  C   UNL     1      -2.519   2.526 -21.642  0.00  0.00    +0.032 C 
ATOM      8  C   UNL     1      -2.814   3.036 -22.801  0.00  0.00    -0.060 C 
ATOM      9  C   UNL     1      -4.041   3.375 -23.069  0.00  0.00    +0.046 C 
ATOM     10  C   UNL     1      -4.337   3.885 -24.227  0.00  0.00    +0.156 C 
ATOM     11  C   UNL     1      -3.406   4.056 -25.118  0.00  0.00    +0.080 C 
ATOM     12  C   UNL     1      -2.179   3.717 -24.850  0.00  0.00    +0.019 C 
ATOM     13  O   UNL     1      -5.562   4.224 -24.494  0.00  0.00    -0.293 OA
ATOM     14  C   UNL     1      -1.883   3.207 -23.692  0.00  0.00    -0.007 C 
ATOM     15  C   UNL     1      -0.953   3.378 -24.583  0.00  0.00    +0.016 C 
ATOM     16  C   UNL     1      -0.657   2.868 -23.425  0.00  0.00    +0.002 C 
ATOM     17  C   UNL     1       0.273   3.039 -24.316  0.00  0.00    +0.005 C 
ATOM     18  C   UNL     1       1.499   2.700 -24.049  0.00  0.00    +0.011 C 
ATOM     19  C   UNL     1       1.795   2.190 -22.890  0.00  0.00    +0.008 C 
ATOM     20  C   UNL     1       2.813   2.309 -23.690  0.00  0.00    +0.015 C 
ENDROOT
BRANCH   1  21
ATOM     21  O   UNL     1       4.075   1.788 -22.976  0.00  0.00    -0.461 OA
BRANCH  21  23
ATOM     22  C   UNL     1       5.773   2.622 -21.755  0.00  0.00    +0.136 C 
ATOM     23  C   UNL     1       5.161   1.605 -22.285  0.00  0.00    +0.304 C 
ATOM     24  O   UNL     1       5.635   0.405 -22.125  0.00  0.00    -0.251 OA
ENDBRANCH  21  23
ENDBRANCH   1  21
TORSDOF 2
ENDMDL
MODEL 7
REMARK VINA RESULT:    -9.363      2.029      3.937
REMARK INTER + INTRA:          -9.801
REMARK INTER:                 -11.228
REMARK INTRA:                   1.427
REMARK UNBOUND:                 0.656
REMARK  Name = ZINC000013523362
REMARK  5 active torsions:
REMARK  status: ('A' for Active; 'I' for Inactive)
REMARK    1  A    between atoms: C_1  and  C_2
REMARK    2  A    between atoms: C_2  and  O_4
REMARK    3  A    between atoms: O_4  and  C_5
REMARK    4  A    between atoms: C_18  and  C_19
REMARK    5  A    between atoms: C_23  and  C_24
REMARK                            x       y       z     vdW  Elec       q    Type
REMARK                         _______ _______ _______ _____ _____    ______ ____
ROOT
ATOM      1  C   UNL     1       4.847   2.802 -22.143  0.00  0.00    +0.183 C 
ATOM      2  C   UNL     1       4.680   1.996 -21.136  0.00  0.00    +0.045 C 
ATOM      3  C   UNL     1       3.420   1.681 -21.077  0.00  0.00    +0.008 C 
ATOM      4  C   UNL     1       2.808   2.293 -22.047  0.00  0.00    +0.002 C 
ATOM      5  C   UNL     1       1.561   2.309 -22.416  0.00  0.00    -0.003 C 
ATOM      6  C   UNL     1       0.679   1.616 -21.757  0.00  0.00    +0.008 C 
ATOM      7  C   UNL     1      -0.567   1.632 -22.125  0.00  0.00    +0.032 C 
ATOM      8  C   UNL     1      -0.932   2.340 -23.152  0.00  0.00    -0.060 C 
ATOM      9  C   UNL     1      -2.179   2.356 -23.521  0.00  0.00    +0.046 C 
ATOM     10  C   UNL     1      -2.545   3.064 -24.548  0.00  0.00    +0.156 C 
ATOM     11  C   UNL     1      -1.663   3.756 -25.206  0.00  0.00    +0.080 C 
ATOM     12  C   UNL     1      -0.416   3.740 -24.838  0.00  0.00    +0.019 C 
ATOM     13  O   UNL     1      -3.791   3.079 -24.916  0.00  0.00    -0.293 OA
ATOM     14  C   UNL     1      -0.051   3.033 -23.811  0.00  0.00    -0.007 C 
ATOM     15  C   UNL     1       0.830   3.725 -24.470  0.00  0.00    +0.016 C 
ATOM     16  C   UNL     1       1.196   3.017 -23.443  0.00  0.00    +0.002 C 
ATOM     17  C   UNL     1       2.077   3.709 -24.102  0.00  0.00    +0.005 C 
ATOM     18  C   UNL     1       3.323   3.694 -23.733  0.00  0.00    +0.011 C 
ATOM     19  C   UNL     1       3.689   2.985 -22.706  0.00  0.00    +0.008 C 
ATOM     20  C   UNL     1       4.663   3.630 -23.277  0.00  0.00    +0.015 C 
ENDROOT
BRANCH   1  21
ATOM     21  O   UNL     1       5.972   3.332 -22.521  0.00  0.00    -0.461 OA
BRANCH  21  23
ATOM     22  C   UNL     1       7.882   4.413 -22.020  0.00  0.00    +0.136 C 
ATOM     23  C   UNL     1       6.771   3.857 -21.640  0.00  0.00    +0.304 C 
ATOM     24  O   UNL     1       6.458   3.825 -20.378  0.00  0.00    -0.251 OA
ENDBRANCH  21  23
ENDBRANCH   1  21
TORSDOF 2
ENDMDL
MODEL 8
REMARK VINA RESULT:    -8.418      2.070      2.995
REMARK INTER + INTRA:          -8.746
REMARK INTER:                  -9.435
REMARK INTRA:                   0.689
REMARK UNBOUND:                 0.656
REMARK  Name = ZINC000013523362
REMARK  5 active torsions:
REMARK  status: ('A' for Active; 'I' for Inactive)
REMARK    1  A    between atoms: C_1  and  C_2
REMARK    2  A    between atoms: C_2  and  O_4
REMARK    3  A    between atoms: O_4  and  C_5
REMARK    4  A    between atoms: C_18  and  C_19
REMARK    5  A    between atoms: C_23  and  C_24
REMARK                            x       y       z     vdW  Elec       q    Type
REMARK                         _______ _______ _______ _____ _____    ______ ____
ROOT
ATOM      1  C   UNL     1       4.242   3.881 -23.419  0.00  0.00    +0.183 C 
ATOM      2  C   UNL     1       4.306   5.103 -22.979  0.00  0.00    +0.045 C 
ATOM      3  C   UNL     1       3.097   5.578 -22.932  0.00  0.00    +0.008 C 
ATOM      4  C   UNL     1       2.285   4.650 -23.344  0.00  0.00    +0.002 C 
ATOM      5  C   UNL     1       0.993   4.624 -23.484  0.00  0.00    -0.003 C 
ATOM      6  C   UNL     1       0.285   5.673 -23.183  0.00  0.00    +0.008 C 
ATOM      7  C   UNL     1      -1.006   5.647 -23.322  0.00  0.00    +0.032 C 
ATOM      8  C   UNL     1      -1.591   4.573 -23.763  0.00  0.00    -0.060 C 
ATOM      9  C   UNL     1      -2.884   4.547 -23.903  0.00  0.00    +0.046 C 
ATOM     10  C   UNL     1      -3.469   3.474 -24.344  0.00  0.00    +0.156 C 
ATOM     11  C   UNL     1      -2.762   2.426 -24.645  0.00  0.00    +0.080 C 
ATOM     12  C   UNL     1      -1.469   2.452 -24.505  0.00  0.00    +0.019 C 
ATOM     13  O   UNL     1      -4.761   3.449 -24.483  0.00  0.00    -0.293 OA
ATOM     14  C   UNL     1      -0.884   3.525 -24.064  0.00  0.00    -0.007 C 
ATOM     15  C   UNL     1      -0.177   2.476 -24.365  0.00  0.00    +0.016 C 
ATOM     16  C   UNL     1       0.408   3.550 -23.925  0.00  0.00    +0.002 C 
ATOM     17  C   UNL     1       1.115   2.502 -24.226  0.00  0.00    +0.005 C 
ATOM     18  C   UNL     1       2.407   2.527 -24.086  0.00  0.00    +0.011 C 
ATOM     19  C   UNL     1       2.992   3.601 -23.645  0.00  0.00    +0.008 C 
ATOM     20  C   UNL     1       3.809   2.625 -23.910  0.00  0.00    +0.015 C 
ENDROOT
BRANCH   1  21
ATOM     21  O   UNL     1       5.249   3.080 -23.602  0.00  0.00    -0.461 OA
BRANCH  21  23
ATOM     22  C   UNL     1       7.099   4.229 -24.174  0.00  0.00    +0.136 C 
ATOM     23  C   UNL     1       6.455   3.480 -23.329  0.00  0.00    +0.304 C 
ATOM     24  O   UNL     1       7.018   3.131 -22.210  0.00  0.00    -0.251 OA
ENDBRANCH  21  23
ENDBRANCH   1  21
TORSDOF 2
ENDMDL
