MODEL 1
REMARK VINA RESULT:    -9.772      0.000      0.000
REMARK INTER + INTRA:          -9.772
REMARK INTER:                  -9.772
REMARK INTRA:                   0.000
REMARK UNBOUND:                 0.000
REMARK  Name = C[C@@H]1CCC[C@@]2(C)O[C@@H]2[C@H]2OC(=O)[C@H](C)[C@H]2CC1            ZINC000105413319
REMARK  3 active torsions:
REMARK  status: ('A' for Active; 'I' for Inactive)
REMARK    1  A    between atoms: C_1  and  C_2
REMARK    2  A    between atoms: C_6  and  C_7
REMARK    3  A    between atoms: C_14  and  C_15
REMARK                            x       y       z     vdW  Elec       q    Type
REMARK                         _______ _______ _______ _____ _____    ______ ____
ROOT
ATOM      1  C   UNL     1      -3.256   3.758 -27.075  0.00  0.00    +0.007 C 
ATOM      2  C   UNL     1      -3.458   3.585 -25.803  0.00  0.00    -0.014 C 
ATOM      3  C   UNL     1      -4.649   3.742 -25.306  0.00  0.00    +0.003 C 
ATOM      4  C   UNL     1      -4.850   3.570 -24.033  0.00  0.00    +0.003 C 
ATOM      5  C   UNL     1      -3.860   3.240 -23.257  0.00  0.00    +0.037 C 
ATOM      6  C   UNL     1      -4.061   3.068 -21.985  0.00  0.00    +0.097 C 
ATOM      7  O   UNL     1      -4.263   2.895 -20.712  0.00  0.00    -0.361 OA
ATOM      8  C   UNL     1      -5.320   3.348 -22.146  0.00  0.00    +0.044 C 
ATOM      9  C   UNL     1      -3.072   2.739 -21.209  0.00  0.00    +0.191 C 
ATOM     10  C   UNL     1      -1.881   2.582 -21.706  0.00  0.00    +0.212 C 
ATOM     11  O   UNL     1      -0.745   2.262 -21.160  0.00  0.00    -0.458 OA
ATOM     12  C   UNL     1       0.157   2.237 -22.095  0.00  0.00    +0.311 C 
ATOM     13  C   UNL     1      -0.420   2.541 -23.219  0.00  0.00    +0.101 C 
ATOM     14  C   UNL     1       0.160   2.618 -24.380  0.00  0.00    +0.019 C 
ATOM     15  O   UNL     1       1.416   1.956 -21.934  0.00  0.00    -0.251 OA
ATOM     16  C   UNL     1      -1.679   2.754 -22.979  0.00  0.00    +0.046 C 
ATOM     17  C   UNL     1      -2.669   3.084 -23.754  0.00  0.00    +0.008 C 
ATOM     18  C   UNL     1      -2.468   3.256 -25.027  0.00  0.00    +0.004 C 
ENDROOT
TORSDOF 0
ENDMDL
MODEL 2
REMARK VINA RESULT:    -9.758      1.933      3.504
REMARK INTER + INTRA:          -9.758
REMARK INTER:                  -9.758
REMARK INTRA:                   0.000
REMARK UNBOUND:                 0.000
REMARK  Name = C[C@@H]1CCC[C@@]2(C)O[C@@H]2[C@H]2OC(=O)[C@H](C)[C@H]2CC1            ZINC000105413319
REMARK  3 active torsions:
REMARK  status: ('A' for Active; 'I' for Inactive)
REMARK    1  A    between atoms: C_1  and  C_2
REMARK    2  A    between atoms: C_6  and  C_7
REMARK    3  A    between atoms: C_14  and  C_15
REMARK                            x       y       z     vdW  Elec       q    Type
REMARK                         _______ _______ _______ _____ _____    ______ ____
ROOT
ATOM      1  C   UNL     1      -4.082   2.235 -19.982  0.00  0.00    +0.007 C 
ATOM      2  C   UNL     1      -4.058   2.689 -21.200  0.00  0.00    -0.014 C 
ATOM      3  C   UNL     1      -5.144   3.159 -21.740  0.00  0.00    +0.003 C 
ATOM      4  C   UNL     1      -5.120   3.613 -22.958  0.00  0.00    +0.003 C 
ATOM      5  C   UNL     1      -4.010   3.599 -23.636  0.00  0.00    +0.037 C 
ATOM      6  C   UNL     1      -3.986   4.053 -24.853  0.00  0.00    +0.097 C 
ATOM      7  O   UNL     1      -3.962   4.508 -26.071  0.00  0.00    -0.361 OA
ATOM      8  C   UNL     1      -5.253   4.333 -24.774  0.00  0.00    +0.044 C 
ATOM      9  C   UNL     1      -2.877   4.038 -25.530  0.00  0.00    +0.191 C 
ATOM     10  C   UNL     1      -1.792   3.569 -24.990  0.00  0.00    +0.212 C 
ATOM     11  O   UNL     1      -0.579   3.443 -25.442  0.00  0.00    -0.458 OA
ATOM     12  C   UNL     1       0.146   2.911 -24.503  0.00  0.00    +0.311 C 
ATOM     13  C   UNL     1      -0.619   2.708 -23.472  0.00  0.00    +0.101 C 
ATOM     14  C   UNL     1      -0.250   2.189 -22.338  0.00  0.00    +0.019 C 
ATOM     15  O   UNL     1       1.413   2.632 -24.583  0.00  0.00    -0.251 OA
ATOM     16  C   UNL     1      -1.816   3.114 -23.773  0.00  0.00    +0.046 C 
ATOM     17  C   UNL     1      -2.925   3.129 -23.095  0.00  0.00    +0.008 C 
ATOM     18  C   UNL     1      -2.949   2.674 -21.877  0.00  0.00    +0.004 C 
ENDROOT
TORSDOF 0
ENDMDL
MODEL 3
REMARK VINA RESULT:    -9.742      0.161      0.161
REMARK INTER + INTRA:          -9.742
REMARK INTER:                  -9.742
REMARK INTRA:                   0.000
REMARK UNBOUND:                 0.000
REMARK  Name = C[C@@H]1CCC[C@@]2(C)O[C@@H]2[C@H]2OC(=O)[C@H](C)[C@H]2CC1            ZINC000105413319
REMARK  3 active torsions:
REMARK  status: ('A' for Active; 'I' for Inactive)
REMARK    1  A    between atoms: C_1  and  C_2
REMARK    2  A    between atoms: C_6  and  C_7
REMARK    3  A    between atoms: C_14  and  C_15
REMARK                            x       y       z     vdW  Elec       q    Type
REMARK                         _______ _______ _______ _____ _____    ______ ____
ROOT
ATOM      1  C   UNL     1      -3.321   3.953 -26.901  0.00  0.00    +0.007 C 
ATOM      2  C   UNL     1      -3.511   3.721 -25.637  0.00  0.00    -0.014 C 
ATOM      3  C   UNL     1      -4.697   3.860 -25.122  0.00  0.00    +0.003 C 
ATOM      4  C   UNL     1      -4.887   3.628 -23.857  0.00  0.00    +0.003 C 
ATOM      5  C   UNL     1      -3.892   3.255 -23.107  0.00  0.00    +0.037 C 
ATOM      6  C   UNL     1      -4.083   3.023 -21.842  0.00  0.00    +0.097 C 
ATOM      7  O   UNL     1      -4.274   2.790 -20.578  0.00  0.00    -0.361 OA
ATOM      8  C   UNL     1      -5.342   3.318 -21.978  0.00  0.00    +0.044 C 
ATOM      9  C   UNL     1      -3.089   2.651 -21.093  0.00  0.00    +0.191 C 
ATOM     10  C   UNL     1      -1.903   2.511 -21.608  0.00  0.00    +0.212 C 
ATOM     11  O   UNL     1      -0.765   2.158 -21.089  0.00  0.00    -0.458 OA
ATOM     12  C   UNL     1       0.129   2.173 -22.032  0.00  0.00    +0.311 C 
ATOM     13  C   UNL     1      -0.457   2.535 -23.135  0.00  0.00    +0.101 C 
ATOM     14  C   UNL     1       0.113   2.665 -24.296  0.00  0.00    +0.019 C 
ATOM     15  O   UNL     1       1.387   1.878 -21.897  0.00  0.00    -0.251 OA
ATOM     16  C   UNL     1      -1.712   2.744 -22.873  0.00  0.00    +0.046 C 
ATOM     17  C   UNL     1      -2.707   3.116 -23.622  0.00  0.00    +0.008 C 
ATOM     18  C   UNL     1      -2.517   3.349 -24.888  0.00  0.00    +0.004 C 
ENDROOT
TORSDOF 0
ENDMDL
MODEL 4
REMARK VINA RESULT:    -9.601      2.129      4.983
REMARK INTER + INTRA:          -9.601
REMARK INTER:                  -9.601
REMARK INTRA:                   0.000
REMARK UNBOUND:                 0.000
REMARK  Name = C[C@@H]1CCC[C@@]2(C)O[C@@H]2[C@H]2OC(=O)[C@H](C)[C@H]2CC1            ZINC000105413319
REMARK  3 active torsions:
REMARK  status: ('A' for Active; 'I' for Inactive)
REMARK    1  A    between atoms: C_1  and  C_2
REMARK    2  A    between atoms: C_6  and  C_7
REMARK    3  A    between atoms: C_14  and  C_15
REMARK                            x       y       z     vdW  Elec       q    Type
REMARK                         _______ _______ _______ _____ _____    ______ ____
ROOT
ATOM      1  C   UNL     1       0.428   1.506 -20.637  0.00  0.00    +0.007 C 
ATOM      2  C   UNL     1      -0.125   1.988 -21.710  0.00  0.00    -0.014 C 
ATOM      3  C   UNL     1       0.594   2.205 -22.770  0.00  0.00    +0.003 C 
ATOM      4  C   UNL     1       0.041   2.687 -23.843  0.00  0.00    +0.003 C 
ATOM      5  C   UNL     1      -1.232   2.952 -23.856  0.00  0.00    +0.037 C 
ATOM      6  C   UNL     1      -1.785   3.434 -24.929  0.00  0.00    +0.097 C 
ATOM      7  O   UNL     1      -2.338   3.916 -26.002  0.00  0.00    -0.361 OA
ATOM      8  C   UNL     1      -0.635   3.407 -25.534  0.00  0.00    +0.044 C 
ATOM      9  C   UNL     1      -3.058   3.699 -24.941  0.00  0.00    +0.191 C 
ATOM     10  C   UNL     1      -3.777   3.481 -23.880  0.00  0.00    +0.212 C 
ATOM     11  O   UNL     1      -5.042   3.656 -23.637  0.00  0.00    -0.458 OA
ATOM     12  C   UNL     1      -5.270   3.281 -22.413  0.00  0.00    +0.311 C 
ATOM     13  C   UNL     1      -4.147   2.875 -21.900  0.00  0.00    +0.101 C 
ATOM     14  C   UNL     1      -3.976   2.425 -20.693  0.00  0.00    +0.019 C 
ATOM     15  O   UNL     1      -6.420   3.309 -21.808  0.00  0.00    -0.251 OA
ATOM     16  C   UNL     1      -3.224   2.999 -22.808  0.00  0.00    +0.046 C 
ATOM     17  C   UNL     1      -1.952   2.734 -22.795  0.00  0.00    +0.008 C 
ATOM     18  C   UNL     1      -1.398   2.252 -21.722  0.00  0.00    +0.004 C 
ENDROOT
TORSDOF 0
ENDMDL
MODEL 5
REMARK VINA RESULT:    -9.399      1.799      3.435
REMARK INTER + INTRA:          -9.399
REMARK INTER:                  -9.399
REMARK INTRA:                   0.000
REMARK UNBOUND:                 0.000
REMARK  Name = C[C@@H]1CCC[C@@]2(C)O[C@@H]2[C@H]2OC(=O)[C@H](C)[C@H]2CC1            ZINC000105413319
REMARK  3 active torsions:
REMARK  status: ('A' for Active; 'I' for Inactive)
REMARK    1  A    between atoms: C_1  and  C_2
REMARK    2  A    between atoms: C_6  and  C_7
REMARK    3  A    between atoms: C_14  and  C_15
REMARK                            x       y       z     vdW  Elec       q    Type
REMARK                         _______ _______ _______ _____ _____    ______ ____
ROOT
ATOM      1  C   UNL     1      -4.419   2.387 -20.318  0.00  0.00    +0.007 C 
ATOM      2  C   UNL     1      -3.898   2.676 -21.473  0.00  0.00    -0.014 C 
ATOM      3  C   UNL     1      -4.635   3.198 -22.408  0.00  0.00    +0.003 C 
ATOM      4  C   UNL     1      -4.113   3.487 -23.563  0.00  0.00    +0.003 C 
ATOM      5  C   UNL     1      -2.853   3.253 -23.784  0.00  0.00    +0.037 C 
ATOM      6  C   UNL     1      -2.332   3.541 -24.939  0.00  0.00    +0.097 C 
ATOM      7  O   UNL     1      -1.810   3.830 -26.094  0.00  0.00    -0.361 OA
ATOM      8  C   UNL     1      -3.485   3.978 -25.351  0.00  0.00    +0.044 C 
ATOM      9  C   UNL     1      -1.072   3.308 -25.159  0.00  0.00    +0.191 C 
ATOM     10  C   UNL     1      -0.335   2.786 -24.225  0.00  0.00    +0.212 C 
ATOM     11  O   UNL     1       0.923   2.460 -24.190  0.00  0.00    -0.458 OA
ATOM     12  C   UNL     1       1.179   1.970 -23.013  0.00  0.00    +0.311 C 
ATOM     13  C   UNL     1       0.079   1.994 -22.321  0.00  0.00    +0.101 C 
ATOM     14  C   UNL     1      -0.061   1.584 -21.095  0.00  0.00    +0.019 C 
ATOM     15  O   UNL     1       2.332   1.534 -22.601  0.00  0.00    -0.251 OA
ATOM     16  C   UNL     1      -0.856   2.497 -23.070  0.00  0.00    +0.046 C 
ATOM     17  C   UNL     1      -2.116   2.731 -22.849  0.00  0.00    +0.008 C 
ATOM     18  C   UNL     1      -2.638   2.442 -21.694  0.00  0.00    +0.004 C 
ENDROOT
TORSDOF 0
ENDMDL
MODEL 6
REMARK VINA RESULT:    -9.181      2.263      4.425
REMARK INTER + INTRA:          -9.181
REMARK INTER:                  -9.181
REMARK INTRA:                   0.000
REMARK UNBOUND:                 0.000
REMARK  Name = C[C@@H]1CCC[C@@]2(C)O[C@@H]2[C@H]2OC(=O)[C@H](C)[C@H]2CC1            ZINC000105413319
REMARK  3 active torsions:
REMARK  status: ('A' for Active; 'I' for Inactive)
REMARK    1  A    between atoms: C_1  and  C_2
REMARK    2  A    between atoms: C_6  and  C_7
REMARK    3  A    between atoms: C_14  and  C_15
REMARK                            x       y       z     vdW  Elec       q    Type
REMARK                         _______ _______ _______ _____ _____    ______ ____
ROOT
ATOM      1  C   UNL     1      -6.173   2.874 -21.393  0.00  0.00    +0.007 C 
ATOM      2  C   UNL     1      -4.915   2.853 -21.720  0.00  0.00    -0.014 C 
ATOM      3  C   UNL     1      -4.009   2.658 -20.808  0.00  0.00    +0.003 C 
ATOM      4  C   UNL     1      -2.752   2.637 -21.136  0.00  0.00    +0.003 C 
ATOM      5  C   UNL     1      -2.399   2.811 -22.376  0.00  0.00    +0.037 C 
ATOM      6  C   UNL     1      -1.142   2.789 -22.703  0.00  0.00    +0.097 C 
ATOM      7  O   UNL     1       0.116   2.768 -23.030  0.00  0.00    -0.361 OA
ATOM      8  C   UNL     1      -0.822   2.577 -21.461  0.00  0.00    +0.044 C 
ATOM      9  C   UNL     1      -0.790   2.963 -23.942  0.00  0.00    +0.191 C 
ATOM     10  C   UNL     1      -1.696   3.158 -24.854  0.00  0.00    +0.212 C 
ATOM     11  O   UNL     1      -1.611   3.354 -26.136  0.00  0.00    -0.458 OA
ATOM     12  C   UNL     1      -2.817   3.496 -26.601  0.00  0.00    +0.311 C 
ATOM     13  C   UNL     1      -3.647   3.388 -25.606  0.00  0.00    +0.101 C 
ATOM     14  C   UNL     1      -4.942   3.474 -25.678  0.00  0.00    +0.019 C 
ATOM     15  O   UNL     1      -3.137   3.709 -27.843  0.00  0.00    -0.251 OA
ATOM     16  C   UNL     1      -2.954   3.179 -24.526  0.00  0.00    +0.046 C 
ATOM     17  C   UNL     1      -3.305   3.005 -23.287  0.00  0.00    +0.008 C 
ATOM     18  C   UNL     1      -4.564   3.027 -22.959  0.00  0.00    +0.004 C 
ENDROOT
TORSDOF 0
ENDMDL
MODEL 7
REMARK VINA RESULT:    -9.114      2.381      4.130
REMARK INTER + INTRA:          -9.114
REMARK INTER:                  -9.114
REMARK INTRA:                   0.000
REMARK UNBOUND:                 0.000
REMARK  Name = C[C@@H]1CCC[C@@]2(C)O[C@@H]2[C@H]2OC(=O)[C@H](C)[C@H]2CC1            ZINC000105413319
REMARK  3 active torsions:
REMARK  status: ('A' for Active; 'I' for Inactive)
REMARK    1  A    between atoms: C_1  and  C_2
REMARK    2  A    between atoms: C_6  and  C_7
REMARK    3  A    between atoms: C_14  and  C_15
REMARK                            x       y       z     vdW  Elec       q    Type
REMARK                         _______ _______ _______ _____ _____    ______ ____
ROOT
ATOM      1  C   UNL     1       0.426   2.019 -22.118  0.00  0.00    +0.007 C 
ATOM      2  C   UNL     1      -0.838   2.320 -22.121  0.00  0.00    -0.014 C 
ATOM      3  C   UNL     1      -1.539   2.196 -21.033  0.00  0.00    +0.003 C 
ATOM      4  C   UNL     1      -2.803   2.497 -21.036  0.00  0.00    +0.003 C 
ATOM      5  C   UNL     1      -3.368   2.922 -22.128  0.00  0.00    +0.037 C 
ATOM      6  C   UNL     1      -4.632   3.223 -22.131  0.00  0.00    +0.097 C 
ATOM      7  O   UNL     1      -5.897   3.524 -22.134  0.00  0.00    -0.361 OA
ATOM      8  C   UNL     1      -4.711   2.907 -20.872  0.00  0.00    +0.044 C 
ATOM      9  C   UNL     1      -5.197   3.647 -23.222  0.00  0.00    +0.191 C 
ATOM     10  C   UNL     1      -4.496   3.770 -24.310  0.00  0.00    +0.212 C 
ATOM     11  O   UNL     1      -4.813   4.164 -25.508  0.00  0.00    -0.458 OA
ATOM     12  C   UNL     1      -3.743   4.106 -26.245  0.00  0.00    +0.311 C 
ATOM     13  C   UNL     1      -2.766   3.677 -25.503  0.00  0.00    +0.101 C 
ATOM     14  C   UNL     1      -1.539   3.488 -25.889  0.00  0.00    +0.019 C 
ATOM     15  O   UNL     1      -3.665   4.422 -27.503  0.00  0.00    -0.251 OA
ATOM     16  C   UNL     1      -3.232   3.469 -24.307  0.00  0.00    +0.046 C 
ATOM     17  C   UNL     1      -2.668   3.045 -23.216  0.00  0.00    +0.008 C 
ATOM     18  C   UNL     1      -1.402   2.744 -23.212  0.00  0.00    +0.004 C 
ENDROOT
TORSDOF 0
ENDMDL
MODEL 8
REMARK VINA RESULT:    -8.827      2.849      4.531
REMARK INTER + INTRA:          -8.827
REMARK INTER:                  -8.827
REMARK INTRA:                   0.000
REMARK UNBOUND:                 0.000
REMARK  Name = C[C@@H]1CCC[C@@]2(C)O[C@@H]2[C@H]2OC(=O)[C@H](C)[C@H]2CC1            ZINC000105413319
REMARK  3 active torsions:
REMARK  status: ('A' for Active; 'I' for Inactive)
REMARK    1  A    between atoms: C_1  and  C_2
REMARK    2  A    between atoms: C_6  and  C_7
REMARK    3  A    between atoms: C_14  and  C_15
REMARK                            x       y       z     vdW  Elec       q    Type
REMARK                         _______ _______ _______ _____ _____    ______ ____
ROOT
ATOM      1  C   UNL     1      -2.826   3.768 -21.159  0.00  0.00    +0.007 C 
ATOM      2  C   UNL     1      -1.929   3.602 -22.085  0.00  0.00    -0.014 C 
ATOM      3  C   UNL     1      -2.110   4.115 -23.265  0.00  0.00    +0.003 C 
ATOM      4  C   UNL     1      -1.214   3.949 -24.191  0.00  0.00    +0.003 C 
ATOM      5  C   UNL     1      -0.135   3.268 -23.937  0.00  0.00    +0.037 C 
ATOM      6  C   UNL     1       0.761   3.101 -24.863  0.00  0.00    +0.097 C 
ATOM      7  O   UNL     1       1.658   2.934 -25.790  0.00  0.00    -0.361 OA
ATOM      8  C   UNL     1       0.035   3.791 -25.691  0.00  0.00    +0.044 C 
ATOM      9  C   UNL     1       1.839   2.421 -24.609  0.00  0.00    +0.191 C 
ATOM     10  C   UNL     1       2.020   1.907 -23.429  0.00  0.00    +0.212 C 
ATOM     11  O   UNL     1       2.989   1.199 -22.928  0.00  0.00    -0.458 OA
ATOM     12  C   UNL     1       2.690   0.929 -21.691  0.00  0.00    +0.311 C 
ATOM     13  C   UNL     1       1.537   1.469 -21.429  0.00  0.00    +0.101 C 
ATOM     14  C   UNL     1       0.909   1.415 -20.292  0.00  0.00    +0.019 C 
ATOM     15  O   UNL     1       3.417   0.239 -20.864  0.00  0.00    -0.251 OA
ATOM     16  C   UNL     1       1.123   2.073 -22.503  0.00  0.00    +0.046 C 
ATOM     17  C   UNL     1       0.046   2.754 -22.757  0.00  0.00    +0.008 C 
ATOM     18  C   UNL     1      -0.852   2.921 -21.831  0.00  0.00    +0.004 C 
ENDROOT
TORSDOF 0
ENDMDL
MODEL 9
REMARK VINA RESULT:    -8.285      1.912      3.884
REMARK INTER + INTRA:          -8.285
REMARK INTER:                  -8.285
REMARK INTRA:                   0.000
REMARK UNBOUND:                 0.000
REMARK  Name = C[C@@H]1CCC[C@@]2(C)O[C@@H]2[C@H]2OC(=O)[C@H](C)[C@H]2CC1            ZINC000105413319
REMARK  3 active torsions:
REMARK  status: ('A' for Active; 'I' for Inactive)
REMARK    1  A    between atoms: C_1  and  C_2
REMARK    2  A    between atoms: C_6  and  C_7
REMARK    3  A    between atoms: C_14  and  C_15
REMARK                            x       y       z     vdW  Elec       q    Type
REMARK                         _______ _______ _______ _____ _____    ______ ____
ROOT
ATOM      1  C   UNL     1       1.393   3.073 -24.058  0.00  0.00    +0.007 C 
ATOM      2  C   UNL     1       0.135   3.225 -24.347  0.00  0.00    -0.014 C 
ATOM      3  C   UNL     1      -0.221   3.529 -25.560  0.00  0.00    +0.003 C 
ATOM      4  C   UNL     1      -1.479   3.680 -25.850  0.00  0.00    +0.003 C 
ATOM      5  C   UNL     1      -2.382   3.528 -24.926  0.00  0.00    +0.037 C 
ATOM      6  C   UNL     1      -3.640   3.680 -25.215  0.00  0.00    +0.097 C 
ATOM      7  O   UNL     1      -4.898   3.831 -25.504  0.00  0.00    -0.361 OA
ATOM      8  C   UNL     1      -3.325   3.943 -26.448  0.00  0.00    +0.044 C 
ATOM      9  C   UNL     1      -4.542   3.528 -24.291  0.00  0.00    +0.191 C 
ATOM     10  C   UNL     1      -4.185   3.224 -23.079  0.00  0.00    +0.212 C 
ATOM     11  O   UNL     1      -4.874   3.021 -21.995  0.00  0.00    -0.458 OA
ATOM     12  C   UNL     1      -4.041   2.744 -21.036  0.00  0.00    +0.311 C 
ATOM     13  C   UNL     1      -2.838   2.776 -21.527  0.00  0.00    +0.101 C 
ATOM     14  C   UNL     1      -1.739   2.550 -20.871  0.00  0.00    +0.019 C 
ATOM     15  O   UNL     1      -4.356   2.481 -19.803  0.00  0.00    -0.251 OA
ATOM     16  C   UNL     1      -2.927   3.073 -22.789  0.00  0.00    +0.046 C 
ATOM     17  C   UNL     1      -2.026   3.225 -23.713  0.00  0.00    +0.008 C 
ATOM     18  C   UNL     1      -0.767   3.073 -23.424  0.00  0.00    +0.004 C 
ENDROOT
TORSDOF 0
ENDMDL
