MODEL 1
REMARK VINA RESULT:   -12.876      0.000      0.000
REMARK INTER + INTRA:         -13.252
REMARK INTER:                 -13.252
REMARK INTRA:                   0.000
REMARK UNBOUND:                 0.000
REMARK  Name = ZINC000013408699
REMARK  3 active torsions:
REMARK  status: ('A' for Active; 'I' for Inactive)
REMARK    1  A    between atoms: C_1  and  C_2
REMARK    2  A    between atoms: C_2  and  C_3
REMARK    3  A    between atoms: C_20  and  O_21
REMARK                            x       y       z     vdW  Elec       q    Type
REMARK                         _______ _______ _______ _____ _____    ______ ____
ROOT
ATOM      1  C   UNL     1      -5.955   3.360 -22.132  0.00  0.00    +0.055 C 
ATOM      2  C   UNL     1      -4.762   3.268 -22.640  0.00  0.00    +0.105 C 
ATOM      3  C   UNL     1      -4.538   2.790 -21.452  0.00  0.00    +0.052 C 
ATOM      4  C   UNL     1      -3.343   2.398 -21.124  0.00  0.00    +0.043 C 
ATOM      5  C   UNL     1      -2.372   2.483 -21.984  0.00  0.00    -0.005 A 
ATOM      6  C   UNL     1      -1.177   2.090 -21.655  0.00  0.00    +0.022 A 
ATOM      7  C   UNL     1      -0.206   2.175 -22.516  0.00  0.00    +0.061 A 
ATOM      8  C   UNL     1      -0.430   2.653 -23.704  0.00  0.00    +0.146 A 
ATOM      9  O   UNL     1       0.542   2.738 -24.564  0.00  0.00    -0.421 OA
ATOM     10  C   UNL     1       1.737   2.345 -24.235  0.00  0.00    +0.349 A 
ATOM     11  C   UNL     1       1.961   1.867 -23.047  0.00  0.00    +0.113 A 
ATOM     12  C   UNL     1       3.040   1.416 -22.481  0.00  0.00    +0.035 A 
ATOM     13  C   UNL     1       4.260   1.289 -22.910  0.00  0.00    +0.016 A 
ATOM     14  C   UNL     1       5.176   0.798 -22.129  0.00  0.00    +0.046 A 
ATOM     15  C   UNL     1       4.872   0.433 -20.919  0.00  0.00    +0.120 A 
ATOM     16  C   UNL     1       3.652   0.560 -20.490  0.00  0.00    +0.092 A 
ATOM     17  C   UNL     1       2.735   1.051 -21.271  0.00  0.00    +0.140 A 
ATOM     18  O   UNL     1       1.468   1.278 -21.089  0.00  0.00    -0.454 OA
ATOM     19  O   UNL     1       2.707   2.431 -25.096  0.00  0.00    -0.244 OA
ATOM     20  C   UNL     1      -1.625   3.046 -24.032  0.00  0.00    +0.093 A 
ATOM     21  C   UNL     1       0.989   1.782 -22.187  0.00  0.00    +0.154 A 
ATOM     22  C   UNL     1      -2.595   2.961 -23.172  0.00  0.00    +0.128 A 
ATOM     23  C   UNL     1      -5.400   3.778 -23.651  0.00  0.00    +0.055 C 
ATOM     24  O   UNL     1      -3.790   3.354 -23.500  0.00  0.00    -0.486 OA
ENDROOT
BRANCH  15  25
ATOM     25  O   UNL     1       5.788  -0.058 -20.138  0.00  0.00    -0.507 OA
ATOM     26  H   UNL     1       5.557  -0.377 -19.288  0.00  0.00    +0.292 HD
ENDBRANCH  15  25
TORSDOF 1
ENDMDL
MODEL 2
REMARK VINA RESULT:   -11.326      1.521      2.766
REMARK INTER + INTRA:         -11.657
REMARK INTER:                 -11.657
REMARK INTRA:                   0.000
REMARK UNBOUND:                 0.000
REMARK  Name = ZINC000013408699
REMARK  3 active torsions:
REMARK  status: ('A' for Active; 'I' for Inactive)
REMARK    1  A    between atoms: C_1  and  C_2
REMARK    2  A    between atoms: C_2  and  C_3
REMARK    3  A    between atoms: C_20  and  O_21
REMARK                            x       y       z     vdW  Elec       q    Type
REMARK                         _______ _______ _______ _____ _____    ______ ____
ROOT
ATOM      1  C   UNL     1      -5.541   4.180 -24.365  0.00  0.00    +0.055 C 
ATOM      2  C   UNL     1      -4.557   3.720 -23.650  0.00  0.00    +0.105 C 
ATOM      3  C   UNL     1      -3.894   4.213 -24.654  0.00  0.00    +0.052 C 
ATOM      4  C   UNL     1      -2.598   4.130 -24.680  0.00  0.00    +0.043 C 
ATOM      5  C   UNL     1      -1.963   3.554 -23.702  0.00  0.00    -0.005 A 
ATOM      6  C   UNL     1      -0.666   3.472 -23.728  0.00  0.00    +0.022 A 
ATOM      7  C   UNL     1      -0.032   2.896 -22.750  0.00  0.00    +0.061 A 
ATOM      8  C   UNL     1      -0.695   2.403 -21.746  0.00  0.00    +0.146 A 
ATOM      9  O   UNL     1      -0.060   1.827 -20.769  0.00  0.00    -0.421 OA
ATOM     10  C   UNL     1       1.237   1.744 -20.795  0.00  0.00    +0.349 A 
ATOM     11  C   UNL     1       1.900   2.237 -21.799  0.00  0.00    +0.113 A 
ATOM     12  C   UNL     1       3.172   2.284 -22.062  0.00  0.00    +0.035 A 
ATOM     13  C   UNL     1       4.211   1.854 -21.411  0.00  0.00    +0.016 A 
ATOM     14  C   UNL     1       5.403   2.030 -21.901  0.00  0.00    +0.046 A 
ATOM     15  C   UNL     1       5.555   2.635 -23.041  0.00  0.00    +0.120 A 
ATOM     16  C   UNL     1       4.516   3.065 -23.692  0.00  0.00    +0.092 A 
ATOM     17  C   UNL     1       3.323   2.889 -23.203  0.00  0.00    +0.140 A 
ATOM     18  O   UNL     1       2.146   3.216 -23.645  0.00  0.00    -0.454 OA
ATOM     19  O   UNL     1       1.871   1.168 -19.817  0.00  0.00    -0.244 OA
ATOM     20  C   UNL     1      -1.991   2.486 -21.721  0.00  0.00    +0.093 A 
ATOM     21  C   UNL     1       1.265   2.813 -22.777  0.00  0.00    +0.154 A 
ATOM     22  C   UNL     1      -2.626   3.061 -22.698  0.00  0.00    +0.128 A 
ATOM     23  C   UNL     1      -5.562   3.387 -22.895  0.00  0.00    +0.055 C 
ATOM     24  O   UNL     1      -3.923   3.144 -22.672  0.00  0.00    -0.486 OA
ENDROOT
BRANCH  15  25
ATOM     25  O   UNL     1       6.747   2.810 -23.530  0.00  0.00    -0.507 OA
ATOM     26  H   UNL     1       7.180   2.106 -23.972  0.00  0.00    +0.292 HD
ENDBRANCH  15  25
TORSDOF 1
ENDMDL
MODEL 3
REMARK VINA RESULT:   -11.255      1.366      7.215
REMARK INTER + INTRA:         -11.584
REMARK INTER:                 -11.584
REMARK INTRA:                   0.000
REMARK UNBOUND:                 0.000
REMARK  Name = ZINC000013408699
REMARK  3 active torsions:
REMARK  status: ('A' for Active; 'I' for Inactive)
REMARK    1  A    between atoms: C_1  and  C_2
REMARK    2  A    between atoms: C_2  and  C_3
REMARK    3  A    between atoms: C_20  and  O_21
REMARK                            x       y       z     vdW  Elec       q    Type
REMARK                         _______ _______ _______ _____ _____    ______ ____
ROOT
ATOM      1  C   UNL     1       5.263   0.622 -20.915  0.00  0.00    +0.055 C 
ATOM      2  C   UNL     1       4.322   1.080 -21.687  0.00  0.00    +0.105 C 
ATOM      3  C   UNL     1       3.636   0.852 -20.607  0.00  0.00    +0.052 C 
ATOM      4  C   UNL     1       2.362   1.107 -20.581  0.00  0.00    +0.043 C 
ATOM      5  C   UNL     1       1.772   1.588 -21.635  0.00  0.00    -0.005 A 
ATOM      6  C   UNL     1       0.498   1.842 -21.608  0.00  0.00    +0.022 A 
ATOM      7  C   UNL     1      -0.090   2.324 -22.663  0.00  0.00    +0.061 A 
ATOM      8  C   UNL     1       0.596   2.551 -23.744  0.00  0.00    +0.146 A 
ATOM      9  O   UNL     1       0.007   3.033 -24.798  0.00  0.00    -0.421 OA
ATOM     10  C   UNL     1      -1.268   3.287 -24.771  0.00  0.00    +0.349 A 
ATOM     11  C   UNL     1      -1.954   3.060 -23.691  0.00  0.00    +0.113 A 
ATOM     12  C   UNL     1      -3.212   3.223 -23.409  0.00  0.00    +0.035 A 
ATOM     13  C   UNL     1      -4.210   3.669 -24.113  0.00  0.00    +0.016 A 
ATOM     14  C   UNL     1      -5.397   3.735 -23.587  0.00  0.00    +0.046 A 
ATOM     15  C   UNL     1      -5.587   3.354 -22.359  0.00  0.00    +0.120 A 
ATOM     16  C   UNL     1      -4.589   2.908 -21.655  0.00  0.00    +0.092 A 
ATOM     17  C   UNL     1      -3.401   2.842 -22.181  0.00  0.00    +0.140 A 
ATOM     18  O   UNL     1      -2.260   2.444 -21.703  0.00  0.00    -0.454 OA
ATOM     19  O   UNL     1      -1.856   3.769 -25.826  0.00  0.00    -0.244 OA
ATOM     20  C   UNL     1       1.870   2.297 -23.770  0.00  0.00    +0.093 A 
ATOM     21  C   UNL     1      -1.365   2.578 -22.637  0.00  0.00    +0.154 A 
ATOM     22  C   UNL     1       2.459   1.816 -22.716  0.00  0.00    +0.128 A 
ATOM     23  C   UNL     1       5.335   1.148 -22.500  0.00  0.00    +0.055 C 
ATOM     24  O   UNL     1       3.733   1.562 -22.742  0.00  0.00    -0.486 OA
ENDROOT
BRANCH  15  25
ATOM     25  O   UNL     1      -6.775   3.420 -21.833  0.00  0.00    -0.507 OA
ATOM     26  H   UNL     1      -6.873   3.597 -20.918  0.00  0.00    +0.292 HD
ENDBRANCH  15  25
TORSDOF 1
ENDMDL
MODEL 4
REMARK VINA RESULT:   -10.220      1.519      7.642
REMARK INTER + INTRA:         -10.519
REMARK INTER:                 -10.519
REMARK INTRA:                   0.000
REMARK UNBOUND:                 0.000
REMARK  Name = ZINC000013408699
REMARK  3 active torsions:
REMARK  status: ('A' for Active; 'I' for Inactive)
REMARK    1  A    between atoms: C_1  and  C_2
REMARK    2  A    between atoms: C_2  and  C_3
REMARK    3  A    between atoms: C_20  and  O_21
REMARK                            x       y       z     vdW  Elec       q    Type
REMARK                         _______ _______ _______ _____ _____    ______ ____
ROOT
ATOM      1  C   UNL     1       5.655   0.746 -22.108  0.00  0.00    +0.055 C 
ATOM      2  C   UNL     1       4.414   0.962 -21.785  0.00  0.00    +0.105 C 
ATOM      3  C   UNL     1       4.381   1.298 -23.040  0.00  0.00    +0.052 C 
ATOM      4  C   UNL     1       3.269   1.707 -23.573  0.00  0.00    +0.043 C 
ATOM      5  C   UNL     1       2.189   1.780 -22.852  0.00  0.00    -0.005 A 
ATOM      6  C   UNL     1       1.077   2.190 -23.387  0.00  0.00    +0.022 A 
ATOM      7  C   UNL     1      -0.002   2.263 -22.665  0.00  0.00    +0.061 A 
ATOM      8  C   UNL     1       0.032   1.926 -21.409  0.00  0.00    +0.146 A 
ATOM      9  O   UNL     1      -1.048   2.000 -20.688  0.00  0.00    -0.421 OA
ATOM     10  C   UNL     1      -2.160   2.409 -21.223  0.00  0.00    +0.349 A 
ATOM     11  C   UNL     1      -2.193   2.745 -22.478  0.00  0.00    +0.113 A 
ATOM     12  C   UNL     1      -3.156   3.177 -23.237  0.00  0.00    +0.035 A 
ATOM     13  C   UNL     1      -4.410   3.419 -22.999  0.00  0.00    +0.016 A 
ATOM     14  C   UNL     1      -5.180   3.855 -23.951  0.00  0.00    +0.046 A 
ATOM     15  C   UNL     1      -4.697   4.048 -25.141  0.00  0.00    +0.120 A 
ATOM     16  C   UNL     1      -3.442   3.807 -25.380  0.00  0.00    +0.092 A 
ATOM     17  C   UNL     1      -2.671   3.371 -24.428  0.00  0.00    +0.140 A 
ATOM     18  O   UNL     1      -1.410   3.059 -24.405  0.00  0.00    -0.454 OA
ATOM     19  O   UNL     1      -3.239   2.482 -20.501  0.00  0.00    -0.244 OA
ATOM     20  C   UNL     1       1.144   1.517 -20.876  0.00  0.00    +0.093 A 
ATOM     21  C   UNL     1      -1.114   2.672 -23.199  0.00  0.00    +0.154 A 
ATOM     22  C   UNL     1       2.222   1.444 -21.597  0.00  0.00    +0.128 A 
ATOM     23  C   UNL     1       4.878   0.550 -20.642  0.00  0.00    +0.055 C 
ATOM     24  O   UNL     1       3.335   1.035 -21.062  0.00  0.00    -0.486 OA
ENDROOT
BRANCH  15  25
ATOM     25  O   UNL     1      -5.468   4.484 -26.094  0.00  0.00    -0.507 OA
ATOM     26  H   UNL     1      -6.392   4.549 -25.955  0.00  0.00    +0.292 HD
ENDBRANCH  15  25
TORSDOF 1
ENDMDL
