MODEL 1
REMARK VINA RESULT:    -7.681      0.000      0.000
REMARK INTER + INTRA:          -8.779
REMARK INTER:                  -9.212
REMARK INTRA:                   0.433
REMARK UNBOUND:                 0.473
REMARK  Name = ZINC000006556396
REMARK  8 active torsions:
REMARK  status: ('A' for Active; 'I' for Inactive)
REMARK    1  A    between atoms: C_1  and  O_2
REMARK    2  A    between atoms: O_2  and  C_3
REMARK    3  A    between atoms: C_5  and  O_6
REMARK    4  A    between atoms: C_10  and  O_11
REMARK    5  A    between atoms: O_11  and  C_12
REMARK    6  A    between atoms: C_13  and  C_14
REMARK    7  A    between atoms: C_17  and  O_18
REMARK    8  A    between atoms: O_18  and  C_19
REMARK                            x       y       z     vdW  Elec       q    Type
REMARK                         _______ _______ _______ _____ _____    ______ ____
ROOT
ATOM      1  C   UNL     1      -3.178   3.182 -23.461  0.00  0.00    +0.169 A 
ATOM      2  C   UNL     1      -2.706   3.417 -24.649  0.00  0.00    +0.095 A 
ATOM      3  C   UNL     1      -1.441   3.245 -24.892  0.00  0.00    +0.135 A 
ATOM      4  C   UNL     1      -0.648   2.837 -23.947  0.00  0.00    +0.113 A 
ATOM      5  C   UNL     1       0.618   2.664 -24.189  0.00  0.00    +0.238 A 
ATOM      6  C   UNL     1       1.411   2.256 -23.244  0.00  0.00    +0.205 A 
ATOM      7  C   UNL     1       0.939   2.021 -22.055  0.00  0.00    +0.148 A 
ATOM      8  O   UNL     1      -0.326   2.193 -21.812  0.00  0.00    -0.452 OA
ATOM      9  C   UNL     1       1.733   1.613 -21.110  0.00  0.00    +0.090 C 
ATOM     10  O   UNL     1       1.090   2.899 -25.377  0.00  0.00    -0.283 OA
ATOM     11  C   UNL     1      -1.119   2.601 -22.758  0.00  0.00    +0.188 A 
ATOM     12  C   UNL     1      -2.385   2.774 -22.515  0.00  0.00    +0.205 A 
ENDROOT
BRANCH   1  14
ATOM     13  C   UNL     1      -5.194   3.968 -24.084  0.00  0.00    +0.277 C 
ATOM     14  O   UNL     1      -4.443   3.355 -23.218  0.00  0.00    -0.491 OA
ENDBRANCH   1  14
BRANCH   6  15
ATOM     15  O   UNL     1       2.676   2.083 -23.487  0.00  0.00    -0.489 OA
ATOM     16  C   UNL     1       3.086   0.989 -24.058  0.00  0.00    +0.277 C 
ENDBRANCH   6  15
BRANCH   3  17
ATOM     17  O   UNL     1      -0.969   3.480 -26.081  0.00  0.00    -0.506 OA
ATOM     18  H   UNL     1      -1.189   2.911 -26.792  0.00  0.00    +0.292 HD
ENDBRANCH   3  17
BRANCH  12  19
ATOM     19  O   UNL     1      -2.857   2.539 -21.327  0.00  0.00    -0.488 OA
ATOM     20  C   UNL     1      -2.963   3.507 -20.467  0.00  0.00    +0.277 C 
ENDBRANCH  12  19
TORSDOF 4
ENDMDL
MODEL 2
REMARK VINA RESULT:    -7.543      1.433      2.416
REMARK INTER + INTRA:          -8.612
REMARK INTER:                  -9.056
REMARK INTRA:                   0.443
REMARK UNBOUND:                 0.473
REMARK  Name = ZINC000006556396
REMARK  8 active torsions:
REMARK  status: ('A' for Active; 'I' for Inactive)
REMARK    1  A    between atoms: C_1  and  O_2
REMARK    2  A    between atoms: O_2  and  C_3
REMARK    3  A    between atoms: C_5  and  O_6
REMARK    4  A    between atoms: C_10  and  O_11
REMARK    5  A    between atoms: O_11  and  C_12
REMARK    6  A    between atoms: C_13  and  C_14
REMARK    7  A    between atoms: C_17  and  O_18
REMARK    8  A    between atoms: O_18  and  C_19
REMARK                            x       y       z     vdW  Elec       q    Type
REMARK                         _______ _______ _______ _____ _____    ______ ____
ROOT
ATOM      1  C   UNL     1      -4.804   3.394 -22.493  0.00  0.00    +0.169 A 
ATOM      2  C   UNL     1      -4.986   3.678 -23.749  0.00  0.00    +0.095 A 
ATOM      3  C   UNL     1      -3.977   3.675 -24.569  0.00  0.00    +0.135 A 
ATOM      4  C   UNL     1      -2.787   3.388 -24.133  0.00  0.00    +0.113 A 
ATOM      5  C   UNL     1      -1.777   3.385 -24.951  0.00  0.00    +0.238 A 
ATOM      6  C   UNL     1      -0.586   3.099 -24.515  0.00  0.00    +0.205 A 
ATOM      7  C   UNL     1      -0.405   2.815 -23.260  0.00  0.00    +0.148 A 
ATOM      8  O   UNL     1      -1.414   2.817 -22.440  0.00  0.00    -0.452 OA
ATOM      9  C   UNL     1       0.786   2.528 -22.824  0.00  0.00    +0.090 C 
ATOM     10  O   UNL     1      -1.958   3.670 -26.207  0.00  0.00    -0.283 OA
ATOM     11  C   UNL     1      -2.604   3.104 -22.876  0.00  0.00    +0.188 A 
ATOM     12  C   UNL     1      -3.614   3.107 -22.057  0.00  0.00    +0.205 A 
ENDROOT
BRANCH   1  14
ATOM     13  C   UNL     1      -6.775   2.535 -21.824  0.00  0.00    +0.277 C 
ATOM     14  O   UNL     1      -5.813   3.396 -21.674  0.00  0.00    -0.491 OA
ENDBRANCH   1  14
BRANCH   6  15
ATOM     15  O   UNL     1       0.423   3.096 -25.335  0.00  0.00    -0.489 OA
ATOM     16  C   UNL     1       1.127   4.176 -25.503  0.00  0.00    +0.277 C 
ENDBRANCH   6  15
BRANCH   3  17
ATOM     17  O   UNL     1      -4.158   3.959 -25.824  0.00  0.00    -0.506 OA
ATOM     18  H   UNL     1      -4.765   3.459 -26.334  0.00  0.00    +0.292 HD
ENDBRANCH   3  17
BRANCH  12  19
ATOM     19  O   UNL     1      -3.432   2.822 -20.801  0.00  0.00    -0.488 OA
ATOM     20  C   UNL     1      -3.148   3.768 -19.956  0.00  0.00    +0.277 C 
ENDBRANCH  12  19
TORSDOF 4
ENDMDL
MODEL 3
REMARK VINA RESULT:    -7.305      1.422      3.080
REMARK INTER + INTRA:          -8.326
REMARK INTER:                  -8.754
REMARK INTRA:                   0.428
REMARK UNBOUND:                 0.473
REMARK  Name = ZINC000006556396
REMARK  8 active torsions:
REMARK  status: ('A' for Active; 'I' for Inactive)
REMARK    1  A    between atoms: C_1  and  O_2
REMARK    2  A    between atoms: O_2  and  C_3
REMARK    3  A    between atoms: C_5  and  O_6
REMARK    4  A    between atoms: C_10  and  O_11
REMARK    5  A    between atoms: O_11  and  C_12
REMARK    6  A    between atoms: C_13  and  C_14
REMARK    7  A    between atoms: C_17  and  O_18
REMARK    8  A    between atoms: O_18  and  C_19
REMARK                            x       y       z     vdW  Elec       q    Type
REMARK                         _______ _______ _______ _____ _____    ______ ____
ROOT
ATOM      1  C   UNL     1      -3.757   3.383 -22.883  0.00  0.00    +0.169 A 
ATOM      2  C   UNL     1      -3.295   2.594 -21.959  0.00  0.00    +0.095 A 
ATOM      3  C   UNL     1      -2.038   2.264 -21.954  0.00  0.00    +0.135 A 
ATOM      4  C   UNL     1      -1.242   2.724 -22.874  0.00  0.00    +0.113 A 
ATOM      5  C   UNL     1       0.015   2.395 -22.870  0.00  0.00    +0.238 A 
ATOM      6  C   UNL     1       0.811   2.854 -23.789  0.00  0.00    +0.205 A 
ATOM      7  C   UNL     1       0.349   3.643 -24.714  0.00  0.00    +0.148 A 
ATOM      8  O   UNL     1      -0.908   3.973 -24.718  0.00  0.00    -0.452 OA
ATOM      9  C   UNL     1       1.144   4.103 -25.633  0.00  0.00    +0.090 C 
ATOM     10  O   UNL     1       0.477   1.605 -21.946  0.00  0.00    -0.283 OA
ATOM     11  C   UNL     1      -1.704   3.513 -23.799  0.00  0.00    +0.188 A 
ATOM     12  C   UNL     1      -2.962   3.843 -23.803  0.00  0.00    +0.205 A 
ENDROOT
BRANCH   1  14
ATOM     13  C   UNL     1      -5.843   3.129 -22.073  0.00  0.00    +0.277 C 
ATOM     14  O   UNL     1      -5.014   3.713 -22.888  0.00  0.00    -0.491 OA
ENDBRANCH   1  14
BRANCH   6  15
ATOM     15  O   UNL     1       2.068   2.524 -23.785  0.00  0.00    -0.489 OA
ATOM     16  C   UNL     1       2.906   3.167 -23.026  0.00  0.00    +0.277 C 
ENDBRANCH   6  15
BRANCH   3  17
ATOM     17  O   UNL     1      -1.576   1.475 -21.030  0.00  0.00    -0.506 OA
ATOM     18  H   UNL     1      -0.652   1.400 -20.899  0.00  0.00    +0.292 HD
ENDBRANCH   3  17
BRANCH  12  19
ATOM     19  O   UNL     1      -3.424   4.632 -24.727  0.00  0.00    -0.488 OA
ATOM     20  C   UNL     1      -3.905   4.133 -25.826  0.00  0.00    +0.277 C 
ENDBRANCH  12  19
TORSDOF 4
ENDMDL
MODEL 4
REMARK VINA RESULT:    -7.253      1.391      4.945
REMARK INTER + INTRA:          -8.263
REMARK INTER:                  -8.710
REMARK INTRA:                   0.447
REMARK UNBOUND:                 0.473
REMARK  Name = ZINC000006556396
REMARK  8 active torsions:
REMARK  status: ('A' for Active; 'I' for Inactive)
REMARK    1  A    between atoms: C_1  and  O_2
REMARK    2  A    between atoms: O_2  and  C_3
REMARK    3  A    between atoms: C_5  and  O_6
REMARK    4  A    between atoms: C_10  and  O_11
REMARK    5  A    between atoms: O_11  and  C_12
REMARK    6  A    between atoms: C_13  and  C_14
REMARK    7  A    between atoms: C_17  and  O_18
REMARK    8  A    between atoms: O_18  and  C_19
REMARK                            x       y       z     vdW  Elec       q    Type
REMARK                         _______ _______ _______ _____ _____    ______ ____
ROOT
ATOM      1  C   UNL     1      -0.376   3.204 -24.662  0.00  0.00    +0.169 A 
ATOM      2  C   UNL     1      -1.344   3.368 -25.514  0.00  0.00    +0.095 A 
ATOM      3  C   UNL     1      -2.568   3.485 -25.093  0.00  0.00    +0.135 A 
ATOM      4  C   UNL     1      -2.824   3.438 -23.820  0.00  0.00    +0.113 A 
ATOM      5  C   UNL     1      -4.048   3.555 -23.397  0.00  0.00    +0.238 A 
ATOM      6  C   UNL     1      -4.305   3.508 -22.124  0.00  0.00    +0.205 A 
ATOM      7  C   UNL     1      -3.337   3.344 -21.272  0.00  0.00    +0.148 A 
ATOM      8  O   UNL     1      -2.113   3.227 -21.693  0.00  0.00    -0.452 OA
ATOM      9  C   UNL     1      -3.593   3.297 -19.998  0.00  0.00    +0.090 C 
ATOM     10  O   UNL     1      -5.016   3.719 -24.249  0.00  0.00    -0.283 OA
ATOM     11  C   UNL     1      -1.856   3.274 -22.966  0.00  0.00    +0.188 A 
ATOM     12  C   UNL     1      -0.632   3.157 -23.388  0.00  0.00    +0.205 A 
ENDROOT
BRANCH   1  14
ATOM     13  C   UNL     1       1.479   4.126 -25.544  0.00  0.00    +0.277 C 
ATOM     14  O   UNL     1       0.848   3.087 -25.083  0.00  0.00    -0.491 OA
ENDBRANCH   1  14
BRANCH   6  15
ATOM     15  O   UNL     1      -5.529   3.625 -21.703  0.00  0.00    -0.489 OA
ATOM     16  C   UNL     1      -6.313   2.588 -21.688  0.00  0.00    +0.277 C 
ENDBRANCH   6  15
BRANCH   3  17
ATOM     17  O   UNL     1      -3.536   3.649 -25.945  0.00  0.00    -0.506 OA
ATOM     18  H   UNL     1      -3.816   4.513 -26.174  0.00  0.00    +0.292 HD
ENDBRANCH   3  17
BRANCH  12  19
ATOM     19  O   UNL     1       0.336   2.993 -22.535  0.00  0.00    -0.488 OA
ATOM     20  C   UNL     1       0.736   1.795 -22.229  0.00  0.00    +0.277 C 
ENDBRANCH  12  19
TORSDOF 4
ENDMDL
MODEL 5
REMARK VINA RESULT:    -6.878      1.494      5.091
REMARK INTER + INTRA:          -7.812
REMARK INTER:                  -8.272
REMARK INTRA:                   0.460
REMARK UNBOUND:                 0.473
REMARK  Name = ZINC000006556396
REMARK  8 active torsions:
REMARK  status: ('A' for Active; 'I' for Inactive)
REMARK    1  A    between atoms: C_1  and  O_2
REMARK    2  A    between atoms: O_2  and  C_3
REMARK    3  A    between atoms: C_5  and  O_6
REMARK    4  A    between atoms: C_10  and  O_11
REMARK    5  A    between atoms: O_11  and  C_12
REMARK    6  A    between atoms: C_13  and  C_14
REMARK    7  A    between atoms: C_17  and  O_18
REMARK    8  A    between atoms: O_18  and  C_19
REMARK                            x       y       z     vdW  Elec       q    Type
REMARK                         _______ _______ _______ _____ _____    ______ ____
ROOT
ATOM      1  C   UNL     1       3.199   2.661 -23.545  0.00  0.00    +0.169 A 
ATOM      2  C   UNL     1       2.814   3.049 -24.725  0.00  0.00    +0.095 A 
ATOM      3  C   UNL     1       1.547   3.150 -24.994  0.00  0.00    +0.135 A 
ATOM      4  C   UNL     1       0.664   2.862 -24.085  0.00  0.00    +0.113 A 
ATOM      5  C   UNL     1      -0.604   2.963 -24.353  0.00  0.00    +0.238 A 
ATOM      6  C   UNL     1      -1.487   2.675 -23.443  0.00  0.00    +0.205 A 
ATOM      7  C   UNL     1      -1.102   2.287 -22.264  0.00  0.00    +0.148 A 
ATOM      8  O   UNL     1       0.166   2.186 -21.994  0.00  0.00    -0.452 OA
ATOM      9  C   UNL     1      -1.984   2.000 -21.354  0.00  0.00    +0.090 C 
ATOM     10  O   UNL     1      -0.989   3.351 -25.533  0.00  0.00    -0.283 OA
ATOM     11  C   UNL     1       1.048   2.474 -22.904  0.00  0.00    +0.188 A 
ATOM     12  C   UNL     1       2.317   2.373 -22.634  0.00  0.00    +0.205 A 
ENDROOT
BRANCH   1  14
ATOM     13  C   UNL     1       5.215   3.624 -23.259  0.00  0.00    +0.277 C 
ATOM     14  O   UNL     1       4.467   2.560 -23.275  0.00  0.00    -0.491 OA
ENDBRANCH   1  14
BRANCH   6  15
ATOM     15  O   UNL     1      -2.754   2.776 -23.713  0.00  0.00    -0.489 OA
ATOM     16  C   UNL     1      -3.339   3.936 -23.665  0.00  0.00    +0.277 C 
ENDBRANCH   6  15
BRANCH   3  17
ATOM     17  O   UNL     1       1.162   3.538 -26.174  0.00  0.00    -0.506 OA
ATOM     18  H   UNL     1       1.695   4.127 -26.669  0.00  0.00    +0.292 HD
ENDBRANCH   3  17
BRANCH  12  19
ATOM     19  O   UNL     1       2.702   1.985 -21.455  0.00  0.00    -0.488 OA
ATOM     20  C   UNL     1       3.083   0.757 -21.268  0.00  0.00    +0.277 C 
ENDBRANCH  12  19
TORSDOF 4
ENDMDL
MODEL 6
REMARK VINA RESULT:    -6.872      1.795      3.942
REMARK INTER + INTRA:          -7.805
REMARK INTER:                  -8.294
REMARK INTRA:                   0.489
REMARK UNBOUND:                 0.473
REMARK  Name = ZINC000006556396
REMARK  8 active torsions:
REMARK  status: ('A' for Active; 'I' for Inactive)
REMARK    1  A    between atoms: C_1  and  O_2
REMARK    2  A    between atoms: O_2  and  C_3
REMARK    3  A    between atoms: C_5  and  O_6
REMARK    4  A    between atoms: C_10  and  O_11
REMARK    5  A    between atoms: O_11  and  C_12
REMARK    6  A    between atoms: C_13  and  C_14
REMARK    7  A    between atoms: C_17  and  O_18
REMARK    8  A    between atoms: O_18  and  C_19
REMARK                            x       y       z     vdW  Elec       q    Type
REMARK                         _______ _______ _______ _____ _____    ______ ____
ROOT
ATOM      1  C   UNL     1      -0.698   2.375 -23.625  0.00  0.00    +0.169 A 
ATOM      2  C   UNL     1      -0.861   1.903 -22.424  0.00  0.00    +0.095 A 
ATOM      3  C   UNL     1       0.174   1.662 -21.675  0.00  0.00    +0.135 A 
ATOM      4  C   UNL     1       1.371   1.892 -22.127  0.00  0.00    +0.113 A 
ATOM      5  C   UNL     1       2.406   1.650 -21.379  0.00  0.00    +0.238 A 
ATOM      6  C   UNL     1       3.603   1.880 -21.831  0.00  0.00    +0.205 A 
ATOM      7  C   UNL     1       3.765   2.352 -23.031  0.00  0.00    +0.148 A 
ATOM      8  O   UNL     1       2.731   2.594 -23.780  0.00  0.00    -0.452 OA
ATOM      9  C   UNL     1       4.962   2.582 -23.483  0.00  0.00    +0.090 C 
ATOM     10  O   UNL     1       2.244   1.179 -20.178  0.00  0.00    -0.283 OA
ATOM     11  C   UNL     1       1.534   2.364 -23.328  0.00  0.00    +0.188 A 
ATOM     12  C   UNL     1       0.498   2.605 -24.077  0.00  0.00    +0.205 A 
ENDROOT
BRANCH   1  14
ATOM     13  C   UNL     1      -2.827   3.078 -23.842  0.00  0.00    +0.277 C 
ATOM     14  O   UNL     1      -1.733   2.617 -24.373  0.00  0.00    -0.491 OA
ENDBRANCH   1  14
BRANCH   6  15
ATOM     15  O   UNL     1       4.638   1.639 -21.082  0.00  0.00    -0.489 OA
ATOM     16  C   UNL     1       4.988   0.411 -20.833  0.00  0.00    +0.277 C 
ENDBRANCH   6  15
BRANCH   3  17
ATOM     17  O   UNL     1       0.012   1.190 -20.475  0.00  0.00    -0.506 OA
ATOM     18  H   UNL     1       0.275   1.698 -19.733  0.00  0.00    +0.292 HD
ENDBRANCH   3  17
BRANCH  12  19
ATOM     19  O   UNL     1       0.661   3.077 -25.278  0.00  0.00    -0.488 OA
ATOM     20  C   UNL     1       0.872   4.347 -25.453  0.00  0.00    +0.277 C 
ENDBRANCH  12  19
TORSDOF 4
ENDMDL
MODEL 7
REMARK VINA RESULT:    -6.814      0.957      4.787
REMARK INTER + INTRA:          -7.735
REMARK INTER:                  -8.351
REMARK INTRA:                   0.616
REMARK UNBOUND:                 0.473
REMARK  Name = ZINC000006556396
REMARK  8 active torsions:
REMARK  status: ('A' for Active; 'I' for Inactive)
REMARK    1  A    between atoms: C_1  and  O_2
REMARK    2  A    between atoms: O_2  and  C_3
REMARK    3  A    between atoms: C_5  and  O_6
REMARK    4  A    between atoms: C_10  and  O_11
REMARK    5  A    between atoms: O_11  and  C_12
REMARK    6  A    between atoms: C_13  and  C_14
REMARK    7  A    between atoms: C_17  and  O_18
REMARK    8  A    between atoms: O_18  and  C_19
REMARK                            x       y       z     vdW  Elec       q    Type
REMARK                         _______ _______ _______ _____ _____    ______ ____
ROOT
ATOM      1  C   UNL     1       1.092   1.898 -23.362  0.00  0.00    +0.169 A 
ATOM      2  C   UNL     1       0.867   2.607 -24.428  0.00  0.00    +0.095 A 
ATOM      3  C   UNL     1      -0.287   3.180 -24.596  0.00  0.00    +0.135 A 
ATOM      4  C   UNL     1      -1.217   3.044 -23.698  0.00  0.00    +0.113 A 
ATOM      5  C   UNL     1      -2.372   3.616 -23.864  0.00  0.00    +0.238 A 
ATOM      6  C   UNL     1      -3.302   3.480 -22.966  0.00  0.00    +0.205 A 
ATOM      7  C   UNL     1      -3.077   2.770 -21.900  0.00  0.00    +0.148 A 
ATOM      8  O   UNL     1      -1.922   2.197 -21.733  0.00  0.00    -0.452 OA
ATOM      9  C   UNL     1      -4.006   2.634 -21.002  0.00  0.00    +0.090 C 
ATOM     10  O   UNL     1      -2.597   4.326 -24.930  0.00  0.00    -0.283 OA
ATOM     11  C   UNL     1      -0.992   2.334 -22.631  0.00  0.00    +0.188 A 
ATOM     12  C   UNL     1       0.163   1.761 -22.463  0.00  0.00    +0.205 A 
ENDROOT
BRANCH   1  14
ATOM     13  C   UNL     1       3.153   1.403 -24.124  0.00  0.00    +0.277 C 
ATOM     14  O   UNL     1       2.247   1.325 -23.194  0.00  0.00    -0.491 OA
ENDBRANCH   1  14
BRANCH   6  15
ATOM     15  O   UNL     1      -4.456   4.053 -23.134  0.00  0.00    -0.489 OA
ATOM     16  C   UNL     1      -5.212   3.711 -24.136  0.00  0.00    +0.277 C 
ENDBRANCH   6  15
BRANCH   3  17
ATOM     17  O   UNL     1      -0.513   3.890 -25.662  0.00  0.00    -0.506 OA
ATOM     18  H   UNL     1       0.192   4.346 -26.077  0.00  0.00    +0.292 HD
ENDBRANCH   3  17
BRANCH  12  19
ATOM     19  O   UNL     1       0.388   1.052 -21.397  0.00  0.00    -0.488 OA
ATOM     20  C   UNL     1       1.082   1.552 -20.419  0.00  0.00    +0.277 C 
ENDBRANCH  12  19
TORSDOF 4
ENDMDL
MODEL 8
REMARK VINA RESULT:    -6.710      2.161      5.490
REMARK INTER + INTRA:          -7.609
REMARK INTER:                  -8.046
REMARK INTRA:                   0.437
REMARK UNBOUND:                 0.473
REMARK  Name = ZINC000006556396
REMARK  8 active torsions:
REMARK  status: ('A' for Active; 'I' for Inactive)
REMARK    1  A    between atoms: C_1  and  O_2
REMARK    2  A    between atoms: O_2  and  C_3
REMARK    3  A    between atoms: C_5  and  O_6
REMARK    4  A    between atoms: C_10  and  O_11
REMARK    5  A    between atoms: O_11  and  C_12
REMARK    6  A    between atoms: C_13  and  C_14
REMARK    7  A    between atoms: C_17  and  O_18
REMARK    8  A    between atoms: O_18  and  C_19
REMARK                            x       y       z     vdW  Elec       q    Type
REMARK                         _______ _______ _______ _____ _____    ______ ____
ROOT
ATOM      1  C   UNL     1       3.721   3.091 -22.967  0.00  0.00    +0.169 A 
ATOM      2  C   UNL     1       3.421   4.298 -23.346  0.00  0.00    +0.095 A 
ATOM      3  C   UNL     1       2.180   4.686 -23.356  0.00  0.00    +0.135 A 
ATOM      4  C   UNL     1       1.240   3.867 -22.988  0.00  0.00    +0.113 A 
ATOM      5  C   UNL     1      -0.001   4.253 -22.998  0.00  0.00    +0.238 A 
ATOM      6  C   UNL     1      -0.941   3.435 -22.630  0.00  0.00    +0.205 A 
ATOM      7  C   UNL     1      -0.640   2.228 -22.252  0.00  0.00    +0.148 A 
ATOM      8  O   UNL     1       0.601   1.840 -22.241  0.00  0.00    -0.452 OA
ATOM      9  C   UNL     1      -1.580   1.409 -21.884  0.00  0.00    +0.090 C 
ATOM     10  O   UNL     1      -0.302   5.460 -23.376  0.00  0.00    -0.283 OA
ATOM     11  C   UNL     1       1.540   2.659 -22.609  0.00  0.00    +0.188 A 
ATOM     12  C   UNL     1       2.782   2.271 -22.599  0.00  0.00    +0.205 A 
ENDROOT
BRANCH   1  14
ATOM     13  C   UNL     1       5.867   3.402 -23.576  0.00  0.00    +0.277 C 
ATOM     14  O   UNL     1       4.962   2.703 -22.957  0.00  0.00    -0.491 OA
ENDBRANCH   1  14
BRANCH   6  15
ATOM     15  O   UNL     1      -2.181   3.823 -22.640  0.00  0.00    -0.489 OA
ATOM     16  C   UNL     1      -2.882   3.732 -23.732  0.00  0.00    +0.277 C 
ENDBRANCH   6  15
BRANCH   3  17
ATOM     17  O   UNL     1       1.879   5.892 -23.734  0.00  0.00    -0.506 OA
ATOM     18  H   UNL     1       1.116   6.314 -23.391  0.00  0.00    +0.292 HD
ENDBRANCH   3  17
BRANCH  12  19
ATOM     19  O   UNL     1       3.082   1.064 -22.221  0.00  0.00    -0.488 OA
ATOM     20  C   UNL     1       3.411   0.834 -20.985  0.00  0.00    +0.277 C 
ENDBRANCH  12  19
TORSDOF 4
ENDMDL
MODEL 9
REMARK VINA RESULT:    -6.374      3.091      5.361
REMARK INTER + INTRA:          -7.205
REMARK INTER:                  -7.678
REMARK INTRA:                   0.473
REMARK UNBOUND:                 0.473
REMARK  Name = ZINC000006556396
REMARK  8 active torsions:
REMARK  status: ('A' for Active; 'I' for Inactive)
REMARK    1  A    between atoms: C_1  and  O_2
REMARK    2  A    between atoms: O_2  and  C_3
REMARK    3  A    between atoms: C_5  and  O_6
REMARK    4  A    between atoms: C_10  and  O_11
REMARK    5  A    between atoms: O_11  and  C_12
REMARK    6  A    between atoms: C_13  and  C_14
REMARK    7  A    between atoms: C_17  and  O_18
REMARK    8  A    between atoms: O_18  and  C_19
REMARK                            x       y       z     vdW  Elec       q    Type
REMARK                         _______ _______ _______ _____ _____    ______ ____
ROOT
ATOM      1  C   UNL     1       1.199   1.983 -22.689  0.00  0.00    +0.169 A 
ATOM      2  C   UNL     1       1.644   1.203 -21.749  0.00  0.00    +0.095 A 
ATOM      3  C   UNL     1       2.866   1.329 -21.325  0.00  0.00    +0.135 A 
ATOM      4  C   UNL     1       3.643   2.233 -21.842  0.00  0.00    +0.113 A 
ATOM      5  C   UNL     1       4.866   2.360 -21.419  0.00  0.00    +0.238 A 
ATOM      6  C   UNL     1       5.643   3.264 -21.935  0.00  0.00    +0.205 A 
ATOM      7  C   UNL     1       5.198   4.044 -22.876  0.00  0.00    +0.148 A 
ATOM      8  O   UNL     1       3.975   3.919 -23.299  0.00  0.00    -0.452 OA
ATOM      9  C   UNL     1       5.975   4.949 -23.392  0.00  0.00    +0.090 C 
ATOM     10  O   UNL     1       5.311   1.580 -20.479  0.00  0.00    -0.283 OA
ATOM     11  C   UNL     1       3.198   3.014 -22.783  0.00  0.00    +0.188 A 
ATOM     12  C   UNL     1       1.975   2.888 -23.207  0.00  0.00    +0.205 A 
ENDROOT
BRANCH   1  14
ATOM     13  C   UNL     1      -1.017   2.019 -22.290  0.00  0.00    +0.277 C 
ATOM     14  O   UNL     1      -0.024   1.858 -23.113  0.00  0.00    -0.491 OA
ENDBRANCH   1  14
BRANCH   6  15
ATOM     15  O   UNL     1       6.866   3.390 -21.512  0.00  0.00    -0.489 OA
ATOM     16  C   UNL     1       7.161   4.311 -20.642  0.00  0.00    +0.277 C 
ENDBRANCH   6  15
BRANCH   3  17
ATOM     17  O   UNL     1       3.312   0.549 -20.385  0.00  0.00    -0.506 OA
ATOM     18  H   UNL     1       3.068   0.705 -19.494  0.00  0.00    +0.292 HD
ENDBRANCH   3  17
BRANCH  12  19
ATOM     19  O   UNL     1       1.530   3.668 -24.147  0.00  0.00    -0.488 OA
ATOM     20  C   UNL     1       1.001   4.815 -23.843  0.00  0.00    +0.277 C 
ENDBRANCH  12  19
TORSDOF 4
ENDMDL
