MODEL 1
REMARK VINA RESULT:   -10.765      0.000      0.000
REMARK INTER + INTRA:         -11.557
REMARK INTER:                 -11.458
REMARK INTRA:                  -0.099
REMARK UNBOUND:                -0.162
REMARK  Name = ZINC000029477726
REMARK  4 active torsions:
REMARK  status: ('A' for Active; 'I' for Inactive)
REMARK    1  A    between atoms: C_1  and  O_2
REMARK    2  A    between atoms: O_2  and  C_3
REMARK    3  A    between atoms: N_12  and  C_13
REMARK    4  A    between atoms: C_17  and  C_18
REMARK                            x       y       z     vdW  Elec       q    Type
REMARK                         _______ _______ _______ _____ _____    ______ ____
ROOT
ATOM      1  C   UNL     1       0.144   3.847 -23.932  0.00  0.00    +0.120 A 
ATOM      2  C   UNL     1      -0.084   3.771 -25.177  0.00  0.00    +0.046 A 
ATOM      3  C   UNL     1      -1.281   3.646 -25.570  0.00  0.00    +0.008 A 
ATOM      4  C   UNL     1      -2.363   3.592 -24.575  0.00  0.00    -0.038 A 
ATOM      5  C   UNL     1      -2.097   3.662 -23.550  0.00  0.00    -0.033 A 
ATOM      6  C   UNL     1      -2.628   3.649 -22.761  0.00  0.00    +0.016 C 
ATOM      7  C   UNL     1      -1.525   3.692 -24.034  0.00  0.00    +0.063 C 
ATOM      8  C   UNL     1      -2.018   3.586 -25.418  0.00  0.00    +0.132 C 
ATOM      9  N   UNL     1      -3.173   3.473 -25.611  0.00  0.00    +0.236 N 
ATOM     10  H   UNL     1      -4.175   3.390 -25.438  0.00  0.00    +0.203 HD
ATOM     11  C   UNL     1      -4.226   3.430 -24.428  0.00  0.00    +0.073 C 
ATOM     12  C   UNL     1      -2.980   3.429 -26.998  0.00  0.00    +0.190 C 
ATOM     13  C   UNL     1      -2.322   3.730 -21.544  0.00  0.00    +0.086 C 
ATOM     14  C   UNL     1      -3.250   3.686 -20.639  0.00  0.00    +0.134 C 
ATOM     15  O   UNL     1      -2.933   3.770 -19.398  0.00  0.00    -0.297 OA
ATOM     16  C   UNL     1      -4.517   3.557 -20.976  0.00  0.00    +0.078 C 
ATOM     17  C   UNL     1      -4.879   3.469 -22.218  0.00  0.00    +0.002 C 
ATOM     18  C   UNL     1      -6.120   3.343 -22.529  0.00  0.00    +0.008 C 
ATOM     19  C   UNL     1      -4.003   3.508 -23.125  0.00  0.00    +0.052 C 
ATOM     20  C   UNL     1      -3.560   3.466 -24.978  0.00  0.00    +0.090 C 
ATOM     21  C   UNL     1      -0.851   3.794 -23.108  0.00  0.00    +0.050 A 
ENDROOT
BRANCH   1  23
ATOM     22  C   UNL     1       2.281   4.801 -23.294  0.00  0.00    +0.277 C 
ATOM     23  O   UNL     1       1.324   3.986 -23.200  0.00  0.00    -0.495 OA
ENDBRANCH   1  23
TORSDOF 1
ENDMDL
MODEL 2
REMARK VINA RESULT:   -10.143      2.124      4.760
REMARK INTER + INTRA:         -10.898
REMARK INTER:                 -10.757
REMARK INTRA:                  -0.141
REMARK UNBOUND:                -0.162
REMARK  Name = ZINC000029477726
REMARK  4 active torsions:
REMARK  status: ('A' for Active; 'I' for Inactive)
REMARK    1  A    between atoms: C_1  and  O_2
REMARK    2  A    between atoms: O_2  and  C_3
REMARK    3  A    between atoms: N_12  and  C_13
REMARK    4  A    between atoms: C_17  and  C_18
REMARK                            x       y       z     vdW  Elec       q    Type
REMARK                         _______ _______ _______ _____ _____    ______ ____
ROOT
ATOM      1  C   UNL     1      -3.640   3.841 -24.972  0.00  0.00    +0.120 A 
ATOM      2  C   UNL     1      -4.515   3.722 -24.062  0.00  0.00    +0.046 A 
ATOM      3  C   UNL     1      -4.162   3.269 -22.933  0.00  0.00    +0.008 A 
ATOM      4  C   UNL     1      -2.755   2.899 -22.716  0.00  0.00    -0.038 A 
ATOM      5  C   UNL     1      -2.079   3.026 -23.523  0.00  0.00    -0.033 A 
ATOM      6  C   UNL     1      -1.146   2.852 -23.594  0.00  0.00    +0.016 C 
ATOM      7  C   UNL     1      -2.789   3.223 -23.664  0.00  0.00    +0.063 C 
ATOM      8  C   UNL     1      -3.627   3.002 -22.472  0.00  0.00    +0.132 C 
ATOM      9  N   UNL     1      -3.136   2.571 -21.495  0.00  0.00    +0.236 N 
ATOM     10  H   UNL     1      -2.437   2.207 -20.848  0.00  0.00    +0.203 HD
ATOM     11  C   UNL     1      -1.594   2.216 -21.409  0.00  0.00    +0.073 C 
ATOM     12  C   UNL     1      -4.361   2.602 -20.815  0.00  0.00    +0.190 C 
ATOM     13  C   UNL     1      -0.337   3.000 -24.546  0.00  0.00    +0.086 C 
ATOM     14  C   UNL     1       0.911   2.683 -24.389  0.00  0.00    +0.134 C 
ATOM     15  O   UNL     1       1.733   2.836 -25.364  0.00  0.00    -0.297 OA
ATOM     16  C   UNL     1       1.348   2.207 -23.242  0.00  0.00    +0.078 C 
ATOM     17  C   UNL     1       0.550   2.038 -22.234  0.00  0.00    +0.002 C 
ATOM     18  C   UNL     1       0.995   1.572 -21.121  0.00  0.00    +0.008 C 
ATOM     19  C   UNL     1      -0.669   2.335 -22.350  0.00  0.00    +0.052 C 
ATOM     20  C   UNL     1      -2.409   2.446 -21.581  0.00  0.00    +0.090 C 
ATOM     21  C   UNL     1      -2.420   3.498 -24.717  0.00  0.00    +0.050 A 
ENDROOT
BRANCH   1  23
ATOM     22  C   UNL     1      -3.343   3.780 -27.379  0.00  0.00    +0.277 C 
ATOM     23  O   UNL     1      -3.710   4.297 -26.289  0.00  0.00    -0.495 OA
ENDBRANCH   1  23
TORSDOF 1
ENDMDL
MODEL 3
REMARK VINA RESULT:    -9.711      2.074      3.791
REMARK INTER + INTRA:         -10.440
REMARK INTER:                 -10.291
REMARK INTRA:                  -0.149
REMARK UNBOUND:                -0.162
REMARK  Name = ZINC000029477726
REMARK  4 active torsions:
REMARK  status: ('A' for Active; 'I' for Inactive)
REMARK    1  A    between atoms: C_1  and  O_2
REMARK    2  A    between atoms: O_2  and  C_3
REMARK    3  A    between atoms: N_12  and  C_13
REMARK    4  A    between atoms: C_17  and  C_18
REMARK                            x       y       z     vdW  Elec       q    Type
REMARK                         _______ _______ _______ _____ _____    ______ ____
ROOT
ATOM      1  C   UNL     1      -0.127   2.078 -22.761  0.00  0.00    +0.120 A 
ATOM      2  C   UNL     1      -0.444   2.107 -21.533  0.00  0.00    +0.046 A 
ATOM      3  C   UNL     1      -1.596   2.524 -21.212  0.00  0.00    +0.008 A 
ATOM      4  C   UNL     1      -2.523   2.959 -22.268  0.00  0.00    -0.038 A 
ATOM      5  C   UNL     1      -2.188   2.907 -23.273  0.00  0.00    -0.033 A 
ATOM      6  C   UNL     1      -2.619   3.134 -24.091  0.00  0.00    +0.016 C 
ATOM      7  C   UNL     1      -1.694   2.678 -22.757  0.00  0.00    +0.063 C 
ATOM      8  C   UNL     1      -2.272   2.797 -21.407  0.00  0.00    +0.132 C 
ATOM      9  N   UNL     1      -3.367   3.207 -21.283  0.00  0.00    +0.236 N 
ATOM     10  H   UNL     1      -4.289   3.578 -21.514  0.00  0.00    +0.203 HD
ATOM     11  C   UNL     1      -4.252   3.641 -22.524  0.00  0.00    +0.073 C 
ATOM     12  C   UNL     1      -3.304   3.077 -19.889  0.00  0.00    +0.190 C 
ATOM     13  C   UNL     1      -2.230   3.075 -25.285  0.00  0.00    +0.086 C 
ATOM     14  C   UNL     1      -3.022   3.451 -26.242  0.00  0.00    +0.134 C 
ATOM     15  O   UNL     1      -2.621   3.390 -27.461  0.00  0.00    -0.297 OA
ATOM     16  C   UNL     1      -4.234   3.896 -25.981  0.00  0.00    +0.078 C 
ATOM     17  C   UNL     1      -4.676   3.973 -24.765  0.00  0.00    +0.002 C 
ATOM     18  C   UNL     1      -5.863   4.409 -24.528  0.00  0.00    +0.008 C 
ATOM     19  C   UNL     1      -3.934   3.616 -23.810  0.00  0.00    +0.052 C 
ATOM     20  C   UNL     1      -3.676   3.375 -21.937  0.00  0.00    +0.090 C 
ATOM     21  C   UNL     1      -0.987   2.474 -23.640  0.00  0.00    +0.050 A 
ENDROOT
BRANCH   1  23
ATOM     22  C   UNL     1       1.685   2.201 -24.370  0.00  0.00    +0.277 C 
ATOM     23  O   UNL     1       1.037   1.682 -23.420  0.00  0.00    -0.495 OA
ENDBRANCH   1  23
TORSDOF 1
ENDMDL
MODEL 4
REMARK VINA RESULT:    -9.634      1.613      4.217
REMARK INTER + INTRA:         -10.360
REMARK INTER:                 -10.260
REMARK INTRA:                  -0.099
REMARK UNBOUND:                -0.162
REMARK  Name = ZINC000029477726
REMARK  4 active torsions:
REMARK  status: ('A' for Active; 'I' for Inactive)
REMARK    1  A    between atoms: C_1  and  O_2
REMARK    2  A    between atoms: O_2  and  C_3
REMARK    3  A    between atoms: N_12  and  C_13
REMARK    4  A    between atoms: C_17  and  C_18
REMARK                            x       y       z     vdW  Elec       q    Type
REMARK                         _______ _______ _______ _____ _____    ______ ____
ROOT
ATOM      1  C   UNL     1      -4.676   3.383 -22.948  0.00  0.00    +0.120 A 
ATOM      2  C   UNL     1      -5.023   3.754 -24.110  0.00  0.00    +0.046 A 
ATOM      3  C   UNL     1      -4.145   3.801 -25.021  0.00  0.00    +0.008 A 
ATOM      4  C   UNL     1      -2.759   3.426 -24.705  0.00  0.00    -0.038 A 
ATOM      5  C   UNL     1      -2.542   3.125 -23.711  0.00  0.00    -0.033 A 
ATOM      6  C   UNL     1      -1.729   2.847 -23.302  0.00  0.00    +0.016 C 
ATOM      7  C   UNL     1      -3.257   3.310 -23.842  0.00  0.00    +0.063 C 
ATOM      8  C   UNL     1      -3.432   3.708 -25.250  0.00  0.00    +0.132 C 
ATOM      9  N   UNL     1      -2.504   3.696 -25.972  0.00  0.00    +0.236 N 
ATOM     10  H   UNL     1      -1.549   3.580 -26.311  0.00  0.00    +0.203 HD
ATOM     11  C   UNL     1      -1.059   3.264 -25.483  0.00  0.00    +0.073 C 
ATOM     12  C   UNL     1      -3.282   4.138 -27.050  0.00  0.00    +0.190 C 
ATOM     13  C   UNL     1      -1.464   2.489 -22.126  0.00  0.00    +0.086 C 
ATOM     14  C   UNL     1      -0.251   2.151 -21.811  0.00  0.00    +0.134 C 
ATOM     15  O   UNL     1       0.016   1.786 -20.609  0.00  0.00    -0.297 OA
ATOM     16  C   UNL     1       0.712   2.176 -22.709  0.00  0.00    +0.078 C 
ATOM     17  C   UNL     1       0.484   2.538 -23.933  0.00  0.00    +0.002 C 
ATOM     18  C   UNL     1       1.436   2.557 -24.797  0.00  0.00    +0.008 C 
ATOM     19  C   UNL     1      -0.683   2.874 -24.275  0.00  0.00    +0.052 C 
ATOM     20  C   UNL     1      -1.885   3.476 -25.625  0.00  0.00    +0.090 C 
ATOM     21  C   UNL     1      -3.441   3.065 -22.734  0.00  0.00    +0.050 A 
ENDROOT
BRANCH   1  23
ATOM     22  C   UNL     1      -6.467   2.630 -21.495  0.00  0.00    +0.277 C 
ATOM     23  O   UNL     1      -5.389   3.230 -21.759  0.00  0.00    -0.495 OA
ENDBRANCH   1  23
TORSDOF 1
ENDMDL
MODEL 5
REMARK VINA RESULT:    -9.087      2.222      3.273
REMARK INTER + INTRA:          -9.781
REMARK INTER:                  -9.684
REMARK INTRA:                  -0.097
REMARK UNBOUND:                -0.162
REMARK  Name = ZINC000029477726
REMARK  4 active torsions:
REMARK  status: ('A' for Active; 'I' for Inactive)
REMARK    1  A    between atoms: C_1  and  O_2
REMARK    2  A    between atoms: O_2  and  C_3
REMARK    3  A    between atoms: N_12  and  C_13
REMARK    4  A    between atoms: C_17  and  C_18
REMARK                            x       y       z     vdW  Elec       q    Type
REMARK                         _______ _______ _______ _____ _____    ______ ____
ROOT
ATOM      1  C   UNL     1       0.021   3.466 -24.421  0.00  0.00    +0.120 A 
ATOM      2  C   UNL     1       0.638   2.847 -23.502  0.00  0.00    +0.046 A 
ATOM      3  C   UNL     1      -0.022   2.410 -22.513  0.00  0.00    +0.008 A 
ATOM      4  C   UNL     1      -1.475   2.633 -22.464  0.00  0.00    -0.038 A 
ATOM      5  C   UNL     1      -1.923   3.159 -23.268  0.00  0.00    -0.033 A 
ATOM      6  C   UNL     1      -2.827   3.406 -23.431  0.00  0.00    +0.016 C 
ATOM      7  C   UNL     1      -1.182   3.061 -23.322  0.00  0.00    +0.063 C 
ATOM      8  C   UNL     1      -0.678   2.321 -22.151  0.00  0.00    +0.132 C 
ATOM      9  N   UNL     1      -1.433   1.985 -21.314  0.00  0.00    +0.236 N 
ATOM     10  H   UNL     1      -2.303   1.848 -20.800  0.00  0.00    +0.203 HD
ATOM     11  C   UNL     1      -2.984   2.300 -21.399  0.00  0.00    +0.073 C 
ATOM     12  C   UNL     1      -0.406   1.391 -20.567  0.00  0.00    +0.190 C 
ATOM     13  C   UNL     1      -3.367   4.029 -24.381  0.00  0.00    +0.086 C 
ATOM     14  C   UNL     1      -4.646   4.244 -24.370  0.00  0.00    +0.134 C 
ATOM     15  O   UNL     1      -5.193   4.881 -25.342  0.00  0.00    -0.297 OA
ATOM     16  C   UNL     1      -5.394   3.817 -23.373  0.00  0.00    +0.078 C 
ATOM     17  C   UNL     1      -4.881   3.171 -22.373  0.00  0.00    +0.002 C 
ATOM     18  C   UNL     1      -5.627   2.762 -21.409  0.00  0.00    +0.008 C 
ATOM     19  C   UNL     1      -3.641   2.944 -22.351  0.00  0.00    +0.052 C 
ATOM     20  C   UNL     1      -2.129   2.191 -21.469  0.00  0.00    +0.090 C 
ATOM     21  C   UNL     1      -1.257   3.630 -24.318  0.00  0.00    +0.050 A 
ENDROOT
BRANCH   1  23
ATOM     22  C   UNL     1       1.571   4.517 -25.963  0.00  0.00    +0.277 C 
ATOM     23  O   UNL     1       0.452   4.055 -25.610  0.00  0.00    -0.495 OA
ENDBRANCH   1  23
TORSDOF 1
ENDMDL
MODEL 6
REMARK VINA RESULT:    -8.808      2.212      4.701
REMARK INTER + INTRA:          -9.485
REMARK INTER:                  -9.358
REMARK INTRA:                  -0.126
REMARK UNBOUND:                -0.162
REMARK  Name = ZINC000029477726
REMARK  4 active torsions:
REMARK  status: ('A' for Active; 'I' for Inactive)
REMARK    1  A    between atoms: C_1  and  O_2
REMARK    2  A    between atoms: O_2  and  C_3
REMARK    3  A    between atoms: N_12  and  C_13
REMARK    4  A    between atoms: C_17  and  C_18
REMARK                            x       y       z     vdW  Elec       q    Type
REMARK                         _______ _______ _______ _____ _____    ______ ____
ROOT
ATOM      1  C   UNL     1      -2.711   2.951 -21.996  0.00  0.00    +0.120 A 
ATOM      2  C   UNL     1      -3.045   3.302 -23.168  0.00  0.00    +0.046 A 
ATOM      3  C   UNL     1      -2.164   3.305 -24.077  0.00  0.00    +0.008 A 
ATOM      4  C   UNL     1      -0.789   2.903 -23.746  0.00  0.00    -0.038 A 
ATOM      5  C   UNL     1      -0.582   2.622 -22.745  0.00  0.00    -0.033 A 
ATOM      6  C   UNL     1       0.222   2.334 -22.326  0.00  0.00    +0.016 C 
ATOM      7  C   UNL     1      -1.292   2.822 -22.883  0.00  0.00    +0.063 C 
ATOM      8  C   UNL     1      -1.452   3.189 -24.301  0.00  0.00    +0.132 C 
ATOM      9  N   UNL     1      -0.523   3.136 -25.019  0.00  0.00    +0.236 N 
ATOM     10  H   UNL     1       0.430   2.988 -25.352  0.00  0.00    +0.203 HD
ATOM     11  C   UNL     1       0.909   2.680 -24.514  0.00  0.00    +0.073 C 
ATOM     12  C   UNL     1      -1.287   3.570 -26.110  0.00  0.00    +0.190 C 
ATOM     13  C   UNL     1       0.476   1.999 -21.141  0.00  0.00    +0.086 C 
ATOM     14  C   UNL     1       1.678   1.639 -20.814  0.00  0.00    +0.134 C 
ATOM     15  O   UNL     1       1.932   1.297 -19.602  0.00  0.00    -0.297 OA
ATOM     16  C   UNL     1       2.644   1.618 -21.708  0.00  0.00    +0.078 C 
ATOM     17  C   UNL     1       2.429   1.955 -22.941  0.00  0.00    +0.002 C 
ATOM     18  C   UNL     1       3.384   1.929 -23.802  0.00  0.00    +0.008 C 
ATOM     19  C   UNL     1       1.272   2.311 -23.295  0.00  0.00    +0.052 C 
ATOM     20  C   UNL     1       0.089   2.909 -24.664  0.00  0.00    +0.090 C 
ATOM     21  C   UNL     1      -1.486   2.609 -21.770  0.00  0.00    +0.050 A 
ENDROOT
BRANCH   1  23
ATOM     22  C   UNL     1      -3.336   3.456 -19.707  0.00  0.00    +0.277 C 
ATOM     23  O   UNL     1      -3.432   2.845 -20.806  0.00  0.00    -0.495 OA
ENDBRANCH   1  23
TORSDOF 1
ENDMDL
MODEL 7
REMARK VINA RESULT:    -8.666      3.990      6.551
REMARK INTER + INTRA:          -9.335
REMARK INTER:                  -9.238
REMARK INTRA:                  -0.096
REMARK UNBOUND:                -0.162
REMARK  Name = ZINC000029477726
REMARK  4 active torsions:
REMARK  status: ('A' for Active; 'I' for Inactive)
REMARK    1  A    between atoms: C_1  and  O_2
REMARK    2  A    between atoms: O_2  and  C_3
REMARK    3  A    between atoms: N_12  and  C_13
REMARK    4  A    between atoms: C_17  and  C_18
REMARK                            x       y       z     vdW  Elec       q    Type
REMARK                         _______ _______ _______ _____ _____    ______ ____
ROOT
ATOM      1  C   UNL     1       5.563   3.712 -22.876  0.00  0.00    +0.120 A 
ATOM      2  C   UNL     1       6.091   2.749 -22.243  0.00  0.00    +0.046 A 
ATOM      3  C   UNL     1       5.337   1.866 -21.738  0.00  0.00    +0.008 A 
ATOM      4  C   UNL     1       3.880   1.986 -21.902  0.00  0.00    -0.038 A 
ATOM      5  C   UNL     1       3.510   2.818 -22.444  0.00  0.00    -0.033 A 
ATOM      6  C   UNL     1       2.622   3.081 -22.663  0.00  0.00    +0.016 C 
ATOM      7  C   UNL     1       4.256   2.784 -22.377  0.00  0.00    +0.063 C 
ATOM      8  C   UNL     1       4.646   1.590 -21.608  0.00  0.00    +0.132 C 
ATOM      9  N   UNL     1       3.812   0.865 -21.207  0.00  0.00    +0.236 N 
ATOM     10  H   UNL     1       2.893   0.467 -21.014  0.00  0.00    +0.203 HD
ATOM     11  C   UNL     1       2.270   1.127 -21.465  0.00  0.00    +0.073 C 
ATOM     12  C   UNL     1       4.766   0.021 -20.621  0.00  0.00    +0.190 C 
ATOM     13  C   UNL     1       2.174   4.065 -23.305  0.00  0.00    +0.086 C 
ATOM     14  C   UNL     1       0.894   4.202 -23.469  0.00  0.00    +0.134 C 
ATOM     15  O   UNL     1       0.441   5.209 -24.125  0.00  0.00    -0.297 OA
ATOM     16  C   UNL     1       0.051   3.322 -22.971  0.00  0.00    +0.078 C 
ATOM     17  C   UNL     1       0.468   2.292 -22.303  0.00  0.00    +0.002 C 
ATOM     18  C   UNL     1      -0.370   1.442 -21.824  0.00  0.00    +0.008 C 
ATOM     19  C   UNL     1       1.705   2.127 -22.123  0.00  0.00    +0.052 C 
ATOM     20  C   UNL     1       3.131   1.096 -21.392  0.00  0.00    +0.090 C 
ATOM     21  C   UNL     1       4.276   3.760 -22.985  0.00  0.00    +0.050 A 
ENDROOT
BRANCH   1  23
ATOM     22  C   UNL     1       7.285   5.268 -23.584  0.00  0.00    +0.277 C 
ATOM     23  O   UNL     1       6.108   4.816 -23.532  0.00  0.00    -0.495 OA
ENDBRANCH   1  23
TORSDOF 1
ENDMDL
MODEL 8
REMARK VINA RESULT:    -7.886      1.721      2.158
REMARK INTER + INTRA:          -8.509
REMARK INTER:                  -8.347
REMARK INTRA:                  -0.162
REMARK UNBOUND:                -0.162
REMARK  Name = ZINC000029477726
REMARK  4 active torsions:
REMARK  status: ('A' for Active; 'I' for Inactive)
REMARK    1  A    between atoms: C_1  and  O_2
REMARK    2  A    between atoms: O_2  and  C_3
REMARK    3  A    between atoms: N_12  and  C_13
REMARK    4  A    between atoms: C_17  and  C_18
REMARK                            x       y       z     vdW  Elec       q    Type
REMARK                         _______ _______ _______ _____ _____    ______ ____
ROOT
ATOM      1  C   UNL     1       0.582   3.219 -25.472  0.00  0.00    +0.120 A 
ATOM      2  C   UNL     1      -0.279   3.659 -26.292  0.00  0.00    +0.046 A 
ATOM      3  C   UNL     1      -1.490   3.726 -25.926  0.00  0.00    +0.008 A 
ATOM      4  C   UNL     1      -1.855   3.293 -24.569  0.00  0.00    -0.038 A 
ATOM      5  C   UNL     1      -1.081   2.936 -23.938  0.00  0.00    -0.033 A 
ATOM      6  C   UNL     1      -1.099   2.614 -23.043  0.00  0.00    +0.016 C 
ATOM      7  C   UNL     1      -0.864   3.149 -24.623  0.00  0.00    +0.063 C 
ATOM      8  C   UNL     1      -2.023   3.623 -25.401  0.00  0.00    +0.132 C 
ATOM      9  N   UNL     1      -3.089   3.619 -24.907  0.00  0.00    +0.236 N 
ATOM     10  H   UNL     1      -3.832   3.492 -24.219  0.00  0.00    +0.203 HD
ATOM     11  C   UNL     1      -3.330   3.120 -23.422  0.00  0.00    +0.073 C 
ATOM     12  C   UNL     1      -3.677   4.138 -26.068  0.00  0.00    +0.190 C 
ATOM     13  C   UNL     1      -0.187   2.189 -22.288  0.00  0.00    +0.086 C 
ATOM     14  C   UNL     1      -0.474   1.799 -21.084  0.00  0.00    +0.134 C 
ATOM     15  O   UNL     1       0.460   1.366 -20.316  0.00  0.00    -0.297 OA
ATOM     16  C   UNL     1      -1.712   1.841 -20.637  0.00  0.00    +0.078 C 
ATOM     17  C   UNL     1      -2.683   2.271 -21.380  0.00  0.00    +0.002 C 
ATOM     18  C   UNL     1      -3.886   2.305 -20.927  0.00  0.00    +0.008 C 
ATOM     19  C   UNL     1      -2.442   2.658 -22.555  0.00  0.00    +0.052 C 
ATOM     20  C   UNL     1      -3.071   3.363 -24.210  0.00  0.00    +0.090 C 
ATOM     21  C   UNL     1       0.196   2.854 -24.293  0.00  0.00    +0.050 A 
ENDROOT
BRANCH   1  23
ATOM     22  C   UNL     1       2.765   2.336 -24.889  0.00  0.00    +0.277 C 
ATOM     23  O   UNL     1       1.961   3.027 -25.571  0.00  0.00    -0.495 OA
ENDBRANCH   1  23
TORSDOF 1
ENDMDL
