MODEL 1
REMARK VINA RESULT:   -11.011      0.000      0.000
REMARK INTER + INTRA:         -12.093
REMARK INTER:                 -11.980
REMARK INTRA:                  -0.113
REMARK UNBOUND:                -0.117
REMARK  Name = COc1ccc2c3c1O[C@]1(C)[C@@H](O)[C@H](Cl)C=C4[C@@H](C2)N(C)CC[C@]431   ZINC000253505502
REMARK  5 active torsions:
REMARK  status: ('A' for Active; 'I' for Inactive)
REMARK    1  A    between atoms: C_1  and  O_2
REMARK    2  A    between atoms: O_2  and  C_3
REMARK    3  A    between atoms: C_10  and  C_11
REMARK    4  A    between atoms: C_12  and  O_13
REMARK    5  A    between atoms: N_20  and  C_21
REMARK                            x       y       z     vdW  Elec       q    Type
REMARK                         _______ _______ _______ _____ _____    ______ ____
ROOT
ATOM      1  C   UNL     1       1.599   2.257 -23.819  0.00  0.00    +0.162 A 
ATOM      2  C   UNL     1       1.887   1.804 -22.671  0.00  0.00    +0.050 A 
ATOM      3  C   UNL     1       1.004   1.700 -21.789  0.00  0.00    +0.008 A 
ATOM      4  C   UNL     1      -0.177   2.047 -22.041  0.00  0.00    -0.034 A 
ATOM      5  C   UNL     1      -0.483   2.500 -23.179  0.00  0.00    +0.016 A 
ATOM      6  C   UNL     1      -1.662   2.845 -23.427  0.00  0.00    +0.072 C 
ATOM      7  C   UNL     1      -2.965   3.268 -23.826  0.00  0.00    +0.071 C 
ATOM      8  C   UNL     1      -3.982   3.162 -22.851  0.00  0.00    +0.133 C 
ATOM      9  N   UNL     1      -3.623   2.653 -21.583  0.00  0.00    +0.239 N 
ATOM     10  H   UNL     1      -4.316   2.554 -20.841  0.00  0.00    +0.204 HD
ATOM     11  C   UNL     1      -4.464   2.527 -20.664  0.00  0.00    +0.191 C 
ATOM     12  C   UNL     1      -2.255   2.288 -21.400  0.00  0.00    +0.096 C 
ATOM     13  C   UNL     1      -2.547   2.742 -22.547  0.00  0.00    -0.010 C 
ATOM     14  C   UNL     1      -3.738   3.091 -22.800  0.00  0.00    +0.000 C 
ATOM     15  C   UNL     1      -4.032   3.540 -23.932  0.00  0.00    +0.136 C 
ATOM     16 CL   UNL     1      -5.211   3.884 -24.180  0.00  0.00    -0.115 Cl
ATOM     17  C   UNL     1      -3.143   3.647 -24.828  0.00  0.00    +0.180 C 
ATOM     18  C   UNL     1      -1.965   3.302 -24.578  0.00  0.00    +0.149 C 
ATOM     19  C   UNL     1      -1.974   3.707 -25.766  0.00  0.00    +0.060 C 
ATOM     20  O   UNL     1      -0.549   3.163 -25.092  0.00  0.00    -0.478 OA
ATOM     21  C   UNL     1      -1.079   1.942 -21.147  0.00  0.00    +0.094 C 
ATOM     22  C   UNL     1       0.406   2.606 -24.072  0.00  0.00    +0.167 A 
ENDROOT
BRANCH   1  24
ATOM     23  C   UNL     1       3.689   2.174 -24.402  0.00  0.00    +0.277 C 
ATOM     24  O   UNL     1       2.485   2.360 -24.699  0.00  0.00    -0.491 OA
ENDBRANCH   1  24
BRANCH  17  25
ATOM     25  O   UNL     1      -3.441   4.097 -25.960  0.00  0.00    -0.386 OA
ATOM     26  H   UNL     1      -4.398   4.253 -26.004  0.00  0.00    +0.210 HD
ENDBRANCH  17  25
TORSDOF 2
ENDMDL
MODEL 2
REMARK VINA RESULT:   -10.900      1.883      3.094
REMARK INTER + INTRA:         -11.973
REMARK INTER:                 -11.824
REMARK INTRA:                  -0.149
REMARK UNBOUND:                -0.117
REMARK  Name = COc1ccc2c3c1O[C@]1(C)[C@@H](O)[C@H](Cl)C=C4[C@@H](C2)N(C)CC[C@]431   ZINC000253505502
REMARK  5 active torsions:
REMARK  status: ('A' for Active; 'I' for Inactive)
REMARK    1  A    between atoms: C_1  and  O_2
REMARK    2  A    between atoms: O_2  and  C_3
REMARK    3  A    between atoms: C_10  and  C_11
REMARK    4  A    between atoms: C_12  and  O_13
REMARK    5  A    between atoms: N_20  and  C_21
REMARK                            x       y       z     vdW  Elec       q    Type
REMARK                         _______ _______ _______ _____ _____    ______ ____
ROOT
ATOM      1  C   UNL     1       1.337   3.126 -23.301  0.00  0.00    +0.162 A 
ATOM      2  C   UNL     1       1.568   3.255 -24.540  0.00  0.00    +0.050 A 
ATOM      3  C   UNL     1       0.623   3.395 -25.351  0.00  0.00    +0.008 A 
ATOM      4  C   UNL     1      -0.563   3.408 -24.936  0.00  0.00    -0.034 A 
ATOM      5  C   UNL     1      -0.812   3.280 -23.705  0.00  0.00    +0.016 A 
ATOM      6  C   UNL     1      -1.995   3.293 -23.294  0.00  0.00    +0.072 C 
ATOM      7  C   UNL     1      -3.297   3.292 -22.709  0.00  0.00    +0.071 C 
ATOM      8  C   UNL     1      -4.383   3.448 -23.601  0.00  0.00    +0.133 C 
ATOM      9  N   UNL     1      -4.086   3.590 -24.974  0.00  0.00    +0.239 N 
ATOM     10  H   UNL     1      -4.830   3.706 -25.663  0.00  0.00    +0.204 HD
ATOM     11  C   UNL     1      -4.989   3.733 -25.830  0.00  0.00    +0.191 C 
ATOM     12  C   UNL     1      -2.707   3.562 -25.342  0.00  0.00    +0.096 C 
ATOM     13  C   UNL     1      -2.942   3.433 -24.103  0.00  0.00    -0.010 C 
ATOM     14  C   UNL     1      -4.138   3.446 -23.685  0.00  0.00    +0.000 C 
ATOM     15  C   UNL     1      -4.376   3.318 -22.462  0.00  0.00    +0.136 C 
ATOM     16 CL   UNL     1      -5.559   3.331 -22.052  0.00  0.00    -0.115 Cl
ATOM     17  C   UNL     1      -3.424   3.176 -21.637  0.00  0.00    +0.180 C 
ATOM     18  C   UNL     1      -2.241   3.163 -22.049  0.00  0.00    +0.149 C 
ATOM     19  C   UNL     1      -2.187   3.019 -20.804  0.00  0.00    +0.060 C 
ATOM     20  O   UNL     1      -0.776   3.049 -21.693  0.00  0.00    -0.478 OA
ATOM     21  C   UNL     1      -1.526   3.550 -25.757  0.00  0.00    +0.094 C 
ATOM     22  C   UNL     1       0.139   3.138 -22.883  0.00  0.00    +0.167 A 
ENDROOT
BRANCH   1  24
ATOM     23  C   UNL     1       2.575   1.846 -22.059  0.00  0.00    +0.277 C 
ATOM     24  O   UNL     1       2.284   2.986 -22.492  0.00  0.00    -0.491 OA
ENDBRANCH   1  24
BRANCH  17  25
ATOM     25  O   UNL     1      -3.667   3.049 -20.413  0.00  0.00    -0.386 OA
ATOM     26  H   UNL     1      -3.841   2.116 -20.213  0.00  0.00    +0.210 HD
ENDBRANCH  17  25
TORSDOF 2
ENDMDL
MODEL 3
REMARK VINA RESULT:   -10.748      2.379      4.947
REMARK INTER + INTRA:         -11.808
REMARK INTER:                 -11.695
REMARK INTRA:                  -0.112
REMARK UNBOUND:                -0.117
REMARK  Name = COc1ccc2c3c1O[C@]1(C)[C@@H](O)[C@H](Cl)C=C4[C@@H](C2)N(C)CC[C@]431   ZINC000253505502
REMARK  5 active torsions:
REMARK  status: ('A' for Active; 'I' for Inactive)
REMARK    1  A    between atoms: C_1  and  O_2
REMARK    2  A    between atoms: O_2  and  C_3
REMARK    3  A    between atoms: C_10  and  C_11
REMARK    4  A    between atoms: C_12  and  O_13
REMARK    5  A    between atoms: N_20  and  C_21
REMARK                            x       y       z     vdW  Elec       q    Type
REMARK                         _______ _______ _______ _____ _____    ______ ____
ROOT
ATOM      1  C   UNL     1      -3.482   3.254 -23.134  0.00  0.00    +0.162 A 
ATOM      2  C   UNL     1      -3.742   2.780 -21.988  0.00  0.00    +0.050 A 
ATOM      3  C   UNL     1      -2.836   2.265 -21.292  0.00  0.00    +0.008 A 
ATOM      4  C   UNL     1      -1.660   2.217 -21.731  0.00  0.00    -0.034 A 
ATOM      5  C   UNL     1      -1.381   2.684 -22.870  0.00  0.00    +0.016 A 
ATOM      6  C   UNL     1      -0.207   2.635 -23.305  0.00  0.00    +0.072 C 
ATOM      7  C   UNL     1       1.087   2.636 -23.904  0.00  0.00    +0.071 C 
ATOM      8  C   UNL     1       2.130   2.061 -23.141  0.00  0.00    +0.133 C 
ATOM      9  N   UNL     1       1.800   1.543 -21.869  0.00  0.00    +0.239 N 
ATOM     10  H   UNL     1       2.512   1.117 -21.275  0.00  0.00    +0.204 HD
ATOM     11  C   UNL     1       2.664   1.018 -21.131  0.00  0.00    +0.191 C 
ATOM     12  C   UNL     1       0.436   1.647 -21.465  0.00  0.00    +0.096 C 
ATOM     13  C   UNL     1       0.700   2.121 -22.610  0.00  0.00    -0.010 C 
ATOM     14  C   UNL     1       1.887   2.072 -23.052  0.00  0.00    +0.000 C 
ATOM     15  C   UNL     1       2.154   2.538 -24.184  0.00  0.00    +0.136 C 
ATOM     16 CL   UNL     1       3.328   2.488 -24.617  0.00  0.00    -0.115 Cl
ATOM     17  C   UNL     1       1.242   3.060 -24.892  0.00  0.00    +0.180 C 
ATOM     18  C   UNL     1       0.068   3.108 -24.456  0.00  0.00    +0.149 C 
ATOM     19  C   UNL     1       0.049   3.638 -25.593  0.00  0.00    +0.060 C 
ATOM     20  O   UNL     1      -1.361   3.531 -24.710  0.00  0.00    -0.478 OA
ATOM     21  C   UNL     1      -0.736   1.694 -21.026  0.00  0.00    +0.094 C 
ATOM     22  C   UNL     1      -2.293   3.205 -23.575  0.00  0.00    +0.167 A 
ENDROOT
BRANCH   1  24
ATOM     23  C   UNL     1      -5.574   3.762 -23.415  0.00  0.00    +0.277 C 
ATOM     24  O   UNL     1      -4.390   3.768 -23.827  0.00  0.00    -0.491 OA
ENDBRANCH   1  24
BRANCH  17  25
ATOM     25  O   UNL     1       1.514   3.525 -26.024  0.00  0.00    -0.386 OA
ATOM     26  H   UNL     1       2.360   3.163 -26.328  0.00  0.00    +0.210 HD
ENDBRANCH  17  25
TORSDOF 2
ENDMDL
MODEL 4
REMARK VINA RESULT:   -10.682      2.641      5.605
REMARK INTER + INTRA:         -11.735
REMARK INTER:                 -11.690
REMARK INTRA:                  -0.046
REMARK UNBOUND:                -0.117
REMARK  Name = COc1ccc2c3c1O[C@]1(C)[C@@H](O)[C@H](Cl)C=C4[C@@H](C2)N(C)CC[C@]431   ZINC000253505502
REMARK  5 active torsions:
REMARK  status: ('A' for Active; 'I' for Inactive)
REMARK    1  A    between atoms: C_1  and  O_2
REMARK    2  A    between atoms: O_2  and  C_3
REMARK    3  A    between atoms: C_10  and  C_11
REMARK    4  A    between atoms: C_12  and  O_13
REMARK    5  A    between atoms: N_20  and  C_21
REMARK                            x       y       z     vdW  Elec       q    Type
REMARK                         _______ _______ _______ _____ _____    ______ ____
ROOT
ATOM      1  C   UNL     1      -4.648   3.710 -23.113  0.00  0.00    +0.162 A 
ATOM      2  C   UNL     1      -4.820   4.151 -24.288  0.00  0.00    +0.050 A 
ATOM      3  C   UNL     1      -3.874   4.155 -25.110  0.00  0.00    +0.008 A 
ATOM      4  C   UNL     1      -2.746   3.718 -24.769  0.00  0.00    -0.034 A 
ATOM      5  C   UNL     1      -2.556   3.275 -23.602  0.00  0.00    +0.016 A 
ATOM      6  C   UNL     1      -1.430   2.841 -23.265  0.00  0.00    +0.072 C 
ATOM      7  C   UNL     1      -0.198   2.322 -22.768  0.00  0.00    +0.071 C 
ATOM      8  C   UNL     1       0.888   2.314 -23.674  0.00  0.00    +0.133 C 
ATOM      9  N   UNL     1       0.658   2.813 -24.974  0.00  0.00    +0.239 N 
ATOM     10  H   UNL     1       1.405   2.832 -25.670  0.00  0.00    +0.204 HD
ATOM     11  C   UNL     1       1.566   2.841 -25.837  0.00  0.00    +0.191 C 
ATOM     12  C   UNL     1      -0.658   3.285 -25.260  0.00  0.00    +0.096 C 
ATOM     13  C   UNL     1      -0.483   2.843 -24.086  0.00  0.00    -0.010 C 
ATOM     14  C   UNL     1       0.654   2.403 -23.742  0.00  0.00    +0.000 C 
ATOM     15  C   UNL     1       0.834   1.965 -22.582  0.00  0.00    +0.136 C 
ATOM     16 CL   UNL     1       1.959   1.531 -22.247  0.00  0.00    -0.115 Cl
ATOM     17  C   UNL     1      -0.119   1.959 -21.747  0.00  0.00    +0.180 C 
ATOM     18  C   UNL     1      -1.244   2.394 -22.086  0.00  0.00    +0.149 C 
ATOM     19  C   UNL     1      -1.348   2.025 -20.891  0.00  0.00    +0.060 C 
ATOM     20  O   UNL     1      -2.674   2.666 -21.674  0.00  0.00    -0.478 OA
ATOM     21  C   UNL     1      -1.782   3.720 -25.601  0.00  0.00    +0.094 C 
ATOM     22  C   UNL     1      -3.508   3.270 -22.770  0.00  0.00    +0.167 A 
ENDROOT
BRANCH   1  24
ATOM     23  C   UNL     1      -5.941   2.639 -21.737  0.00  0.00    +0.277 C 
ATOM     24  O   UNL     1      -5.596   3.708 -22.293  0.00  0.00    -0.491 OA
ENDBRANCH   1  24
BRANCH  17  25
ATOM     25  O   UNL     1       0.064   1.520 -20.587  0.00  0.00    -0.386 OA
ATOM     26  H   UNL     1      -0.720   1.028 -20.300  0.00  0.00    +0.210 HD
ENDBRANCH  17  25
TORSDOF 2
ENDMDL
MODEL 5
REMARK VINA RESULT:   -10.060      3.500      6.422
REMARK INTER + INTRA:         -11.059
REMARK INTER:                 -10.940
REMARK INTRA:                  -0.119
REMARK UNBOUND:                -0.117
REMARK  Name = COc1ccc2c3c1O[C@]1(C)[C@@H](O)[C@H](Cl)C=C4[C@@H](C2)N(C)CC[C@]431   ZINC000253505502
REMARK  5 active torsions:
REMARK  status: ('A' for Active; 'I' for Inactive)
REMARK    1  A    between atoms: C_1  and  O_2
REMARK    2  A    between atoms: O_2  and  C_3
REMARK    3  A    between atoms: C_10  and  C_11
REMARK    4  A    between atoms: C_12  and  O_13
REMARK    5  A    between atoms: N_20  and  C_21
REMARK                            x       y       z     vdW  Elec       q    Type
REMARK                         _______ _______ _______ _____ _____    ______ ____
ROOT
ATOM      1  C   UNL     1      -1.270   3.250 -23.365  0.00  0.00    +0.162 A 
ATOM      2  C   UNL     1      -1.349   4.488 -23.622  0.00  0.00    +0.050 A 
ATOM      3  C   UNL     1      -0.320   5.203 -23.628  0.00  0.00    +0.008 A 
ATOM      4  C   UNL     1       0.799   4.691 -23.378  0.00  0.00    -0.034 A 
ATOM      5  C   UNL     1       0.899   3.460 -23.120  0.00  0.00    +0.016 A 
ATOM      6  C   UNL     1       2.016   2.952 -22.871  0.00  0.00    +0.072 C 
ATOM      7  C   UNL     1       3.231   2.264 -22.574  0.00  0.00    +0.071 C 
ATOM      8  C   UNL     1       4.408   3.046 -22.574  0.00  0.00    +0.133 C 
ATOM      9  N   UNL     1       4.280   4.422 -22.865  0.00  0.00    +0.239 N 
ATOM     10  H   UNL     1       5.096   5.035 -22.879  0.00  0.00    +0.204 HD
ATOM     11  C   UNL     1       5.273   5.184 -22.885  0.00  0.00    +0.191 C 
ATOM     12  C   UNL     1       2.964   4.904 -23.134  0.00  0.00    +0.096 C 
ATOM     13  C   UNL     1       3.047   3.666 -22.877  0.00  0.00    -0.010 C 
ATOM     14  C   UNL     1       4.176   3.150 -22.625  0.00  0.00    +0.000 C 
ATOM     15  C   UNL     1       4.265   1.927 -22.370  0.00  0.00    +0.136 C 
ATOM     16 CL   UNL     1       5.383   1.421 -22.121  0.00  0.00    -0.115 Cl
ATOM     17  C   UNL     1       3.228   1.199 -22.362  0.00  0.00    +0.180 C 
ATOM     18  C   UNL     1       2.110   1.708 -22.611  0.00  0.00    +0.149 C 
ATOM     19  C   UNL     1       1.908   0.488 -22.395  0.00  0.00    +0.060 C 
ATOM     20  O   UNL     1       0.622   1.485 -22.763  0.00  0.00    -0.478 OA
ATOM     21  C   UNL     1       1.848   5.415 -23.384  0.00  0.00    +0.094 C 
ATOM     22  C   UNL     1      -0.138   2.735 -23.113  0.00  0.00    +0.167 A 
ENDROOT
BRANCH   1  24
ATOM     23  C   UNL     1      -3.378   2.996 -22.911  0.00  0.00    +0.277 C 
ATOM     24  O   UNL     1      -2.301   2.537 -23.359  0.00  0.00    -0.491 OA
ENDBRANCH   1  24
BRANCH  17  25
ATOM     25  O   UNL     1       3.320  -0.025 -22.106  0.00  0.00    -0.386 OA
ATOM     26  H   UNL     1       4.156  -0.197 -21.645  0.00  0.00    +0.210 HD
ENDBRANCH  17  25
TORSDOF 2
ENDMDL
MODEL 6
REMARK VINA RESULT:    -9.693      2.064      3.434
REMARK INTER + INTRA:         -10.660
REMARK INTER:                 -10.511
REMARK INTRA:                  -0.149
REMARK UNBOUND:                -0.117
REMARK  Name = COc1ccc2c3c1O[C@]1(C)[C@@H](O)[C@H](Cl)C=C4[C@@H](C2)N(C)CC[C@]431   ZINC000253505502
REMARK  5 active torsions:
REMARK  status: ('A' for Active; 'I' for Inactive)
REMARK    1  A    between atoms: C_1  and  O_2
REMARK    2  A    between atoms: O_2  and  C_3
REMARK    3  A    between atoms: C_10  and  C_11
REMARK    4  A    between atoms: C_12  and  O_13
REMARK    5  A    between atoms: N_20  and  C_21
REMARK                            x       y       z     vdW  Elec       q    Type
REMARK                         _______ _______ _______ _____ _____    ______ ____
ROOT
ATOM      1  C   UNL     1       2.980   2.132 -22.295  0.00  0.00    +0.162 A 
ATOM      2  C   UNL     1       3.592   2.381 -23.376  0.00  0.00    +0.050 A 
ATOM      3  C   UNL     1       2.958   2.716 -24.403  0.00  0.00    +0.008 A 
ATOM      4  C   UNL     1       1.705   2.807 -24.364  0.00  0.00    -0.034 A 
ATOM      5  C   UNL     1       1.077   2.563 -23.296  0.00  0.00    +0.016 A 
ATOM      6  C   UNL     1      -0.171   2.654 -23.261  0.00  0.00    +0.072 C 
ATOM      7  C   UNL     1      -1.587   2.724 -23.099  0.00  0.00    +0.071 C 
ATOM      8  C   UNL     1      -2.329   3.100 -24.242  0.00  0.00    +0.133 C 
ATOM      9  N   UNL     1      -1.611   3.369 -25.428  0.00  0.00    +0.239 N 
ATOM     10  H   UNL     1      -2.095   3.645 -26.283  0.00  0.00    +0.204 HD
ATOM     11  C   UNL     1      -2.192   3.708 -26.484  0.00  0.00    +0.191 C 
ATOM     12  C   UNL     1      -0.192   3.237 -25.366  0.00  0.00    +0.096 C 
ATOM     13  C   UNL     1      -0.808   2.989 -24.287  0.00  0.00    -0.010 C 
ATOM     14  C   UNL     1      -2.071   3.081 -24.248  0.00  0.00    +0.000 C 
ATOM     15  C   UNL     1      -2.685   2.837 -23.184  0.00  0.00    +0.136 C 
ATOM     16 CL   UNL     1      -3.934   2.928 -23.150  0.00  0.00    -0.115 Cl
ATOM     17  C   UNL     1      -2.049   2.497 -22.142  0.00  0.00    +0.180 C 
ATOM     18  C   UNL     1      -0.800   2.406 -22.179  0.00  0.00    +0.149 C 
ATOM     19  C   UNL     1      -1.145   2.111 -21.009  0.00  0.00    +0.060 C 
ATOM     20  O   UNL     1       0.471   2.094 -21.421  0.00  0.00    -0.478 OA
ATOM     21  C   UNL     1       1.057   3.147 -25.406  0.00  0.00    +0.094 C 
ATOM     22  C   UNL     1       1.715   2.225 -22.257  0.00  0.00    +0.167 A 
ENDROOT
BRANCH   1  24
ATOM     23  C   UNL     1       3.836   0.586 -21.035  0.00  0.00    +0.277 C 
ATOM     24  O   UNL     1       3.617   1.798 -21.269  0.00  0.00    -0.491 OA
ENDBRANCH   1  24
BRANCH  17  25
ATOM     25  O   UNL     1      -2.667   2.254 -21.079  0.00  0.00    -0.386 OA
ATOM     26  H   UNL     1      -2.862   1.305 -21.028  0.00  0.00    +0.210 HD
ENDBRANCH  17  25
TORSDOF 2
ENDMDL
MODEL 7
REMARK VINA RESULT:    -8.533      3.312      5.011
REMARK INTER + INTRA:          -9.398
REMARK INTER:                  -9.273
REMARK INTRA:                  -0.125
REMARK UNBOUND:                -0.117
REMARK  Name = COc1ccc2c3c1O[C@]1(C)[C@@H](O)[C@H](Cl)C=C4[C@@H](C2)N(C)CC[C@]431   ZINC000253505502
REMARK  5 active torsions:
REMARK  status: ('A' for Active; 'I' for Inactive)
REMARK    1  A    between atoms: C_1  and  O_2
REMARK    2  A    between atoms: O_2  and  C_3
REMARK    3  A    between atoms: C_10  and  C_11
REMARK    4  A    between atoms: C_12  and  O_13
REMARK    5  A    between atoms: N_20  and  C_21
REMARK                            x       y       z     vdW  Elec       q    Type
REMARK                         _______ _______ _______ _____ _____    ______ ____
ROOT
ATOM      1  C   UNL     1       5.795   3.632 -22.645  0.00  0.00    +0.162 A 
ATOM      2  C   UNL     1       5.857   4.880 -22.853  0.00  0.00    +0.050 A 
ATOM      3  C   UNL     1       4.811   5.549 -23.022  0.00  0.00    +0.008 A 
ATOM      4  C   UNL     1       3.691   4.980 -22.985  0.00  0.00    -0.034 A 
ATOM      5  C   UNL     1       3.609   3.738 -22.779  0.00  0.00    +0.016 A 
ATOM      6  C   UNL     1       2.491   3.174 -22.743  0.00  0.00    +0.072 C 
ATOM      7  C   UNL     1       1.279   2.423 -22.681  0.00  0.00    +0.071 C 
ATOM      8  C   UNL     1       0.083   3.152 -22.868  0.00  0.00    +0.133 C 
ATOM      9  N   UNL     1       0.192   4.541 -23.097  0.00  0.00    +0.239 N 
ATOM     10  H   UNL     1      -0.639   5.117 -23.239  0.00  0.00    +0.204 HD
ATOM     11  C   UNL     1      -0.819   5.259 -23.273  0.00  0.00    +0.191 C 
ATOM     12  C   UNL     1       1.510   5.089 -23.120  0.00  0.00    +0.096 C 
ATOM     13  C   UNL     1       1.444   3.841 -22.912  0.00  0.00    -0.010 C 
ATOM     14  C   UNL     1       0.314   3.268 -22.875  0.00  0.00    +0.000 C 
ATOM     15  C   UNL     1       0.243   2.034 -22.670  0.00  0.00    +0.136 C 
ATOM     16 CL   UNL     1      -0.875   1.471 -22.634  0.00  0.00    -0.115 Cl
ATOM     17  C   UNL     1       1.298   1.353 -22.499  0.00  0.00    +0.180 C 
ATOM     18  C   UNL     1       2.415   1.918 -22.535  0.00  0.00    +0.149 C 
ATOM     19  C   UNL     1       2.637   0.702 -22.317  0.00  0.00    +0.060 C 
ATOM     20  O   UNL     1       3.916   1.766 -22.429  0.00  0.00    -0.478 OA
ATOM     21  C   UNL     1       2.625   5.657 -23.157  0.00  0.00    +0.094 C 
ATOM     22  C   UNL     1       4.663   3.059 -22.608  0.00  0.00    +0.167 A 
ENDROOT
BRANCH   1  24
ATOM     23  C   UNL     1       7.765   3.023 -23.324  0.00  0.00    +0.277 C 
ATOM     24  O   UNL     1       6.843   2.966 -22.477  0.00  0.00    -0.491 OA
ENDBRANCH   1  24
BRANCH  17  25
ATOM     25  O   UNL     1       1.222   0.118 -22.294  0.00  0.00    -0.386 OA
ATOM     26  H   UNL     1       1.812  -0.125 -21.564  0.00  0.00    +0.210 HD
ENDBRANCH  17  25
TORSDOF 2
ENDMDL
