MODEL 1
REMARK VINA RESULT:   -10.809      0.000      0.000
REMARK INTER + INTRA:         -11.502
REMARK INTER:                 -11.492
REMARK INTRA:                  -0.010
REMARK UNBOUND:                -0.061
REMARK  Name = ZINC000020113198
REMARK  2 active torsions:
REMARK  status: ('A' for Active; 'I' for Inactive)
REMARK    1  A    between atoms: C_1  and  C_2
REMARK    2  A    between atoms: C_2  and  C_3
REMARK                            x       y       z     vdW  Elec       q    Type
REMARK                         _______ _______ _______ _____ _____    ______ ____
ROOT
ATOM      1  C   UNL     1      -3.457   3.650 -24.304  0.00  0.00    +0.028 C 
ATOM      2  C   UNL     1      -4.665   3.996 -24.552  0.00  0.00    +0.018 C 
ATOM      3  C   UNL     1      -5.567   3.861 -23.653  0.00  0.00    +0.052 C 
ATOM      4  C   UNL     1      -5.262   3.378 -22.507  0.00  0.00    +0.132 C 
ATOM      5  N   UNL     1      -4.055   3.032 -22.258  0.00  0.00    +0.242 N 
ATOM      6  H   UNL     1      -4.616   2.848 -21.426  0.00  0.00    +0.204 HD
ATOM      7  C   UNL     1      -3.750   2.549 -21.112  0.00  0.00    +0.136 C 
ATOM      8  C   UNL     1      -2.541   2.202 -20.864  0.00  0.00    +0.088 C 
ATOM      9  C   UNL     1      -1.639   2.338 -21.762  0.00  0.00    -0.008 A 
ATOM     10  C   UNL     1      -1.944   2.821 -22.909  0.00  0.00    +0.079 A 
ATOM     11  N   UNL     1      -0.879   2.854 -23.621  0.00  0.00    -0.278 N 
ATOM     12  C   UNL     1      -1.346   3.438 -24.954  0.00  0.00    +0.233 C 
ATOM     13  O   UNL     1      -0.306   3.621 -26.061  0.00  0.00    -0.272 OA
ATOM     14  C   UNL     1       0.084   2.391 -22.913  0.00  0.00    +0.057 A 
ATOM     15  C   UNL     1       1.328   2.220 -23.167  0.00  0.00    +0.027 A 
ATOM     16  C   UNL     1       2.102   1.729 -22.272  0.00  0.00    +0.002 A 
ATOM     17  C   UNL     1       1.632   1.411 -21.124  0.00  0.00    +0.001 A 
ATOM     18  C   UNL     1       0.389   1.583 -20.870  0.00  0.00    +0.010 A 
ATOM     19  C   UNL     1      -0.385   2.073 -21.765  0.00  0.00    +0.004 A 
ATOM     20  C   UNL     1      -3.152   3.167 -23.157  0.00  0.00    +0.120 C 
ATOM     21  C   UNL     1      -2.553   3.785 -25.202  0.00  0.00    +0.112 C 
ENDROOT
BRANCH   1  23
ATOM     22  C   UNL     1      -4.492   3.456 -26.256  0.00  0.00    +0.004 C 
ATOM     23  C   UNL     1      -3.762   4.132 -25.450  0.00  0.00    +0.010 C 
ENDBRANCH   1  23
TORSDOF 1
ENDMDL
MODEL 2
REMARK VINA RESULT:   -10.611      1.367      4.632
REMARK INTER + INTRA:         -11.293
REMARK INTER:                 -11.206
REMARK INTRA:                  -0.087
REMARK UNBOUND:                -0.061
REMARK  Name = ZINC000020113198
REMARK  2 active torsions:
REMARK  status: ('A' for Active; 'I' for Inactive)
REMARK    1  A    between atoms: C_1  and  C_2
REMARK    2  A    between atoms: C_2  and  C_3
REMARK                            x       y       z     vdW  Elec       q    Type
REMARK                         _______ _______ _______ _____ _____    ______ ____
ROOT
ATOM      1  C   UNL     1      -0.116   3.135 -24.396  0.00  0.00    +0.028 C 
ATOM      2  C   UNL     1       1.123   3.037 -24.707  0.00  0.00    +0.018 C 
ATOM      3  C   UNL     1       1.949   2.499 -23.888  0.00  0.00    +0.052 C 
ATOM      4  C   UNL     1       1.536   2.061 -22.758  0.00  0.00    +0.132 C 
ATOM      5  N   UNL     1       0.298   2.159 -22.446  0.00  0.00    +0.242 N 
ATOM      6  H   UNL     1       0.785   1.708 -21.672  0.00  0.00    +0.204 HD
ATOM      7  C   UNL     1      -0.115   1.720 -21.316  0.00  0.00    +0.136 C 
ATOM      8  C   UNL     1      -1.354   1.819 -21.005  0.00  0.00    +0.088 C 
ATOM      9  C   UNL     1      -2.180   2.356 -21.823  0.00  0.00    -0.008 A 
ATOM     10  C   UNL     1      -1.767   2.795 -22.954  0.00  0.00    +0.079 A 
ATOM     11  N   UNL     1      -2.773   3.280 -23.582  0.00  0.00    -0.278 N 
ATOM     12  C   UNL     1      -2.180   3.771 -24.903  0.00  0.00    +0.233 C 
ATOM     13  O   UNL     1      -3.125   4.420 -25.915  0.00  0.00    -0.272 OA
ATOM     14  C   UNL     1      -3.807   3.140 -22.839  0.00  0.00    +0.057 A 
ATOM     15  C   UNL     1      -5.036   3.460 -23.012  0.00  0.00    +0.027 A 
ATOM     16  C   UNL     1      -5.898   3.208 -22.098  0.00  0.00    +0.002 A 
ATOM     17  C   UNL     1      -5.531   2.637 -21.012  0.00  0.00    +0.001 A 
ATOM     18  C   UNL     1      -4.303   2.318 -20.839  0.00  0.00    +0.010 A 
ATOM     19  C   UNL     1      -3.441   2.569 -21.752  0.00  0.00    +0.004 A 
ATOM     20  C   UNL     1      -0.528   2.696 -23.265  0.00  0.00    +0.120 C 
ATOM     21  C   UNL     1      -0.942   3.672 -25.214  0.00  0.00    +0.112 C 
ENDROOT
BRANCH   1  23
ATOM     22  C   UNL     1       1.385   4.246 -25.593  0.00  0.00    +0.004 C 
ATOM     23  C   UNL     1       0.297   3.574 -25.526  0.00  0.00    +0.010 C 
ENDBRANCH   1  23
TORSDOF 1
ENDMDL
MODEL 3
REMARK VINA RESULT:   -10.243      1.715      3.330
REMARK INTER + INTRA:         -10.902
REMARK INTER:                 -10.845
REMARK INTRA:                  -0.057
REMARK UNBOUND:                -0.061
REMARK  Name = ZINC000020113198
REMARK  2 active torsions:
REMARK  status: ('A' for Active; 'I' for Inactive)
REMARK    1  A    between atoms: C_1  and  C_2
REMARK    2  A    between atoms: C_2  and  C_3
REMARK                            x       y       z     vdW  Elec       q    Type
REMARK                         _______ _______ _______ _____ _____    ______ ____
ROOT
ATOM      1  C   UNL     1      -3.616   3.150 -22.543  0.00  0.00    +0.028 C 
ATOM      2  C   UNL     1      -4.873   3.383 -22.449  0.00  0.00    +0.018 C 
ATOM      3  C   UNL     1      -5.532   3.766 -23.478  0.00  0.00    +0.052 C 
ATOM      4  C   UNL     1      -4.935   3.917 -24.601  0.00  0.00    +0.132 C 
ATOM      5  N   UNL     1      -3.680   3.684 -24.696  0.00  0.00    +0.242 N 
ATOM      6  H   UNL     1      -4.019   3.975 -25.613  0.00  0.00    +0.204 HD
ATOM      7  C   UNL     1      -3.083   3.834 -25.819  0.00  0.00    +0.136 C 
ATOM      8  C   UNL     1      -1.827   3.601 -25.914  0.00  0.00    +0.088 C 
ATOM      9  C   UNL     1      -1.167   3.218 -24.886  0.00  0.00    -0.008 A 
ATOM     10  C   UNL     1      -1.764   3.068 -23.761  0.00  0.00    +0.079 A 
ATOM     11  N   UNL     1      -0.896   2.683 -22.901  0.00  0.00    -0.278 N 
ATOM     12  C   UNL     1      -1.701   2.534 -21.609  0.00  0.00    +0.233 C 
ATOM     13  O   UNL     1      -0.959   2.079 -20.351  0.00  0.00    -0.272 OA
ATOM     14  C   UNL     1       0.237   2.595 -23.494  0.00  0.00    +0.057 A 
ATOM     15  C   UNL     1       1.399   2.257 -23.074  0.00  0.00    +0.027 A 
ATOM     16  C   UNL     1       2.393   2.250 -23.882  0.00  0.00    +0.002 A 
ATOM     17  C   UNL     1       2.225   2.581 -25.108  0.00  0.00    +0.001 A 
ATOM     18  C   UNL     1       1.064   2.919 -25.526  0.00  0.00    +0.010 A 
ATOM     19  C   UNL     1       0.069   2.926 -24.720  0.00  0.00    +0.004 A 
ATOM     20  C   UNL     1      -3.020   3.301 -23.667  0.00  0.00    +0.120 C 
ATOM     21  C   UNL     1      -2.956   2.767 -21.515  0.00  0.00    +0.112 C 
ENDROOT
BRANCH   1  23
ATOM     22  C   UNL     1      -5.445   2.656 -21.391  0.00  0.00    +0.004 C 
ATOM     23  C   UNL     1      -4.213   3.000 -21.420  0.00  0.00    +0.010 C 
ENDBRANCH   1  23
TORSDOF 1
ENDMDL
MODEL 4
REMARK VINA RESULT:   -10.086      1.221      1.992
REMARK INTER + INTRA:         -10.736
REMARK INTER:                 -10.655
REMARK INTRA:                  -0.081
REMARK UNBOUND:                -0.061
REMARK  Name = ZINC000020113198
REMARK  2 active torsions:
REMARK  status: ('A' for Active; 'I' for Inactive)
REMARK    1  A    between atoms: C_1  and  C_2
REMARK    2  A    between atoms: C_2  and  C_3
REMARK                            x       y       z     vdW  Elec       q    Type
REMARK                         _______ _______ _______ _____ _____    ______ ____
ROOT
ATOM      1  C   UNL     1      -1.695   3.379 -24.172  0.00  0.00    +0.028 C 
ATOM      2  C   UNL     1      -2.945   3.650 -24.256  0.00  0.00    +0.018 C 
ATOM      3  C   UNL     1      -3.743   3.287 -23.322  0.00  0.00    +0.052 C 
ATOM      4  C   UNL     1      -3.293   2.654 -22.304  0.00  0.00    +0.132 C 
ATOM      5  N   UNL     1      -2.044   2.383 -22.220  0.00  0.00    +0.242 N 
ATOM      6  H   UNL     1      -2.506   2.015 -21.388  0.00  0.00    +0.204 HD
ATOM      7  C   UNL     1      -1.593   1.750 -21.202  0.00  0.00    +0.136 C 
ATOM      8  C   UNL     1      -0.344   1.479 -21.117  0.00  0.00    +0.088 C 
ATOM      9  C   UNL     1       0.455   1.842 -22.050  0.00  0.00    -0.008 A 
ATOM     10  C   UNL     1       0.004   2.475 -23.069  0.00  0.00    +0.079 A 
ATOM     11  N   UNL     1       0.989   2.722 -23.850  0.00  0.00    -0.278 N 
ATOM     12  C   UNL     1       0.352   3.471 -25.020  0.00  0.00    +0.233 C 
ATOM     13  O   UNL     1       1.263   3.926 -26.161  0.00  0.00    -0.272 OA
ATOM     14  C   UNL     1       2.049   2.240 -23.313  0.00  0.00    +0.057 A 
ATOM     15  C   UNL     1       3.271   2.227 -23.695  0.00  0.00    +0.027 A 
ATOM     16  C   UNL     1       4.164   1.670 -22.963  0.00  0.00    +0.002 A 
ATOM     17  C   UNL     1       3.833   1.127 -21.852  0.00  0.00    +0.001 A 
ATOM     18  C   UNL     1       2.611   1.140 -21.471  0.00  0.00    +0.010 A 
ATOM     19  C   UNL     1       1.719   1.696 -22.202  0.00  0.00    +0.004 A 
ATOM     20  C   UNL     1      -1.245   2.746 -23.153  0.00  0.00    +0.120 C 
ATOM     21  C   UNL     1      -0.896   3.742 -25.105  0.00  0.00    +0.112 C 
ENDROOT
BRANCH   1  23
ATOM     22  C   UNL     1      -3.104   3.517 -25.879  0.00  0.00    +0.004 C 
ATOM     23  C   UNL     1      -2.146   4.012 -25.189  0.00  0.00    +0.010 C 
ENDBRANCH   1  23
TORSDOF 1
ENDMDL
MODEL 5
REMARK VINA RESULT:   -10.073      1.448      5.429
REMARK INTER + INTRA:         -10.722
REMARK INTER:                 -10.637
REMARK INTRA:                  -0.085
REMARK UNBOUND:                -0.061
REMARK  Name = ZINC000020113198
REMARK  2 active torsions:
REMARK  status: ('A' for Active; 'I' for Inactive)
REMARK    1  A    between atoms: C_1  and  C_2
REMARK    2  A    between atoms: C_2  and  C_3
REMARK                            x       y       z     vdW  Elec       q    Type
REMARK                         _______ _______ _______ _____ _____    ______ ____
ROOT
ATOM      1  C   UNL     1       2.285   2.584 -23.288  0.00  0.00    +0.028 C 
ATOM      2  C   UNL     1       3.418   2.212 -22.819  0.00  0.00    +0.018 C 
ATOM      3  C   UNL     1       3.476   1.602 -21.694  0.00  0.00    +0.052 C 
ATOM      4  C   UNL     1       2.402   1.364 -21.038  0.00  0.00    +0.132 C 
ATOM      5  N   UNL     1       1.270   1.735 -21.507  0.00  0.00    +0.242 N 
ATOM      6  H   UNL     1       1.107   1.272 -20.613  0.00  0.00    +0.204 HD
ATOM      7  C   UNL     1       0.196   1.497 -20.851  0.00  0.00    +0.136 C 
ATOM      8  C   UNL     1      -0.937   1.868 -21.321  0.00  0.00    +0.088 C 
ATOM      9  C   UNL     1      -0.996   2.478 -22.445  0.00  0.00    -0.008 A 
ATOM     10  C   UNL     1       0.079   2.716 -23.102  0.00  0.00    +0.079 A 
ATOM     11  N   UNL     1      -0.243   3.329 -24.180  0.00  0.00    -0.278 N 
ATOM     12  C   UNL     1       1.094   3.564 -24.882  0.00  0.00    +0.233 C 
ATOM     13  O   UNL     1       1.078   4.289 -26.229  0.00  0.00    -0.272 OA
ATOM     14  C   UNL     1      -1.517   3.468 -24.190  0.00  0.00    +0.057 A 
ATOM     15  C   UNL     1      -2.313   4.007 -25.037  0.00  0.00    +0.027 A 
ATOM     16  C   UNL     1      -3.574   4.019 -24.811  0.00  0.00    +0.002 A 
ATOM     17  C   UNL     1      -4.038   3.493 -23.740  0.00  0.00    +0.001 A 
ATOM     18  C   UNL     1      -3.243   2.955 -22.893  0.00  0.00    +0.010 A 
ATOM     19  C   UNL     1      -1.982   2.943 -23.118  0.00  0.00    +0.004 A 
ATOM     20  C   UNL     1       1.211   2.345 -22.632  0.00  0.00    +0.120 C 
ATOM     21  C   UNL     1       2.226   3.193 -24.414  0.00  0.00    +0.112 C 
ENDROOT
BRANCH   1  23
ATOM     22  C   UNL     1       4.332   3.432 -23.379  0.00  0.00    +0.004 C 
ATOM     23  C   UNL     1       3.359   2.822 -23.944  0.00  0.00    +0.010 C 
ENDBRANCH   1  23
TORSDOF 1
ENDMDL
MODEL 6
REMARK VINA RESULT:    -9.979      1.899      5.432
REMARK INTER + INTRA:         -10.623
REMARK INTER:                 -10.533
REMARK INTRA:                  -0.090
REMARK UNBOUND:                -0.061
REMARK  Name = ZINC000020113198
REMARK  2 active torsions:
REMARK  status: ('A' for Active; 'I' for Inactive)
REMARK    1  A    between atoms: C_1  and  C_2
REMARK    2  A    between atoms: C_2  and  C_3
REMARK                            x       y       z     vdW  Elec       q    Type
REMARK                         _______ _______ _______ _____ _____    ______ ____
ROOT
ATOM      1  C   UNL     1       1.147   2.274 -23.459  0.00  0.00    +0.028 C 
ATOM      2  C   UNL     1       2.229   2.309 -24.145  0.00  0.00    +0.018 C 
ATOM      3  C   UNL     1       2.221   2.801 -25.328  0.00  0.00    +0.052 C 
ATOM      4  C   UNL     1       1.132   3.258 -25.825  0.00  0.00    +0.132 C 
ATOM      5  N   UNL     1       0.052   3.223 -25.139  0.00  0.00    +0.242 N 
ATOM      6  H   UNL     1      -0.159   3.646 -26.043  0.00  0.00    +0.204 HD
ATOM      7  C   UNL     1      -1.037   3.680 -25.636  0.00  0.00    +0.136 C 
ATOM      8  C   UNL     1      -2.119   3.645 -24.950  0.00  0.00    +0.088 C 
ATOM      9  C   UNL     1      -2.112   3.154 -23.768  0.00  0.00    -0.008 A 
ATOM     10  C   UNL     1      -1.022   2.696 -23.270  0.00  0.00    +0.079 A 
ATOM     11  N   UNL     1      -1.276   2.266 -22.091  0.00  0.00    -0.278 N 
ATOM     12  C   UNL     1       0.073   1.748 -21.591  0.00  0.00    +0.233 C 
ATOM     13  O   UNL     1       0.135   1.151 -20.184  0.00  0.00    -0.272 OA
ATOM     14  C   UNL     1      -2.522   2.457 -21.859  0.00  0.00    +0.057 A 
ATOM     15  C   UNL     1      -3.252   2.203 -20.838  0.00  0.00    +0.027 A 
ATOM     16  C   UNL     1      -4.499   2.497 -20.853  0.00  0.00    +0.002 A 
ATOM     17  C   UNL     1      -5.014   3.045 -21.890  0.00  0.00    +0.001 A 
ATOM     18  C   UNL     1      -4.284   3.300 -22.910  0.00  0.00    +0.010 A 
ATOM     19  C   UNL     1      -3.038   3.006 -22.895  0.00  0.00    +0.004 A 
ATOM     20  C   UNL     1       0.058   2.731 -23.956  0.00  0.00    +0.120 C 
ATOM     21  C   UNL     1       1.154   1.782 -22.276  0.00  0.00    +0.112 C 
ENDROOT
BRANCH   1  23
ATOM     22  C   UNL     1       2.964   1.016 -23.645  0.00  0.00    +0.004 C 
ATOM     23  C   UNL     1       2.235   1.817 -22.962  0.00  0.00    +0.010 C 
ENDBRANCH   1  23
TORSDOF 1
ENDMDL
MODEL 7
REMARK VINA RESULT:    -9.847      2.212      4.247
REMARK INTER + INTRA:         -10.484
REMARK INTER:                 -10.405
REMARK INTRA:                  -0.079
REMARK UNBOUND:                -0.061
REMARK  Name = ZINC000020113198
REMARK  2 active torsions:
REMARK  status: ('A' for Active; 'I' for Inactive)
REMARK    1  A    between atoms: C_1  and  C_2
REMARK    2  A    between atoms: C_2  and  C_3
REMARK                            x       y       z     vdW  Elec       q    Type
REMARK                         _______ _______ _______ _____ _____    ______ ____
ROOT
ATOM      1  C   UNL     1      -1.157   2.514 -22.598  0.00  0.00    +0.028 C 
ATOM      2  C   UNL     1      -2.401   2.659 -22.874  0.00  0.00    +0.018 C 
ATOM      3  C   UNL     1      -2.752   3.165 -23.997  0.00  0.00    +0.052 C 
ATOM      4  C   UNL     1      -1.862   3.525 -24.844  0.00  0.00    +0.132 C 
ATOM      5  N   UNL     1      -0.620   3.380 -24.569  0.00  0.00    +0.242 N 
ATOM      6  H   UNL     1      -0.693   3.794 -25.499  0.00  0.00    +0.204 HD
ATOM      7  C   UNL     1       0.270   3.740 -25.417  0.00  0.00    +0.136 C 
ATOM      8  C   UNL     1       1.513   3.594 -25.141  0.00  0.00    +0.088 C 
ATOM      9  C   UNL     1       1.866   3.089 -24.019  0.00  0.00    -0.008 A 
ATOM     10  C   UNL     1       0.975   2.728 -23.171  0.00  0.00    +0.079 A 
ATOM     11  N   UNL     1       1.575   2.259 -22.141  0.00  0.00    -0.278 N 
ATOM     12  C   UNL     1       0.437   1.862 -21.201  0.00  0.00    +0.233 C 
ATOM     13  O   UNL     1       0.805   1.254 -19.846  0.00  0.00    -0.272 OA
ATOM     14  C   UNL     1       2.837   2.330 -22.353  0.00  0.00    +0.057 A 
ATOM     15  C   UNL     1       3.846   1.993 -21.638  0.00  0.00    +0.027 A 
ATOM     16  C   UNL     1       5.034   2.170 -22.085  0.00  0.00    +0.002 A 
ATOM     17  C   UNL     1       5.212   2.682 -23.245  0.00  0.00    +0.001 A 
ATOM     18  C   UNL     1       4.204   3.018 -23.959  0.00  0.00    +0.010 A 
ATOM     19  C   UNL     1       3.016   2.842 -23.513  0.00  0.00    +0.004 A 
ATOM     20  C   UNL     1      -0.267   2.874 -23.447  0.00  0.00    +0.120 C 
ATOM     21  C   UNL     1      -0.805   2.008 -21.476  0.00  0.00    +0.112 C 
ENDROOT
BRANCH   1  23
ATOM     22  C   UNL     1      -2.919   2.997 -21.340  0.00  0.00    +0.004 C 
ATOM     23  C   UNL     1      -2.048   2.153 -21.751  0.00  0.00    +0.010 C 
ENDBRANCH   1  23
TORSDOF 1
ENDMDL
MODEL 8
REMARK VINA RESULT:    -9.760      1.677      5.852
REMARK INTER + INTRA:         -10.391
REMARK INTER:                 -10.303
REMARK INTRA:                  -0.089
REMARK UNBOUND:                -0.061
REMARK  Name = ZINC000020113198
REMARK  2 active torsions:
REMARK  status: ('A' for Active; 'I' for Inactive)
REMARK    1  A    between atoms: C_1  and  C_2
REMARK    2  A    between atoms: C_2  and  C_3
REMARK                            x       y       z     vdW  Elec       q    Type
REMARK                         _______ _______ _______ _____ _____    ______ ____
ROOT
ATOM      1  C   UNL     1       0.438   1.904 -22.489  0.00  0.00    +0.028 C 
ATOM      2  C   UNL     1       1.655   1.539 -22.322  0.00  0.00    +0.018 C 
ATOM      3  C   UNL     1       2.534   1.815 -23.213  0.00  0.00    +0.052 C 
ATOM      4  C   UNL     1       2.196   2.454 -24.269  0.00  0.00    +0.132 C 
ATOM      5  N   UNL     1       0.980   2.819 -24.437  0.00  0.00    +0.242 N 
ATOM      6  H   UNL     1       1.519   3.128 -25.246  0.00  0.00    +0.204 HD
ATOM      7  C   UNL     1       0.643   3.459 -25.494  0.00  0.00    +0.136 C 
ATOM      8  C   UNL     1      -0.574   3.823 -25.661  0.00  0.00    +0.088 C 
ATOM      9  C   UNL     1      -1.453   3.548 -24.772  0.00  0.00    -0.008 A 
ATOM     10  C   UNL     1      -1.116   2.908 -23.714  0.00  0.00    +0.079 A 
ATOM     11  N   UNL     1      -2.162   2.759 -22.990  0.00  0.00    -0.278 N 
ATOM     12  C   UNL     1      -1.658   1.993 -21.767  0.00  0.00    +0.233 C 
ATOM     13  O   UNL     1      -2.669   1.640 -20.675  0.00  0.00    -0.272 OA
ATOM     14  C   UNL     1      -3.147   3.308 -23.601  0.00  0.00    +0.057 A 
ATOM     15  C   UNL     1      -4.385   3.425 -23.296  0.00  0.00    +0.027 A 
ATOM     16  C   UNL     1      -5.185   4.031 -24.092  0.00  0.00    +0.002 A 
ATOM     17  C   UNL     1      -4.747   4.518 -25.192  0.00  0.00    +0.001 A 
ATOM     18  C   UNL     1      -3.509   4.400 -25.497  0.00  0.00    +0.010 A 
ATOM     19  C   UNL     1      -2.709   3.795 -24.701  0.00  0.00    +0.004 A 
ATOM     20  C   UNL     1       0.101   2.544 -23.547  0.00  0.00    +0.120 C 
ATOM     21  C   UNL     1      -0.442   1.629 -21.600  0.00  0.00    +0.112 C 
ENDROOT
BRANCH   1  23
ATOM     22  C   UNL     1       1.840   1.588 -20.801  0.00  0.00    +0.004 C 
ATOM     23  C   UNL     1       0.775   1.264 -21.433  0.00  0.00    +0.010 C 
ENDBRANCH   1  23
TORSDOF 1
ENDMDL
MODEL 9
REMARK VINA RESULT:    -9.251      3.101      5.309
REMARK INTER + INTRA:          -9.853
REMARK INTER:                  -9.792
REMARK INTRA:                  -0.061
REMARK UNBOUND:                -0.061
REMARK  Name = ZINC000020113198
REMARK  2 active torsions:
REMARK  status: ('A' for Active; 'I' for Inactive)
REMARK    1  A    between atoms: C_1  and  C_2
REMARK    2  A    between atoms: C_2  and  C_3
REMARK                            x       y       z     vdW  Elec       q    Type
REMARK                         _______ _______ _______ _____ _____    ______ ____
ROOT
ATOM      1  C   UNL     1       0.502   2.210 -22.325  0.00  0.00    +0.028 C 
ATOM      2  C   UNL     1      -0.779   2.195 -22.378  0.00  0.00    +0.018 C 
ATOM      3  C   UNL     1      -1.411   3.197 -22.865  0.00  0.00    +0.052 C 
ATOM      4  C   UNL     1      -0.764   4.214 -23.299  0.00  0.00    +0.132 C 
ATOM      5  N   UNL     1       0.515   4.229 -23.246  0.00  0.00    +0.242 N 
ATOM      6  H   UNL     1       0.204   5.107 -23.661  0.00  0.00    +0.204 HD
ATOM      7  C   UNL     1       1.162   5.245 -23.679  0.00  0.00    +0.136 C 
ATOM      8  C   UNL     1       2.443   5.260 -23.626  0.00  0.00    +0.088 C 
ATOM      9  C   UNL     1       3.075   4.259 -23.140  0.00  0.00    -0.008 A 
ATOM     10  C   UNL     1       2.428   3.242 -22.706  0.00  0.00    +0.079 A 
ATOM     11  N   UNL     1       3.278   2.386 -22.275  0.00  0.00    -0.278 N 
ATOM     12  C   UNL     1       2.414   1.224 -21.785  0.00  0.00    +0.233 C 
ATOM     13  O   UNL     1       3.121   0.003 -21.195  0.00  0.00    -0.272 OA
ATOM     14  C   UNL     1       4.451   2.874 -22.443  0.00  0.00    +0.057 A 
ATOM     15  C   UNL     1       5.616   2.413 -22.178  0.00  0.00    +0.027 A 
ATOM     16  C   UNL     1       6.657   3.111 -22.448  0.00  0.00    +0.002 A 
ATOM     17  C   UNL     1       6.531   4.268 -22.982  0.00  0.00    +0.001 A 
ATOM     18  C   UNL     1       5.366   4.728 -23.246  0.00  0.00    +0.010 A 
ATOM     19  C   UNL     1       4.326   4.032 -22.977  0.00  0.00    +0.004 A 
ATOM     20  C   UNL     1       1.148   3.227 -22.759  0.00  0.00    +0.120 C 
ATOM     21  C   UNL     1       1.135   1.208 -21.838  0.00  0.00    +0.112 C 
ENDROOT
BRANCH   1  23
ATOM     22  C   UNL     1      -1.302   1.348 -21.363  0.00  0.00    +0.004 C 
ATOM     23  C   UNL     1      -0.146   1.194 -21.891  0.00  0.00    +0.010 C 
ENDBRANCH   1  23
TORSDOF 1
ENDMDL
