MODEL 1
REMARK VINA RESULT:    -6.142      0.000      0.000
REMARK INTER + INTRA:          -7.187
REMARK INTER:                  -7.028
REMARK INTRA:                  -0.160
REMARK UNBOUND:                -0.147
REMARK  Name = ZINC000000338275
REMARK  4 active torsions:
REMARK  status: ('A' for Active; 'I' for Inactive)
REMARK    1  A    between atoms: C_1  and  O_2
REMARK    2  A    between atoms: O_2  and  C_3
REMARK    3  A    between atoms: C_5  and  C_6
REMARK    4  A    between atoms: C_11  and  O_12
REMARK                            x       y       z     vdW  Elec       q    Type
REMARK                         _______ _______ _______ _____ _____    ______ ____
ROOT
ATOM      1  C   UNL     1      -4.001   3.226 -22.258  0.00  0.00    +0.162 A 
ATOM      2  C   UNL     1      -2.963   3.281 -23.041  0.00  0.00    +0.059 A 
ATOM      3  C   UNL     1      -3.107   3.617 -24.289  0.00  0.00    +0.001 A 
ATOM      4  C   UNL     1      -4.289   3.898 -24.753  0.00  0.00    +0.013 A 
ATOM      5  C   UNL     1      -5.325   3.843 -23.972  0.00  0.00    +0.050 A 
ATOM      6  C   UNL     1      -5.181   3.507 -22.724  0.00  0.00    +0.158 A 
ENDROOT
BRANCH   3   7
ATOM      7  C   UNL     1      -2.071   3.672 -25.071  0.00  0.00    +0.072 C 
ATOM      8  O   UNL     1      -2.199   3.420 -26.340  0.00  0.00    -0.545 OA
ATOM      9  O   UNL     1      -0.905   3.979 -24.584  0.00  0.00    -0.545 OA
ENDBRANCH   3   7
BRANCH   1  11
ATOM     10  C   UNL     1      -3.125   3.619 -20.222  0.00  0.00    +0.277 C 
ATOM     11  O   UNL     1      -3.857   2.890 -21.011  0.00  0.00    -0.491 OA
ENDBRANCH   1  11
BRANCH   6  12
ATOM     12  O   UNL     1      -6.218   3.452 -21.942  0.00  0.00    -0.503 OA
ATOM     13  H   UNL     1      -6.963   2.938 -22.186  0.00  0.00    +0.292 HD
ENDBRANCH   6  12
TORSDOF 3
ENDMDL
MODEL 2
REMARK VINA RESULT:    -6.118      1.829      2.924
REMARK INTER + INTRA:          -7.160
REMARK INTER:                  -7.000
REMARK INTRA:                  -0.159
REMARK UNBOUND:                -0.147
REMARK  Name = ZINC000000338275
REMARK  4 active torsions:
REMARK  status: ('A' for Active; 'I' for Inactive)
REMARK    1  A    between atoms: C_1  and  O_2
REMARK    2  A    between atoms: O_2  and  C_3
REMARK    3  A    between atoms: C_5  and  C_6
REMARK    4  A    between atoms: C_11  and  O_12
REMARK                            x       y       z     vdW  Elec       q    Type
REMARK                         _______ _______ _______ _____ _____    ______ ____
ROOT
ATOM      1  C   UNL     1      -4.115   3.568 -23.872  0.00  0.00    +0.162 A 
ATOM      2  C   UNL     1      -3.169   3.017 -23.168  0.00  0.00    +0.059 A 
ATOM      3  C   UNL     1      -1.987   2.852 -23.683  0.00  0.00    +0.001 A 
ATOM      4  C   UNL     1      -1.751   3.237 -24.902  0.00  0.00    +0.013 A 
ATOM      5  C   UNL     1      -2.694   3.787 -25.606  0.00  0.00    +0.050 A 
ATOM      6  C   UNL     1      -3.877   3.953 -25.091  0.00  0.00    +0.158 A 
ENDROOT
BRANCH   3   7
ATOM      7  C   UNL     1      -1.043   2.301 -22.980  0.00  0.00    +0.072 C 
ATOM      8  O   UNL     1      -1.207   2.116 -21.704  0.00  0.00    -0.545 OA
ATOM      9  O   UNL     1       0.065   1.936 -23.553  0.00  0.00    -0.545 OA
ENDBRANCH   3   7
BRANCH   1  11
ATOM     10  C   UNL     1      -5.549   3.303 -22.157  0.00  0.00    +0.277 C 
ATOM     11  O   UNL     1      -5.297   3.733 -23.357  0.00  0.00    -0.491 OA
ENDBRANCH   1  11
BRANCH   6  12
ATOM     12  O   UNL     1      -4.821   4.503 -25.794  0.00  0.00    -0.503 OA
ATOM     13  H   UNL     1      -4.955   5.430 -25.755  0.00  0.00    +0.292 HD
ENDBRANCH   6  12
TORSDOF 3
ENDMDL
MODEL 3
REMARK VINA RESULT:    -6.101      1.439      3.960
REMARK INTER + INTRA:          -7.140
REMARK INTER:                  -6.975
REMARK INTRA:                  -0.165
REMARK UNBOUND:                -0.147
REMARK  Name = ZINC000000338275
REMARK  4 active torsions:
REMARK  status: ('A' for Active; 'I' for Inactive)
REMARK    1  A    between atoms: C_1  and  O_2
REMARK    2  A    between atoms: O_2  and  C_3
REMARK    3  A    between atoms: C_5  and  C_6
REMARK    4  A    between atoms: C_11  and  O_12
REMARK                            x       y       z     vdW  Elec       q    Type
REMARK                         _______ _______ _______ _____ _____    ______ ____
ROOT
ATOM      1  C   UNL     1      -1.519   2.666 -23.839  0.00  0.00    +0.162 A 
ATOM      2  C   UNL     1      -2.385   2.600 -22.870  0.00  0.00    +0.059 A 
ATOM      3  C   UNL     1      -3.557   3.145 -23.007  0.00  0.00    +0.001 A 
ATOM      4  C   UNL     1      -3.863   3.757 -24.112  0.00  0.00    +0.013 A 
ATOM      5  C   UNL     1      -3.000   3.824 -25.081  0.00  0.00    +0.050 A 
ATOM      6  C   UNL     1      -1.827   3.278 -24.944  0.00  0.00    +0.158 A 
ENDROOT
BRANCH   3   7
ATOM      7  C   UNL     1      -4.421   3.079 -22.039  0.00  0.00    +0.072 C 
ATOM      8  O   UNL     1      -5.548   3.721 -22.128  0.00  0.00    -0.545 OA
ATOM      9  O   UNL     1      -4.159   2.371 -20.981  0.00  0.00    -0.545 OA
ENDBRANCH   3   7
BRANCH   1  11
ATOM     10  C   UNL     1       0.256   2.155 -22.552  0.00  0.00    +0.277 C 
ATOM     11  O   UNL     1      -0.347   2.121 -23.703  0.00  0.00    -0.491 OA
ENDBRANCH   1  11
BRANCH   6  12
ATOM     12  O   UNL     1      -0.962   3.344 -25.912  0.00  0.00    -0.503 OA
ATOM     13  H   UNL     1      -0.697   4.178 -26.248  0.00  0.00    +0.292 HD
ENDBRANCH   6  12
TORSDOF 3
ENDMDL
MODEL 4
REMARK VINA RESULT:    -6.085      1.891      3.256
REMARK INTER + INTRA:          -7.122
REMARK INTER:                  -6.957
REMARK INTRA:                  -0.165
REMARK UNBOUND:                -0.147
REMARK  Name = ZINC000000338275
REMARK  4 active torsions:
REMARK  status: ('A' for Active; 'I' for Inactive)
REMARK    1  A    between atoms: C_1  and  O_2
REMARK    2  A    between atoms: O_2  and  C_3
REMARK    3  A    between atoms: C_5  and  C_6
REMARK    4  A    between atoms: C_11  and  O_12
REMARK                            x       y       z     vdW  Elec       q    Type
REMARK                         _______ _______ _______ _____ _____    ______ ____
ROOT
ATOM      1  C   UNL     1      -3.974   3.362 -23.303  0.00  0.00    +0.162 A 
ATOM      2  C   UNL     1      -2.732   2.977 -23.274  0.00  0.00    +0.059 A 
ATOM      3  C   UNL     1      -2.220   2.513 -22.173  0.00  0.00    +0.001 A 
ATOM      4  C   UNL     1      -2.951   2.434 -21.101  0.00  0.00    +0.013 A 
ATOM      5  C   UNL     1      -4.192   2.817 -21.129  0.00  0.00    +0.050 A 
ATOM      6  C   UNL     1      -4.704   3.282 -22.231  0.00  0.00    +0.158 A 
ENDROOT
BRANCH   3   7
ATOM      7  C   UNL     1      -0.979   2.129 -22.145  0.00  0.00    +0.072 C 
ATOM      8  O   UNL     1      -0.390   1.918 -21.005  0.00  0.00    -0.545 OA
ATOM      9  O   UNL     1      -0.327   1.956 -23.255  0.00  0.00    -0.545 OA
ENDBRANCH   3   7
BRANCH   1  11
ATOM     10  C   UNL     1      -3.782   4.604 -25.171  0.00  0.00    +0.277 C 
ATOM     11  O   UNL     1      -4.486   3.826 -24.405  0.00  0.00    -0.491 OA
ENDBRANCH   1  11
BRANCH   6  12
ATOM     12  O   UNL     1      -5.945   3.666 -22.259  0.00  0.00    -0.503 OA
ATOM     13  H   UNL     1      -6.186   4.499 -21.905  0.00  0.00    +0.292 HD
ENDBRANCH   6  12
TORSDOF 3
ENDMDL
MODEL 5
REMARK VINA RESULT:    -6.078      1.112      3.835
REMARK INTER + INTRA:          -7.113
REMARK INTER:                  -6.967
REMARK INTRA:                  -0.146
REMARK UNBOUND:                -0.147
REMARK  Name = ZINC000000338275
REMARK  4 active torsions:
REMARK  status: ('A' for Active; 'I' for Inactive)
REMARK    1  A    between atoms: C_1  and  O_2
REMARK    2  A    between atoms: O_2  and  C_3
REMARK    3  A    between atoms: C_5  and  C_6
REMARK    4  A    between atoms: C_11  and  O_12
REMARK                            x       y       z     vdW  Elec       q    Type
REMARK                         _______ _______ _______ _____ _____    ______ ____
ROOT
ATOM      1  C   UNL     1      -3.085   3.759 -24.401  0.00  0.00    +0.162 A 
ATOM      2  C   UNL     1      -2.922   3.385 -23.165  0.00  0.00    +0.059 A 
ATOM      3  C   UNL     1      -3.934   3.375 -22.349  0.00  0.00    +0.001 A 
ATOM      4  C   UNL     1      -5.109   3.739 -22.769  0.00  0.00    +0.013 A 
ATOM      5  C   UNL     1      -5.274   4.112 -24.002  0.00  0.00    +0.050 A 
ATOM      6  C   UNL     1      -4.261   4.123 -24.819  0.00  0.00    +0.158 A 
ENDROOT
BRANCH   3   7
ATOM      7  C   UNL     1      -3.770   3.002 -21.115  0.00  0.00    +0.072 C 
ATOM      8  O   UNL     1      -2.938   3.641 -20.348  0.00  0.00    -0.545 OA
ATOM      9  O   UNL     1      -4.438   1.989 -20.649  0.00  0.00    -0.545 OA
ENDBRANCH   3   7
BRANCH   1  11
ATOM     10  C   UNL     1      -0.862   3.721 -24.749  0.00  0.00    +0.277 C 
ATOM     11  O   UNL     1      -2.073   3.770 -25.216  0.00  0.00    -0.491 OA
ENDBRANCH   1  11
BRANCH   6  12
ATOM     12  O   UNL     1      -4.425   4.496 -26.053  0.00  0.00    -0.503 OA
ATOM     13  H   UNL     1      -3.959   4.062 -26.740  0.00  0.00    +0.292 HD
ENDBRANCH   6  12
TORSDOF 3
ENDMDL
MODEL 6
REMARK VINA RESULT:    -6.060      1.726      2.193
REMARK INTER + INTRA:          -7.093
REMARK INTER:                  -6.949
REMARK INTRA:                  -0.144
REMARK UNBOUND:                -0.147
REMARK  Name = ZINC000000338275
REMARK  4 active torsions:
REMARK  status: ('A' for Active; 'I' for Inactive)
REMARK    1  A    between atoms: C_1  and  O_2
REMARK    2  A    between atoms: O_2  and  C_3
REMARK    3  A    between atoms: C_5  and  C_6
REMARK    4  A    between atoms: C_11  and  O_12
REMARK                            x       y       z     vdW  Elec       q    Type
REMARK                         _______ _______ _______ _____ _____    ______ ____
ROOT
ATOM      1  C   UNL     1      -3.103   2.690 -22.295  0.00  0.00    +0.162 A 
ATOM      2  C   UNL     1      -3.120   3.057 -23.543  0.00  0.00    +0.059 A 
ATOM      3  C   UNL     1      -4.196   3.577 -24.054  0.00  0.00    +0.001 A 
ATOM      4  C   UNL     1      -5.256   3.730 -23.317  0.00  0.00    +0.013 A 
ATOM      5  C   UNL     1      -5.241   3.364 -22.070  0.00  0.00    +0.050 A 
ATOM      6  C   UNL     1      -4.163   2.844 -21.559  0.00  0.00    +0.158 A 
ENDROOT
BRANCH   3   7
ATOM      7  C   UNL     1      -4.212   3.943 -25.301  0.00  0.00    +0.072 C 
ATOM      8  O   UNL     1      -4.268   3.046 -26.241  0.00  0.00    -0.545 OA
ATOM      9  O   UNL     1      -4.173   5.205 -25.608  0.00  0.00    -0.545 OA
ENDBRANCH   3   7
BRANCH   1  11
ATOM     10  C   UNL     1      -0.861   2.484 -22.266  0.00  0.00    +0.277 C 
ATOM     11  O   UNL     1      -2.027   2.170 -21.784  0.00  0.00    -0.491 OA
ENDBRANCH   1  11
BRANCH   6  12
ATOM     12  O   UNL     1      -4.147   2.478 -20.312  0.00  0.00    -0.503 OA
ATOM     13  H   UNL     1      -3.546   1.819 -20.025  0.00  0.00    +0.292 HD
ENDBRANCH   6  12
TORSDOF 3
ENDMDL
MODEL 7
REMARK VINA RESULT:    -5.940      1.530      4.675
REMARK INTER + INTRA:          -6.955
REMARK INTER:                  -6.800
REMARK INTRA:                  -0.155
REMARK UNBOUND:                -0.147
REMARK  Name = ZINC000000338275
REMARK  4 active torsions:
REMARK  status: ('A' for Active; 'I' for Inactive)
REMARK    1  A    between atoms: C_1  and  O_2
REMARK    2  A    between atoms: O_2  and  C_3
REMARK    3  A    between atoms: C_5  and  C_6
REMARK    4  A    between atoms: C_11  and  O_12
REMARK                            x       y       z     vdW  Elec       q    Type
REMARK                         _______ _______ _______ _____ _____    ______ ____
ROOT
ATOM      1  C   UNL     1      -2.069   2.794 -24.117  0.00  0.00    +0.162 A 
ATOM      2  C   UNL     1      -3.174   2.957 -23.450  0.00  0.00    +0.059 A 
ATOM      3  C   UNL     1      -3.212   2.691 -22.178  0.00  0.00    +0.001 A 
ATOM      4  C   UNL     1      -2.143   2.264 -21.573  0.00  0.00    +0.013 A 
ATOM      5  C   UNL     1      -1.039   2.102 -22.237  0.00  0.00    +0.050 A 
ATOM      6  C   UNL     1      -1.002   2.367 -23.510  0.00  0.00    +0.158 A 
ENDROOT
BRANCH   3   7
ATOM      7  C   UNL     1      -4.316   2.854 -21.513  0.00  0.00    +0.072 C 
ATOM      8  O   UNL     1      -4.556   2.123 -20.464  0.00  0.00    -0.545 OA
ATOM      9  O   UNL     1      -5.180   3.746 -21.895  0.00  0.00    -0.545 OA
ENDBRANCH   3   7
BRANCH   1  11
ATOM     10  C   UNL     1      -3.097   3.494 -25.994  0.00  0.00    +0.277 C 
ATOM     11  O   UNL     1      -2.032   3.059 -25.389  0.00  0.00    -0.491 OA
ENDBRANCH   1  11
BRANCH   6  12
ATOM     12  O   UNL     1       0.103   2.205 -24.176  0.00  0.00    -0.503 OA
ATOM     13  H   UNL     1       0.080   1.846 -25.041  0.00  0.00    +0.292 HD
ENDBRANCH   6  12
TORSDOF 3
ENDMDL
MODEL 8
REMARK VINA RESULT:    -5.618      5.445      7.047
REMARK INTER + INTRA:          -6.586
REMARK INTER:                  -6.439
REMARK INTRA:                  -0.147
REMARK UNBOUND:                -0.147
REMARK  Name = ZINC000000338275
REMARK  4 active torsions:
REMARK  status: ('A' for Active; 'I' for Inactive)
REMARK    1  A    between atoms: C_1  and  O_2
REMARK    2  A    between atoms: O_2  and  C_3
REMARK    3  A    between atoms: C_5  and  C_6
REMARK    4  A    between atoms: C_11  and  O_12
REMARK                            x       y       z     vdW  Elec       q    Type
REMARK                         _______ _______ _______ _____ _____    ______ ____
ROOT
ATOM      1  C   UNL     1       3.076   4.133 -22.929  0.00  0.00    +0.162 A 
ATOM      2  C   UNL     1       3.307   2.913 -22.538  0.00  0.00    +0.059 A 
ATOM      3  C   UNL     1       2.349   2.035 -22.547  0.00  0.00    +0.001 A 
ATOM      4  C   UNL     1       1.159   2.376 -22.947  0.00  0.00    +0.013 A 
ATOM      5  C   UNL     1       0.928   3.594 -23.337  0.00  0.00    +0.050 A 
ATOM      6  C   UNL     1       1.887   4.472 -23.328  0.00  0.00    +0.158 A 
ENDROOT
BRANCH   3   7
ATOM      7  C   UNL     1       2.579   0.817 -22.156  0.00  0.00    +0.072 C 
ATOM      8  O   UNL     1       2.430  -0.171 -22.987  0.00  0.00    -0.545 OA
ATOM      9  O   UNL     1       2.960   0.588 -20.935  0.00  0.00    -0.545 OA
ENDBRANCH   3   7
BRANCH   1  11
ATOM     10  C   UNL     1       5.273   4.622 -22.993  0.00  0.00    +0.277 C 
ATOM     11  O   UNL     1       4.035   5.011 -22.920  0.00  0.00    -0.491 OA
ENDBRANCH   1  11
BRANCH   6  12
ATOM     12  O   UNL     1       1.656   5.690 -23.719  0.00  0.00    -0.503 OA
ATOM     13  H   UNL     1       1.074   5.851 -24.435  0.00  0.00    +0.292 HD
ENDBRANCH   6  12
TORSDOF 3
ENDMDL
MODEL 9
REMARK VINA RESULT:    -5.569      4.305      5.868
REMARK INTER + INTRA:          -6.530
REMARK INTER:                  -6.383
REMARK INTRA:                  -0.147
REMARK UNBOUND:                -0.147
REMARK  Name = ZINC000000338275
REMARK  4 active torsions:
REMARK  status: ('A' for Active; 'I' for Inactive)
REMARK    1  A    between atoms: C_1  and  O_2
REMARK    2  A    between atoms: O_2  and  C_3
REMARK    3  A    between atoms: C_5  and  C_6
REMARK    4  A    between atoms: C_11  and  O_12
REMARK                            x       y       z     vdW  Elec       q    Type
REMARK                         _______ _______ _______ _____ _____    ______ ____
ROOT
ATOM      1  C   UNL     1       0.119   3.428 -22.878  0.00  0.00    +0.162 A 
ATOM      2  C   UNL     1       0.587   2.277 -22.494  0.00  0.00    +0.059 A 
ATOM      3  C   UNL     1       1.869   2.064 -22.491  0.00  0.00    +0.001 A 
ATOM      4  C   UNL     1       2.684   3.003 -22.872  0.00  0.00    +0.013 A 
ATOM      5  C   UNL     1       2.218   4.154 -23.256  0.00  0.00    +0.050 A 
ATOM      6  C   UNL     1       0.934   4.366 -23.259  0.00  0.00    +0.158 A 
ENDROOT
BRANCH   3   7
ATOM      7  C   UNL     1       2.336   0.914 -22.107  0.00  0.00    +0.072 C 
ATOM      8  O   UNL     1       2.672   0.730 -20.865  0.00  0.00    -0.545 OA
ATOM      9  O   UNL     1       2.468  -0.053 -22.966  0.00  0.00    -0.545 OA
ENDBRANCH   3   7
BRANCH   1  11
ATOM     10  C   UNL     1      -1.963   2.789 -23.450  0.00  0.00    +0.277 C 
ATOM     11  O   UNL     1      -1.164   3.641 -22.881  0.00  0.00    -0.491 OA
ENDBRANCH   1  11
BRANCH   6  12
ATOM     12  O   UNL     1       0.467   5.517 -23.643  0.00  0.00    -0.503 OA
ATOM     13  H   UNL     1       1.042   6.251 -23.730  0.00  0.00    +0.292 HD
ENDBRANCH   6  12
TORSDOF 3
ENDMDL
