MODEL 1
REMARK VINA RESULT:   -11.303      0.000      0.000
REMARK INTER + INTRA:         -12.109
REMARK INTER:                 -11.957
REMARK INTRA:                  -0.152
REMARK UNBOUND:                -0.144
REMARK  Name = COc1ccc2c3c1O[C@]1(C)C(=O)C=C[C@@]4(Br)[C@@H](C2)N(C)CC[C@@]314      ZINC000100393728
REMARK  4 active torsions:
REMARK  status: ('A' for Active; 'I' for Inactive)
REMARK    1  A    between atoms: C_1  and  O_2
REMARK    2  A    between atoms: O_2  and  C_3
REMARK    3  A    between atoms: C_10  and  C_11
REMARK    4  A    between atoms: N_20  and  C_21
REMARK                            x       y       z     vdW  Elec       q    Type
REMARK                         _______ _______ _______ _____ _____    ______ ____
ROOT
ATOM      1  C   UNL     1       0.448   2.191 -23.236  0.00  0.00    +0.162 A 
ATOM      2  C   UNL     1       0.393   1.836 -22.022  0.00  0.00    +0.050 A 
ATOM      3  C   UNL     1      -0.687   1.896 -21.390  0.00  0.00    +0.008 A 
ATOM      4  C   UNL     1      -1.722   2.310 -21.962  0.00  0.00    -0.034 A 
ATOM      5  C   UNL     1      -1.691   2.669 -23.173  0.00  0.00    +0.014 A 
ATOM      6  C   UNL     1      -2.726   3.082 -23.741  0.00  0.00    +0.075 C 
ATOM      7  C   UNL     1      -3.840   3.568 -24.492  0.00  0.00    +0.069 C 
ATOM      8  C   UNL     1      -5.071   3.646 -23.804  0.00  0.00    +0.132 C 
ATOM      9  N   UNL     1      -5.094   3.243 -22.455  0.00  0.00    +0.237 N 
ATOM     10  H   UNL     1      -5.964   3.284 -21.924  0.00  0.00    +0.203 HD
ATOM     11  C   UNL     1      -6.146   3.282 -21.776  0.00  0.00    +0.191 C 
ATOM     12  C   UNL     1      -3.864   2.787 -21.895  0.00  0.00    +0.090 C 
ATOM     13  C   UNL     1      -3.803   3.141 -23.109  0.00  0.00    +0.101 C 
ATOM     14 BR   UNL     1      -2.770   2.726 -22.533  0.00  0.00    -0.073 Br
ATOM     15  C   UNL     1      -4.855   3.557 -23.677  0.00  0.00    +0.001 C 
ATOM     16  C   UNL     1      -4.815   3.912 -24.881  0.00  0.00    +0.048 C 
ATOM     17  C   UNL     1      -3.729   3.857 -25.534  0.00  0.00    +0.200 C 
ATOM     18  O   UNL     1      -3.693   4.212 -26.733  0.00  0.00    -0.288 OA
ATOM     19  C   UNL     1      -2.687   3.443 -24.964  0.00  0.00    +0.181 C 
ATOM     20  C   UNL     1      -2.361   3.724 -26.143  0.00  0.00    +0.065 C 
ATOM     21  O   UNL     1      -1.210   3.136 -25.084  0.00  0.00    -0.473 OA
ATOM     22  C   UNL     1      -2.828   2.374 -21.325  0.00  0.00    +0.091 C 
ATOM     23  C   UNL     1      -0.602   2.610 -23.813  0.00  0.00    +0.168 A 
ENDROOT
BRANCH   1  25
ATOM     24  C   UNL     1       2.210   3.166 -24.046  0.00  0.00    +0.277 C 
ATOM     25  O   UNL     1       1.529   2.130 -23.864  0.00  0.00    -0.491 OA
ENDBRANCH   1  25
TORSDOF 1
ENDMDL
MODEL 2
REMARK VINA RESULT:   -10.785      1.950      3.122
REMARK INTER + INTRA:         -11.559
REMARK INTER:                 -11.442
REMARK INTRA:                  -0.117
REMARK UNBOUND:                -0.144
REMARK  Name = COc1ccc2c3c1O[C@]1(C)C(=O)C=C[C@@]4(Br)[C@@H](C2)N(C)CC[C@@]314      ZINC000100393728
REMARK  4 active torsions:
REMARK  status: ('A' for Active; 'I' for Inactive)
REMARK    1  A    between atoms: C_1  and  O_2
REMARK    2  A    between atoms: O_2  and  C_3
REMARK    3  A    between atoms: C_10  and  C_11
REMARK    4  A    between atoms: N_20  and  C_21
REMARK                            x       y       z     vdW  Elec       q    Type
REMARK                         _______ _______ _______ _____ _____    ______ ____
ROOT
ATOM      1  C   UNL     1       0.086   1.934 -21.704  0.00  0.00    +0.162 A 
ATOM      2  C   UNL     1       0.901   2.086 -22.661  0.00  0.00    +0.050 A 
ATOM      3  C   UNL     1       0.513   2.543 -23.761  0.00  0.00    +0.008 A 
ATOM      4  C   UNL     1      -0.690   2.854 -23.917  0.00  0.00    -0.034 A 
ATOM      5  C   UNL     1      -1.522   2.711 -22.976  0.00  0.00    +0.014 A 
ATOM      6  C   UNL     1      -2.723   3.022 -23.135  0.00  0.00    +0.075 C 
ATOM      7  C   UNL     1      -4.113   3.341 -23.201  0.00  0.00    +0.069 C 
ATOM      8  C   UNL     1      -4.579   3.859 -24.429  0.00  0.00    +0.132 C 
ATOM      9  N   UNL     1      -3.644   4.014 -25.471  0.00  0.00    +0.237 N 
ATOM     10  H   UNL     1      -3.941   4.386 -26.374  0.00  0.00    +0.203 HD
ATOM     11  C   UNL     1      -3.977   4.467 -26.590  0.00  0.00    +0.191 C 
ATOM     12  C   UNL     1      -2.298   3.632 -25.194  0.00  0.00    +0.090 C 
ATOM     13  C   UNL     1      -3.108   3.478 -24.234  0.00  0.00    +0.101 C 
ATOM     14 BR   UNL     1      -1.903   3.169 -24.081  0.00  0.00    -0.073 Br
ATOM     15  C   UNL     1      -4.322   3.795 -24.403  0.00  0.00    +0.001 C 
ATOM     16  C   UNL     1      -5.142   3.650 -23.462  0.00  0.00    +0.048 C 
ATOM     17  C   UNL     1      -4.764   3.188 -22.343  0.00  0.00    +0.200 C 
ATOM     18  O   UNL     1      -5.584   3.045 -21.409  0.00  0.00    -0.288 OA
ATOM     19  C   UNL     1      -3.557   2.875 -22.182  0.00  0.00    +0.181 C 
ATOM     20  C   UNL     1      -4.137   2.629 -21.096  0.00  0.00    +0.065 C 
ATOM     21  O   UNL     1      -2.500   2.330 -21.245  0.00  0.00    -0.473 OA
ATOM     22  C   UNL     1      -1.095   3.321 -25.035  0.00  0.00    +0.091 C 
ATOM     23  C   UNL     1      -1.133   2.249 -21.865  0.00  0.00    +0.168 A 
ENDROOT
BRANCH   1  25
ATOM     24  C   UNL     1       1.699   1.480 -20.324  0.00  0.00    +0.277 C 
ATOM     25  O   UNL     1       0.478   1.476 -20.607  0.00  0.00    -0.491 OA
ENDBRANCH   1  25
TORSDOF 1
ENDMDL
MODEL 3
REMARK VINA RESULT:   -10.747      2.135      5.396
REMARK INTER + INTRA:         -11.520
REMARK INTER:                 -11.403
REMARK INTRA:                  -0.117
REMARK UNBOUND:                -0.144
REMARK  Name = COc1ccc2c3c1O[C@]1(C)C(=O)C=C[C@@]4(Br)[C@@H](C2)N(C)CC[C@@]314      ZINC000100393728
REMARK  4 active torsions:
REMARK  status: ('A' for Active; 'I' for Inactive)
REMARK    1  A    between atoms: C_1  and  O_2
REMARK    2  A    between atoms: O_2  and  C_3
REMARK    3  A    between atoms: C_10  and  C_11
REMARK    4  A    between atoms: N_20  and  C_21
REMARK                            x       y       z     vdW  Elec       q    Type
REMARK                         _______ _______ _______ _____ _____    ______ ____
ROOT
ATOM      1  C   UNL     1      -4.628   3.718 -22.990  0.00  0.00    +0.162 A 
ATOM      2  C   UNL     1      -4.826   4.168 -24.157  0.00  0.00    +0.050 A 
ATOM      3  C   UNL     1      -3.899   4.177 -25.000  0.00  0.00    +0.008 A 
ATOM      4  C   UNL     1      -2.768   3.740 -24.688  0.00  0.00    -0.034 A 
ATOM      5  C   UNL     1      -2.548   3.286 -23.529  0.00  0.00    +0.014 A 
ATOM      6  C   UNL     1      -1.416   2.849 -23.221  0.00  0.00    +0.075 C 
ATOM      7  C   UNL     1      -0.171   2.327 -22.757  0.00  0.00    +0.069 C 
ATOM      8  C   UNL     1       0.892   2.325 -23.687  0.00  0.00    +0.132 C 
ATOM      9  N   UNL     1       0.635   2.833 -24.976  0.00  0.00    +0.237 N 
ATOM     10  H   UNL     1       1.377   2.849 -25.676  0.00  0.00    +0.203 HD
ATOM     11  C   UNL     1       1.524   2.866 -25.857  0.00  0.00    +0.191 C 
ATOM     12  C   UNL     1      -0.685   3.308 -25.232  0.00  0.00    +0.090 C 
ATOM     13  C   UNL     1      -0.493   2.860 -24.064  0.00  0.00    +0.101 C 
ATOM     14 BR   UNL     1      -1.624   3.299 -24.380  0.00  0.00    -0.073 Br
ATOM     15  C   UNL     1       0.654   2.419 -23.760  0.00  0.00    +0.001 C 
ATOM     16  C   UNL     1       0.864   1.970 -22.605  0.00  0.00    +0.048 C 
ATOM     17  C   UNL     1      -0.064   1.954 -21.742  0.00  0.00    +0.200 C 
ATOM     18  O   UNL     1       0.150   1.506 -20.593  0.00  0.00    -0.288 OA
ATOM     19  C   UNL     1      -1.201   2.393 -22.050  0.00  0.00    +0.181 C 
ATOM     20  C   UNL     1      -1.277   2.015 -20.855  0.00  0.00    +0.065 C 
ATOM     21  O   UNL     1      -2.622   2.663 -21.604  0.00  0.00    -0.473 OA
ATOM     22  C   UNL     1      -1.817   3.745 -25.542  0.00  0.00    +0.091 C 
ATOM     23  C   UNL     1      -3.481   3.275 -22.677  0.00  0.00    +0.168 A 
ENDROOT
BRANCH   1  25
ATOM     24  C   UNL     1      -6.029   2.623 -21.746  0.00  0.00    +0.277 C 
ATOM     25  O   UNL     1      -5.557   3.711 -22.150  0.00  0.00    -0.491 OA
ENDBRANCH   1  25
TORSDOF 1
ENDMDL
MODEL 4
REMARK VINA RESULT:   -10.709      2.048      4.936
REMARK INTER + INTRA:         -11.480
REMARK INTER:                 -11.364
REMARK INTRA:                  -0.116
REMARK UNBOUND:                -0.144
REMARK  Name = COc1ccc2c3c1O[C@]1(C)C(=O)C=C[C@@]4(Br)[C@@H](C2)N(C)CC[C@@]314      ZINC000100393728
REMARK  4 active torsions:
REMARK  status: ('A' for Active; 'I' for Inactive)
REMARK    1  A    between atoms: C_1  and  O_2
REMARK    2  A    between atoms: O_2  and  C_3
REMARK    3  A    between atoms: C_10  and  C_11
REMARK    4  A    between atoms: N_20  and  C_21
REMARK                            x       y       z     vdW  Elec       q    Type
REMARK                         _______ _______ _______ _____ _____    ______ ____
ROOT
ATOM      1  C   UNL     1      -3.456   3.232 -23.114  0.00  0.00    +0.162 A 
ATOM      2  C   UNL     1      -3.696   2.696 -21.992  0.00  0.00    +0.050 A 
ATOM      3  C   UNL     1      -2.776   2.159 -21.332  0.00  0.00    +0.008 A 
ATOM      4  C   UNL     1      -1.608   2.152 -21.785  0.00  0.00    -0.034 A 
ATOM      5  C   UNL     1      -1.344   2.680 -22.903  0.00  0.00    +0.014 A 
ATOM      6  C   UNL     1      -0.176   2.670 -23.352  0.00  0.00    +0.075 C 
ATOM      7  C   UNL     1       1.113   2.720 -23.963  0.00  0.00    +0.069 C 
ATOM      8  C   UNL     1       2.170   2.123 -23.242  0.00  0.00    +0.132 C 
ATOM      9  N   UNL     1       1.865   1.537 -21.997  0.00  0.00    +0.237 N 
ATOM     10  H   UNL     1       2.602   1.095 -21.446  0.00  0.00    +0.203 HD
ATOM     11  C   UNL     1       2.746   0.987 -21.297  0.00  0.00    +0.191 C 
ATOM     12  C   UNL     1       0.506   1.598 -21.570  0.00  0.00    +0.090 C 
ATOM     13  C   UNL     1       0.740   2.134 -22.692  0.00  0.00    +0.101 C 
ATOM     14 BR   UNL     1      -0.427   2.140 -22.236  0.00  0.00    -0.073 Br
ATOM     15  C   UNL     1       1.925   2.121 -23.140  0.00  0.00    +0.001 C 
ATOM     16  C   UNL     1       2.178   2.648 -24.252  0.00  0.00    +0.048 C 
ATOM     17  C   UNL     1       1.256   3.195 -24.930  0.00  0.00    +0.200 C 
ATOM     18  O   UNL     1       1.512   3.719 -26.037  0.00  0.00    -0.288 OA
ATOM     19  C   UNL     1       0.082   3.205 -24.480  0.00  0.00    +0.181 C 
ATOM     20  C   UNL     1       0.044   3.792 -25.589  0.00  0.00    +0.065 C 
ATOM     21  O   UNL     1      -1.358   3.619 -24.696  0.00  0.00    -0.473 OA
ATOM     22  C   UNL     1      -0.663   1.607 -21.119  0.00  0.00    +0.091 C 
ATOM     23  C   UNL     1      -2.271   3.222 -23.570  0.00  0.00    +0.168 A 
ENDROOT
BRANCH   1  25
ATOM     24  C   UNL     1      -5.554   3.737 -23.337  0.00  0.00    +0.277 C 
ATOM     25  O   UNL     1      -4.379   3.767 -23.769  0.00  0.00    -0.491 OA
ENDBRANCH   1  25
TORSDOF 1
ENDMDL
MODEL 5
REMARK VINA RESULT:    -9.977      3.069      6.761
REMARK INTER + INTRA:         -10.704
REMARK INTER:                 -10.586
REMARK INTRA:                  -0.118
REMARK UNBOUND:                -0.144
REMARK  Name = COc1ccc2c3c1O[C@]1(C)C(=O)C=C[C@@]4(Br)[C@@H](C2)N(C)CC[C@@]314      ZINC000100393728
REMARK  4 active torsions:
REMARK  status: ('A' for Active; 'I' for Inactive)
REMARK    1  A    between atoms: C_1  and  O_2
REMARK    2  A    between atoms: O_2  and  C_3
REMARK    3  A    between atoms: C_10  and  C_11
REMARK    4  A    between atoms: N_20  and  C_21
REMARK                            x       y       z     vdW  Elec       q    Type
REMARK                         _______ _______ _______ _____ _____    ______ ____
ROOT
ATOM      1  C   UNL     1      -1.148   3.212 -23.376  0.00  0.00    +0.162 A 
ATOM      2  C   UNL     1      -1.244   4.448 -23.630  0.00  0.00    +0.050 A 
ATOM      3  C   UNL     1      -0.225   5.177 -23.641  0.00  0.00    +0.008 A 
ATOM      4  C   UNL     1       0.898   4.680 -23.399  0.00  0.00    -0.034 A 
ATOM      5  C   UNL     1       1.019   3.448 -23.143  0.00  0.00    +0.014 A 
ATOM      6  C   UNL     1       2.144   2.955 -22.901  0.00  0.00    +0.075 C 
ATOM      7  C   UNL     1       3.370   2.284 -22.612  0.00  0.00    +0.069 C 
ATOM      8  C   UNL     1       4.536   3.081 -22.617  0.00  0.00    +0.132 C 
ATOM      9  N   UNL     1       4.390   4.453 -22.904  0.00  0.00    +0.237 N 
ATOM     10  H   UNL     1       5.208   5.062 -22.917  0.00  0.00    +0.203 HD
ATOM     11  C   UNL     1       5.375   5.226 -22.928  0.00  0.00    +0.191 C 
ATOM     12  C   UNL     1       3.068   4.921 -23.166  0.00  0.00    +0.090 C 
ATOM     13  C   UNL     1       3.159   3.684 -22.912  0.00  0.00    +0.101 C 
ATOM     14 BR   UNL     1       2.036   4.185 -23.155  0.00  0.00    -0.073 Br
ATOM     15  C   UNL     1       4.300   3.193 -22.669  0.00  0.00    +0.001 C 
ATOM     16  C   UNL     1       4.411   1.967 -22.416  0.00  0.00    +0.048 C 
ATOM     17  C   UNL     1       3.388   1.218 -22.401  0.00  0.00    +0.200 C 
ATOM     18  O   UNL     1       3.503  -0.002 -22.148  0.00  0.00    -0.288 OA
ATOM     19  C   UNL     1       2.258   1.712 -22.644  0.00  0.00    +0.181 C 
ATOM     20  C   UNL     1       2.074   0.489 -22.429  0.00  0.00    +0.065 C 
ATOM     21  O   UNL     1       0.771   1.470 -22.789  0.00  0.00    -0.473 OA
ATOM     22  C   UNL     1       1.943   5.416 -23.407  0.00  0.00    +0.091 C 
ATOM     23  C   UNL     1      -0.008   2.711 -23.131  0.00  0.00    +0.168 A 
ENDROOT
BRANCH   1  25
ATOM     24  C   UNL     1      -3.299   2.997 -23.188  0.00  0.00    +0.277 C 
ATOM     25  O   UNL     1      -2.169   2.487 -23.366  0.00  0.00    -0.491 OA
ENDBRANCH   1  25
TORSDOF 1
ENDMDL
MODEL 6
REMARK VINA RESULT:    -9.923      2.526      6.084
REMARK INTER + INTRA:         -10.648
REMARK INTER:                 -10.529
REMARK INTRA:                  -0.119
REMARK UNBOUND:                -0.144
REMARK  Name = COc1ccc2c3c1O[C@]1(C)C(=O)C=C[C@@]4(Br)[C@@H](C2)N(C)CC[C@@]314      ZINC000100393728
REMARK  4 active torsions:
REMARK  status: ('A' for Active; 'I' for Inactive)
REMARK    1  A    between atoms: C_1  and  O_2
REMARK    2  A    between atoms: O_2  and  C_3
REMARK    3  A    between atoms: C_10  and  C_11
REMARK    4  A    between atoms: N_20  and  C_21
REMARK                            x       y       z     vdW  Elec       q    Type
REMARK                         _______ _______ _______ _____ _____    ______ ____
ROOT
ATOM      1  C   UNL     1      -2.392   3.114 -24.460  0.00  0.00    +0.162 A 
ATOM      2  C   UNL     1      -2.041   3.579 -25.584  0.00  0.00    +0.050 A 
ATOM      3  C   UNL     1      -0.828   3.683 -25.880  0.00  0.00    +0.008 A 
ATOM      4  C   UNL     1       0.046   3.323 -25.058  0.00  0.00    -0.034 A 
ATOM      5  C   UNL     1      -0.280   2.855 -23.930  0.00  0.00    +0.014 A 
ATOM      6  C   UNL     1       0.596   2.497 -23.111  0.00  0.00    +0.075 C 
ATOM      7  C   UNL     1       1.504   2.057 -22.101  0.00  0.00    +0.069 C 
ATOM      8  C   UNL     1       2.879   2.162 -22.407  0.00  0.00    +0.132 C 
ATOM      9  N   UNL     1       3.231   2.684 -23.667  0.00  0.00    +0.237 N 
ATOM     10  H   UNL     1       4.214   2.776 -23.925  0.00  0.00    +0.203 HD
ATOM     11  C   UNL     1       4.428   2.809 -24.014  0.00  0.00    +0.191 C 
ATOM     12  C   UNL     1       2.162   3.065 -24.531  0.00  0.00    +0.090 C 
ATOM     13  C   UNL     1       1.806   2.601 -23.408  0.00  0.00    +0.101 C 
ATOM     14 BR   UNL     1       0.934   2.962 -24.233  0.00  0.00    -0.073 Br
ATOM     15  C   UNL     1       2.698   2.240 -22.585  0.00  0.00    +0.001 C 
ATOM     16  C   UNL     1       2.365   1.777 -21.467  0.00  0.00    +0.048 C 
ATOM     17  C   UNL     1       1.141   1.667 -21.154  0.00  0.00    +0.200 C 
ATOM     18  O   UNL     1       0.812   1.204 -20.038  0.00  0.00    -0.288 OA
ATOM     19  C   UNL     1       0.259   2.026 -21.976  0.00  0.00    +0.181 C 
ATOM     20  C   UNL     1      -0.349   1.611 -20.959  0.00  0.00    +0.065 C 
ATOM     21  O   UNL     1      -1.218   2.175 -22.270  0.00  0.00    -0.473 OA
ATOM     22  C   UNL     1       1.286   3.424 -25.351  0.00  0.00    +0.091 C 
ATOM     23  C   UNL     1      -1.504   2.751 -23.629  0.00  0.00    +0.168 A 
ENDROOT
BRANCH   1  25
ATOM     24  C   UNL     1      -4.446   3.769 -24.709  0.00  0.00    +0.277 C 
ATOM     25  O   UNL     1      -3.605   3.013 -24.169  0.00  0.00    -0.491 OA
ENDBRANCH   1  25
TORSDOF 1
ENDMDL
MODEL 7
REMARK VINA RESULT:    -9.756      1.844      2.914
REMARK INTER + INTRA:         -10.470
REMARK INTER:                 -10.339
REMARK INTRA:                  -0.132
REMARK UNBOUND:                -0.144
REMARK  Name = COc1ccc2c3c1O[C@]1(C)C(=O)C=C[C@@]4(Br)[C@@H](C2)N(C)CC[C@@]314      ZINC000100393728
REMARK  4 active torsions:
REMARK  status: ('A' for Active; 'I' for Inactive)
REMARK    1  A    between atoms: C_1  and  O_2
REMARK    2  A    between atoms: O_2  and  C_3
REMARK    3  A    between atoms: C_10  and  C_11
REMARK    4  A    between atoms: N_20  and  C_21
REMARK                            x       y       z     vdW  Elec       q    Type
REMARK                         _______ _______ _______ _____ _____    ______ ____
ROOT
ATOM      1  C   UNL     1       3.327   2.157 -23.115  0.00  0.00    +0.162 A 
ATOM      2  C   UNL     1       3.448   1.665 -21.955  0.00  0.00    +0.050 A 
ATOM      3  C   UNL     1       2.440   1.476 -21.235  0.00  0.00    +0.008 A 
ATOM      4  C   UNL     1       1.303   1.776 -21.665  0.00  0.00    -0.034 A 
ATOM      5  C   UNL     1       1.157   2.269 -22.820  0.00  0.00    +0.014 A 
ATOM      6  C   UNL     1       0.019   2.567 -23.246  0.00  0.00    +0.075 C 
ATOM      7  C   UNL     1      -1.224   2.945 -23.837  0.00  0.00    +0.069 C 
ATOM      8  C   UNL     1      -2.378   2.744 -23.048  0.00  0.00    +0.132 C 
ATOM      9  N   UNL     1      -2.205   2.195 -21.763  0.00  0.00    +0.237 N 
ATOM     10  H   UNL     1      -3.014   2.034 -21.162  0.00  0.00    +0.203 HD
ATOM     11  C   UNL     1      -3.177   1.985 -21.002  0.00  0.00    +0.191 C 
ATOM     12  C   UNL     1      -0.870   1.887 -21.366  0.00  0.00    +0.090 C 
ATOM     13  C   UNL     1      -0.985   2.379 -22.527  0.00  0.00    +0.101 C 
ATOM     14 BR   UNL     1       0.152   2.077 -22.093  0.00  0.00    -0.073 Br
ATOM     15  C   UNL     1      -2.140   2.678 -22.951  0.00  0.00    +0.001 C 
ATOM     16  C   UNL     1      -2.275   3.167 -24.100  0.00  0.00    +0.048 C 
ATOM     17  C   UNL     1      -1.263   3.363 -24.840  0.00  0.00    +0.200 C 
ATOM     18  O   UNL     1      -1.402   3.851 -25.984  0.00  0.00    -0.288 OA
ATOM     19  C   UNL     1      -0.119   3.064 -24.412  0.00  0.00    +0.181 C 
ATOM     20  C   UNL     1       0.041   3.524 -25.569  0.00  0.00    +0.065 C 
ATOM     21  O   UNL     1       1.368   3.018 -24.689  0.00  0.00    -0.473 OA
ATOM     22  C   UNL     1       0.269   1.588 -20.938  0.00  0.00    +0.091 C 
ATOM     23  C   UNL     1       2.173   2.460 -23.548  0.00  0.00    +0.168 A 
ENDROOT
BRANCH   1  25
ATOM     24  C   UNL     1       5.261   3.090 -23.432  0.00  0.00    +0.277 C 
ATOM     25  O   UNL     1       4.337   2.343 -23.831  0.00  0.00    -0.491 OA
ENDBRANCH   1  25
TORSDOF 1
ENDMDL
MODEL 8
REMARK VINA RESULT:    -8.869      1.185      4.120
REMARK INTER + INTRA:          -9.532
REMARK INTER:                  -9.414
REMARK INTRA:                  -0.117
REMARK UNBOUND:                -0.144
REMARK  Name = COc1ccc2c3c1O[C@]1(C)C(=O)C=C[C@@]4(Br)[C@@H](C2)N(C)CC[C@@]314      ZINC000100393728
REMARK  4 active torsions:
REMARK  status: ('A' for Active; 'I' for Inactive)
REMARK    1  A    between atoms: C_1  and  O_2
REMARK    2  A    between atoms: O_2  and  C_3
REMARK    3  A    between atoms: C_10  and  C_11
REMARK    4  A    between atoms: N_20  and  C_21
REMARK                            x       y       z     vdW  Elec       q    Type
REMARK                         _______ _______ _______ _____ _____    ______ ____
ROOT
ATOM      1  C   UNL     1      -3.344   3.507 -26.385  0.00  0.00    +0.162 A 
ATOM      2  C   UNL     1      -4.565   3.778 -26.189  0.00  0.00    +0.050 A 
ATOM      3  C   UNL     1      -5.035   3.792 -25.027  0.00  0.00    +0.008 A 
ATOM      4  C   UNL     1      -4.292   3.535 -24.052  0.00  0.00    -0.034 A 
ATOM      5  C   UNL     1      -3.070   3.262 -24.224  0.00  0.00    +0.014 A 
ATOM      6  C   UNL     1      -2.331   3.006 -23.247  0.00  0.00    +0.075 C 
ATOM      7  C   UNL     1      -1.395   2.699 -22.213  0.00  0.00    +0.069 C 
ATOM      8  C   UNL     1      -1.897   2.707 -20.893  0.00  0.00    +0.132 C 
ATOM      9  N   UNL     1      -3.260   3.014 -20.712  0.00  0.00    +0.237 N 
ATOM     10  H   UNL     1      -3.660   3.030 -19.774  0.00  0.00    +0.203 HD
ATOM     11  C   UNL     1      -3.781   3.041 -19.574  0.00  0.00    +0.191 C 
ATOM     12  C   UNL     1      -4.022   3.291 -21.887  0.00  0.00    +0.090 C 
ATOM     13  C   UNL     1      -2.802   3.020 -22.089  0.00  0.00    +0.101 C 
ATOM     14 BR   UNL     1      -3.548   3.277 -23.063  0.00  0.00    -0.073 Br
ATOM     15  C   UNL     1      -2.060   2.763 -21.096  0.00  0.00    +0.001 C 
ATOM     16  C   UNL     1      -0.847   2.492 -21.276  0.00  0.00    +0.048 C 
ATOM     17  C   UNL     1      -0.358   2.474 -22.446  0.00  0.00    +0.200 C 
ATOM     18  O   UNL     1       0.851   2.204 -22.622  0.00  0.00    -0.288 OA
ATOM     19  C   UNL     1      -1.100   2.731 -23.429  0.00  0.00    +0.181 C 
ATOM     20  C   UNL     1       0.043   2.501 -23.895  0.00  0.00    +0.065 C 
ATOM     21  O   UNL     1      -1.211   2.883 -24.930  0.00  0.00    -0.473 OA
ATOM     22  C   UNL     1      -4.763   3.547 -22.863  0.00  0.00    +0.091 C 
ATOM     23  C   UNL     1      -2.594   3.247 -25.395  0.00  0.00    +0.168 A 
ENDROOT
BRANCH   1  25
ATOM     24  C   UNL     1      -3.651   3.419 -28.532  0.00  0.00    +0.277 C 
ATOM     25  O   UNL     1      -2.879   3.494 -27.548  0.00  0.00    -0.491 OA
ENDBRANCH   1  25
TORSDOF 1
ENDMDL
MODEL 9
REMARK VINA RESULT:    -8.563      4.192      6.485
REMARK INTER + INTRA:          -9.208
REMARK INTER:                  -9.063
REMARK INTRA:                  -0.144
REMARK UNBOUND:                -0.144
REMARK  Name = COc1ccc2c3c1O[C@]1(C)C(=O)C=C[C@@]4(Br)[C@@H](C2)N(C)CC[C@@]314      ZINC000100393728
REMARK  4 active torsions:
REMARK  status: ('A' for Active; 'I' for Inactive)
REMARK    1  A    between atoms: C_1  and  O_2
REMARK    2  A    between atoms: O_2  and  C_3
REMARK    3  A    between atoms: C_10  and  C_11
REMARK    4  A    between atoms: N_20  and  C_21
REMARK                            x       y       z     vdW  Elec       q    Type
REMARK                         _______ _______ _______ _____ _____    ______ ____
ROOT
ATOM      1  C   UNL     1       6.397   3.989 -22.736  0.00  0.00    +0.162 A 
ATOM      2  C   UNL     1       6.301   5.250 -22.775  0.00  0.00    +0.050 A 
ATOM      3  C   UNL     1       5.181   5.800 -22.885  0.00  0.00    +0.008 A 
ATOM      4  C   UNL     1       4.146   5.097 -22.956  0.00  0.00    -0.034 A 
ATOM      5  C   UNL     1       4.218   3.836 -22.918  0.00  0.00    +0.014 A 
ATOM      6  C   UNL     1       3.182   3.137 -22.990  0.00  0.00    +0.075 C 
ATOM      7  C   UNL     1       2.074   2.240 -23.062  0.00  0.00    +0.069 C 
ATOM      8  C   UNL     1       0.798   2.832 -23.186  0.00  0.00    +0.132 C 
ATOM      9  N   UNL     1       0.729   4.238 -23.227  0.00  0.00    +0.237 N 
ATOM     10  H   UNL     1      -0.174   4.704 -23.316  0.00  0.00    +0.203 HD
ATOM     11  C   UNL     1      -0.364   4.839 -23.336  0.00  0.00    +0.191 C 
ATOM     12  C   UNL     1       1.963   4.948 -23.139  0.00  0.00    +0.090 C 
ATOM     13  C   UNL     1       2.065   3.687 -23.099  0.00  0.00    +0.101 C 
ATOM     14 BR   UNL     1       3.098   4.394 -23.028  0.00  0.00    -0.073 Br
ATOM     15  C   UNL     1       1.013   2.987 -23.172  0.00  0.00    +0.001 C 
ATOM     16  C   UNL     1       1.094   1.734 -23.133  0.00  0.00    +0.048 C 
ATOM     17  C   UNL     1       2.221   1.164 -23.023  0.00  0.00    +0.200 C 
ATOM     18  O   UNL     1       2.297  -0.085 -22.985  0.00  0.00    -0.288 OA
ATOM     19  C   UNL     1       3.262   1.865 -22.951  0.00  0.00    +0.181 C 
ATOM     20  C   UNL     1       3.634   0.667 -22.889  0.00  0.00    +0.065 C 
ATOM     21  O   UNL     1       4.770   1.890 -22.823  0.00  0.00    -0.473 OA
ATOM     22  C   UNL     1       2.999   5.649 -23.068  0.00  0.00    +0.091 C 
ATOM     23  C   UNL     1       5.347   3.279 -22.808  0.00  0.00    +0.168 A 
ENDROOT
BRANCH   1  25
ATOM     24  C   UNL     1       8.275   3.356 -23.622  0.00  0.00    +0.277 C 
ATOM     25  O   UNL     1       7.519   3.444 -22.626  0.00  0.00    -0.491 OA
ENDBRANCH   1  25
TORSDOF 1
ENDMDL
