MODEL 1
REMARK VINA RESULT:    -9.865      0.000      0.000
REMARK INTER + INTRA:          -9.865
REMARK INTER:                  -9.865
REMARK INTRA:                   0.000
REMARK UNBOUND:                 0.000
REMARK  Name = ZINC000005133859
REMARK  0 active torsions:
REMARK  status: ('A' for Active; 'I' for Inactive)
REMARK                            x       y       z     vdW  Elec       q    Type
REMARK                         _______ _______ _______ _____ _____    ______ ____
ROOT
ATOM      1  C   UNL     1      -1.108   1.983 -21.379  0.00  0.00    -0.013 C 
ATOM      2  C   UNL     1      -0.027   1.969 -22.100  0.00  0.00    -0.025 C 
ATOM      3  C   UNL     1       1.084   1.522 -21.595  0.00  0.00    +0.041 C 
ATOM      4  C   UNL     1       2.167   1.507 -22.315  0.00  0.00    +0.055 C 
ATOM      5  C   UNL     1       2.137   1.939 -23.541  0.00  0.00    +0.130 C 
ATOM      6  N   UNL     1       1.025   2.387 -24.046  0.00  0.00    +0.233 N 
ATOM      7  H   UNL     1       1.219   3.377 -24.199  0.00  0.00    +0.202 HD
ATOM      8  H   UNL     1       0.825   1.816 -24.868  0.00  0.00    +0.202 HD
ATOM      9  C   UNL     1      -0.056   2.401 -23.325  0.00  0.00    +0.097 C 
ATOM     10  C   UNL     1      -1.167   2.848 -23.830  0.00  0.00    +0.088 C 
ATOM     11  C   UNL     1      -2.250   2.863 -23.110  0.00  0.00    +0.027 C 
ATOM     12  C   UNL     1      -2.279   3.295 -24.336  0.00  0.00    +0.141 C 
ATOM     13  N   UNL     1      -3.361   3.309 -23.615  0.00  0.00    +0.238 N 
ATOM     14  H   UNL     1      -4.049   3.700 -24.257  0.00  0.00    +0.204 HD
ATOM     15  C   UNL     1      -4.472   3.756 -24.119  0.00  0.00    +0.131 C 
ATOM     16  C   UNL     1      -5.555   3.771 -23.399  0.00  0.00    +0.051 C 
ATOM     17  C   UNL     1      -5.525   3.338 -22.174  0.00  0.00    +0.011 C 
ATOM     18  C   UNL     1      -4.413   2.891 -21.668  0.00  0.00    +0.055 C 
ATOM     19  C   UNL     1      -3.331   2.877 -22.389  0.00  0.00    +0.071 C 
ATOM     20  C   UNL     1      -2.220   2.430 -21.884  0.00  0.00    +0.061 C 
ENDROOT
TORSDOF 0
ENDMDL
MODEL 2
REMARK VINA RESULT:    -9.661      0.638      5.052
REMARK INTER + INTRA:          -9.661
REMARK INTER:                  -9.661
REMARK INTRA:                   0.000
REMARK UNBOUND:                 0.000
REMARK  Name = ZINC000005133859
REMARK  0 active torsions:
REMARK  status: ('A' for Active; 'I' for Inactive)
REMARK                            x       y       z     vdW  Elec       q    Type
REMARK                         _______ _______ _______ _____ _____    ______ ____
ROOT
ATOM      1  C   UNL     1      -2.532   2.268 -21.325  0.00  0.00    -0.013 C 
ATOM      2  C   UNL     1      -3.453   2.783 -22.084  0.00  0.00    -0.025 C 
ATOM      3  C   UNL     1      -4.669   2.902 -21.641  0.00  0.00    +0.041 C 
ATOM      4  C   UNL     1      -5.590   3.417 -22.400  0.00  0.00    +0.055 C 
ATOM      5  C   UNL     1      -5.295   3.812 -23.603  0.00  0.00    +0.130 C 
ATOM      6  N   UNL     1      -4.079   3.693 -24.047  0.00  0.00    +0.233 N 
ATOM      7  H   UNL     1      -4.170   3.011 -24.800  0.00  0.00    +0.202 HD
ATOM      8  H   UNL     1      -3.764   4.630 -24.298  0.00  0.00    +0.202 HD
ATOM      9  C   UNL     1      -3.158   3.178 -23.287  0.00  0.00    +0.097 C 
ATOM     10  C   UNL     1      -1.942   3.058 -23.730  0.00  0.00    +0.088 C 
ATOM     11  C   UNL     1      -1.020   2.543 -22.972  0.00  0.00    +0.027 C 
ATOM     12  C   UNL     1      -0.725   2.939 -24.174  0.00  0.00    +0.141 C 
ATOM     13  N   UNL     1       0.195   2.424 -23.415  0.00  0.00    +0.238 N 
ATOM     14  H   UNL     1       1.020   2.458 -24.014  0.00  0.00    +0.204 HD
ATOM     15  C   UNL     1       1.411   2.304 -23.858  0.00  0.00    +0.131 C 
ATOM     16  C   UNL     1       2.333   1.789 -23.099  0.00  0.00    +0.051 C 
ATOM     17  C   UNL     1       2.038   1.394 -21.896  0.00  0.00    +0.011 C 
ATOM     18  C   UNL     1       0.821   1.514 -21.452  0.00  0.00    +0.055 C 
ATOM     19  C   UNL     1      -0.099   2.029 -22.212  0.00  0.00    +0.071 C 
ATOM     20  C   UNL     1      -1.315   2.148 -21.769  0.00  0.00    +0.061 C 
ENDROOT
TORSDOF 0
ENDMDL
MODEL 3
REMARK VINA RESULT:    -9.650      1.198      2.384
REMARK INTER + INTRA:          -9.650
REMARK INTER:                  -9.650
REMARK INTRA:                   0.000
REMARK UNBOUND:                 0.000
REMARK  Name = ZINC000005133859
REMARK  0 active torsions:
REMARK  status: ('A' for Active; 'I' for Inactive)
REMARK                            x       y       z     vdW  Elec       q    Type
REMARK                         _______ _______ _______ _____ _____    ______ ____
ROOT
ATOM      1  C   UNL     1      -1.788   3.847 -24.774  0.00  0.00    -0.013 C 
ATOM      2  C   UNL     1      -0.565   3.476 -24.537  0.00  0.00    -0.025 C 
ATOM      3  C   UNL     1       0.375   3.754 -25.389  0.00  0.00    +0.041 C 
ATOM      4  C   UNL     1       1.599   3.383 -25.153  0.00  0.00    +0.055 C 
ATOM      5  C   UNL     1       1.881   2.732 -24.063  0.00  0.00    +0.130 C 
ATOM      6  N   UNL     1       0.940   2.453 -23.210  0.00  0.00    +0.233 N 
ATOM      7  H   UNL     1       0.886   1.434 -23.245  0.00  0.00    +0.202 HD
ATOM      8  H   UNL     1       1.210   2.878 -22.323  0.00  0.00    +0.202 HD
ATOM      9  C   UNL     1      -0.283   2.825 -23.448  0.00  0.00    +0.097 C 
ATOM     10  C   UNL     1      -1.224   2.546 -22.595  0.00  0.00    +0.088 C 
ATOM     11  C   UNL     1      -2.447   2.917 -22.832  0.00  0.00    +0.027 C 
ATOM     12  C   UNL     1      -2.165   2.266 -21.742  0.00  0.00    +0.141 C 
ATOM     13  N   UNL     1      -3.388   2.638 -21.979  0.00  0.00    +0.238 N 
ATOM     14  H   UNL     1      -3.887   2.290 -21.161  0.00  0.00    +0.204 HD
ATOM     15  C   UNL     1      -4.329   2.359 -21.127  0.00  0.00    +0.131 C 
ATOM     16  C   UNL     1      -5.552   2.731 -21.364  0.00  0.00    +0.051 C 
ATOM     17  C   UNL     1      -5.834   3.382 -22.453  0.00  0.00    +0.011 C 
ATOM     18  C   UNL     1      -4.893   3.661 -23.306  0.00  0.00    +0.055 C 
ATOM     19  C   UNL     1      -3.670   3.289 -23.069  0.00  0.00    +0.071 C 
ATOM     20  C   UNL     1      -2.729   3.568 -23.921  0.00  0.00    +0.061 C 
ENDROOT
TORSDOF 0
ENDMDL
MODEL 4
REMARK VINA RESULT:    -9.517      1.051      2.042
REMARK INTER + INTRA:          -9.517
REMARK INTER:                  -9.517
REMARK INTRA:                   0.000
REMARK UNBOUND:                 0.000
REMARK  Name = ZINC000005133859
REMARK  0 active torsions:
REMARK  status: ('A' for Active; 'I' for Inactive)
REMARK                            x       y       z     vdW  Elec       q    Type
REMARK                         _______ _______ _______ _____ _____    ______ ____
ROOT
ATOM      1  C   UNL     1      -0.596   2.798 -23.955  0.00  0.00    -0.013 C 
ATOM      2  C   UNL     1       0.210   2.299 -23.065  0.00  0.00    -0.025 C 
ATOM      3  C   UNL     1       1.461   2.104 -23.358  0.00  0.00    +0.041 C 
ATOM      4  C   UNL     1       2.268   1.605 -22.469  0.00  0.00    +0.055 C 
ATOM      5  C   UNL     1       1.823   1.302 -21.286  0.00  0.00    +0.130 C 
ATOM      6  N   UNL     1       0.571   1.497 -20.992  0.00  0.00    +0.233 N 
ATOM      7  H   UNL     1       0.212   0.552 -20.855  0.00  0.00    +0.202 HD
ATOM      8  H   UNL     1       0.552   2.127 -20.190  0.00  0.00    +0.202 HD
ATOM      9  C   UNL     1      -0.235   1.996 -21.882  0.00  0.00    +0.097 C 
ATOM     10  C   UNL     1      -1.486   2.191 -21.589  0.00  0.00    +0.088 C 
ATOM     11  C   UNL     1      -2.293   2.690 -22.478  0.00  0.00    +0.027 C 
ATOM     12  C   UNL     1      -2.738   2.386 -21.295  0.00  0.00    +0.141 C 
ATOM     13  N   UNL     1      -3.544   2.885 -22.184  0.00  0.00    +0.238 N 
ATOM     14  H   UNL     1      -4.431   2.922 -21.683  0.00  0.00    +0.204 HD
ATOM     15  C   UNL     1      -4.795   3.080 -21.891  0.00  0.00    +0.131 C 
ATOM     16  C   UNL     1      -5.602   3.579 -22.780  0.00  0.00    +0.051 C 
ATOM     17  C   UNL     1      -5.156   3.883 -23.963  0.00  0.00    +0.011 C 
ATOM     18  C   UNL     1      -3.904   3.688 -24.257  0.00  0.00    +0.055 C 
ATOM     19  C   UNL     1      -3.099   3.189 -23.368  0.00  0.00    +0.071 C 
ATOM     20  C   UNL     1      -1.848   2.994 -23.661  0.00  0.00    +0.061 C 
ENDROOT
TORSDOF 0
ENDMDL
MODEL 5
REMARK VINA RESULT:    -9.274      1.289      5.342
REMARK INTER + INTRA:          -9.274
REMARK INTER:                  -9.274
REMARK INTRA:                   0.000
REMARK UNBOUND:                 0.000
REMARK  Name = ZINC000005133859
REMARK  0 active torsions:
REMARK  status: ('A' for Active; 'I' for Inactive)
REMARK                            x       y       z     vdW  Elec       q    Type
REMARK                         _______ _______ _______ _____ _____    ______ ____
ROOT
ATOM      1  C   UNL     1      -3.056   3.864 -24.313  0.00  0.00    -0.013 C 
ATOM      2  C   UNL     1      -3.800   3.482 -23.318  0.00  0.00    -0.025 C 
ATOM      3  C   UNL     1      -5.082   3.691 -23.348  0.00  0.00    +0.041 C 
ATOM      4  C   UNL     1      -5.828   3.310 -22.354  0.00  0.00    +0.055 C 
ATOM      5  C   UNL     1      -5.290   2.718 -21.329  0.00  0.00    +0.130 C 
ATOM      6  N   UNL     1      -4.007   2.508 -21.298  0.00  0.00    +0.233 N 
ATOM      7  H   UNL     1      -3.691   3.099 -20.528  0.00  0.00    +0.202 HD
ATOM      8  H   UNL     1      -3.875   1.501 -21.201  0.00  0.00    +0.202 HD
ATOM      9  C   UNL     1      -3.262   2.890 -22.293  0.00  0.00    +0.097 C 
ATOM     10  C   UNL     1      -1.980   2.681 -22.263  0.00  0.00    +0.088 C 
ATOM     11  C   UNL     1      -1.234   3.063 -23.257  0.00  0.00    +0.027 C 
ATOM     12  C   UNL     1      -0.697   2.471 -22.232  0.00  0.00    +0.141 C 
ATOM     13  N   UNL     1       0.048   2.853 -23.227  0.00  0.00    +0.238 N 
ATOM     14  H   UNL     1       0.979   2.564 -22.929  0.00  0.00    +0.204 HD
ATOM     15  C   UNL     1       1.330   2.644 -23.196  0.00  0.00    +0.131 C 
ATOM     16  C   UNL     1       2.076   3.025 -24.191  0.00  0.00    +0.051 C 
ATOM     17  C   UNL     1       1.538   3.617 -25.216  0.00  0.00    +0.011 C 
ATOM     18  C   UNL     1       0.254   3.827 -25.247  0.00  0.00    +0.055 C 
ATOM     19  C   UNL     1      -0.490   3.445 -24.252  0.00  0.00    +0.071 C 
ATOM     20  C   UNL     1      -1.772   3.654 -24.282  0.00  0.00    +0.061 C 
ENDROOT
TORSDOF 0
ENDMDL
MODEL 6
REMARK VINA RESULT:    -8.350      1.233      5.568
REMARK INTER + INTRA:          -8.350
REMARK INTER:                  -8.350
REMARK INTRA:                   0.000
REMARK UNBOUND:                 0.000
REMARK  Name = ZINC000005133859
REMARK  0 active torsions:
REMARK  status: ('A' for Active; 'I' for Inactive)
REMARK                            x       y       z     vdW  Elec       q    Type
REMARK                         _______ _______ _______ _____ _____    ______ ____
ROOT
ATOM      1  C   UNL     1      -0.530   4.159 -24.143  0.00  0.00    -0.013 C 
ATOM      2  C   UNL     1      -1.771   3.876 -23.881  0.00  0.00    -0.025 C 
ATOM      3  C   UNL     1      -2.725   4.481 -24.522  0.00  0.00    +0.041 C 
ATOM      4  C   UNL     1      -3.967   4.199 -24.260  0.00  0.00    +0.055 C 
ATOM      5  C   UNL     1      -4.254   3.310 -23.356  0.00  0.00    +0.130 C 
ATOM      6  N   UNL     1      -3.299   2.703 -22.714  0.00  0.00    +0.233 N 
ATOM      7  H   UNL     1      -3.417   3.031 -21.755  0.00  0.00    +0.202 HD
ATOM      8  H   UNL     1      -3.417   1.705 -22.886  0.00  0.00    +0.202 HD
ATOM      9  C   UNL     1      -2.058   2.987 -22.977  0.00  0.00    +0.097 C 
ATOM     10  C   UNL     1      -1.104   2.381 -22.335  0.00  0.00    +0.088 C 
ATOM     11  C   UNL     1       0.138   2.663 -22.597  0.00  0.00    +0.027 C 
ATOM     12  C   UNL     1      -0.149   1.774 -21.693  0.00  0.00    +0.141 C 
ATOM     13  N   UNL     1       1.092   2.058 -21.955  0.00  0.00    +0.238 N 
ATOM     14  H   UNL     1       1.598   1.445 -21.317  0.00  0.00    +0.204 HD
ATOM     15  C   UNL     1       2.046   1.452 -21.314  0.00  0.00    +0.131 C 
ATOM     16  C   UNL     1       3.288   1.734 -21.576  0.00  0.00    +0.051 C 
ATOM     17  C   UNL     1       3.575   2.623 -22.480  0.00  0.00    +0.011 C 
ATOM     18  C   UNL     1       2.621   3.230 -23.122  0.00  0.00    +0.055 C 
ATOM     19  C   UNL     1       1.379   2.947 -22.859  0.00  0.00    +0.071 C 
ATOM     20  C   UNL     1       0.425   3.552 -23.501  0.00  0.00    +0.061 C 
ENDROOT
TORSDOF 0
ENDMDL
MODEL 7
REMARK VINA RESULT:    -8.090      1.476      2.414
REMARK INTER + INTRA:          -8.090
REMARK INTER:                  -8.090
REMARK INTRA:                   0.000
REMARK UNBOUND:                 0.000
REMARK  Name = ZINC000005133859
REMARK  0 active torsions:
REMARK  status: ('A' for Active; 'I' for Inactive)
REMARK                            x       y       z     vdW  Elec       q    Type
REMARK                         _______ _______ _______ _____ _____    ______ ____
ROOT
ATOM      1  C   UNL     1       1.310   1.500 -21.633  0.00  0.00    -0.013 C 
ATOM      2  C   UNL     1       2.361   1.949 -22.251  0.00  0.00    -0.025 C 
ATOM      3  C   UNL     1       3.527   1.424 -22.016  0.00  0.00    +0.041 C 
ATOM      4  C   UNL     1       4.579   1.873 -22.634  0.00  0.00    +0.055 C 
ATOM      5  C   UNL     1       4.465   2.847 -23.487  0.00  0.00    +0.130 C 
ATOM      6  N   UNL     1       3.299   3.373 -23.722  0.00  0.00    +0.233 N 
ATOM      7  H   UNL     1       3.394   4.324 -23.364  0.00  0.00    +0.202 HD
ATOM      8  H   UNL     1       3.123   3.264 -24.721  0.00  0.00    +0.202 HD
ATOM      9  C   UNL     1       2.247   2.924 -23.104  0.00  0.00    +0.097 C 
ATOM     10  C   UNL     1       1.082   3.449 -23.339  0.00  0.00    +0.088 C 
ATOM     11  C   UNL     1       0.030   3.000 -22.721  0.00  0.00    +0.027 C 
ATOM     12  C   UNL     1      -0.084   3.975 -23.574  0.00  0.00    +0.141 C 
ATOM     13  N   UNL     1      -1.136   3.525 -22.956  0.00  0.00    +0.238 N 
ATOM     14  H   UNL     1      -1.880   4.112 -23.332  0.00  0.00    +0.204 HD
ATOM     15  C   UNL     1      -2.301   4.050 -23.191  0.00  0.00    +0.131 C 
ATOM     16  C   UNL     1      -3.354   3.602 -22.573  0.00  0.00    +0.051 C 
ATOM     17  C   UNL     1      -3.240   2.627 -21.720  0.00  0.00    +0.011 C 
ATOM     18  C   UNL     1      -2.073   2.101 -21.485  0.00  0.00    +0.055 C 
ATOM     19  C   UNL     1      -1.022   2.551 -22.103  0.00  0.00    +0.071 C 
ATOM     20  C   UNL     1       0.143   2.026 -21.868  0.00  0.00    +0.061 C 
ENDROOT
TORSDOF 0
ENDMDL
MODEL 8
REMARK VINA RESULT:    -8.087      1.727      2.909
REMARK INTER + INTRA:          -8.087
REMARK INTER:                  -8.087
REMARK INTRA:                   0.000
REMARK UNBOUND:                 0.000
REMARK  Name = ZINC000005133859
REMARK  0 active torsions:
REMARK  status: ('A' for Active; 'I' for Inactive)
REMARK                            x       y       z     vdW  Elec       q    Type
REMARK                         _______ _______ _______ _____ _____    ______ ____
ROOT
ATOM      1  C   UNL     1       1.388   4.391 -23.886  0.00  0.00    -0.013 C 
ATOM      2  C   UNL     1       2.253   3.655 -23.253  0.00  0.00    -0.025 C 
ATOM      3  C   UNL     1       3.522   3.917 -23.347  0.00  0.00    +0.041 C 
ATOM      4  C   UNL     1       4.388   3.182 -22.714  0.00  0.00    +0.055 C 
ATOM      5  C   UNL     1       3.983   2.182 -21.988  0.00  0.00    +0.130 C 
ATOM      6  N   UNL     1       2.712   1.919 -21.894  0.00  0.00    +0.233 N 
ATOM      7  H   UNL     1       2.627   1.011 -22.351  0.00  0.00    +0.202 HD
ATOM      8  H   UNL     1       2.474   1.970 -20.903  0.00  0.00    +0.202 HD
ATOM      9  C   UNL     1       1.848   2.655 -22.527  0.00  0.00    +0.097 C 
ATOM     10  C   UNL     1       0.579   2.393 -22.433  0.00  0.00    +0.088 C 
ATOM     11  C   UNL     1      -0.287   3.128 -23.065  0.00  0.00    +0.027 C 
ATOM     12  C   UNL     1      -0.692   2.129 -22.339  0.00  0.00    +0.141 C 
ATOM     13  N   UNL     1      -1.556   2.866 -22.972  0.00  0.00    +0.238 N 
ATOM     14  H   UNL     1      -2.444   2.433 -22.717  0.00  0.00    +0.204 HD
ATOM     15  C   UNL     1      -2.825   2.603 -22.878  0.00  0.00    +0.131 C 
ATOM     16  C   UNL     1      -3.691   3.338 -23.510  0.00  0.00    +0.051 C 
ATOM     17  C   UNL     1      -3.286   4.338 -24.237  0.00  0.00    +0.011 C 
ATOM     18  C   UNL     1      -2.016   4.601 -24.331  0.00  0.00    +0.055 C 
ATOM     19  C   UNL     1      -1.151   3.865 -23.698  0.00  0.00    +0.071 C 
ATOM     20  C   UNL     1       0.118   4.127 -23.792  0.00  0.00    +0.061 C 
ENDROOT
TORSDOF 0
ENDMDL
MODEL 9
REMARK VINA RESULT:    -7.750      1.724      5.809
REMARK INTER + INTRA:          -7.750
REMARK INTER:                  -7.750
REMARK INTRA:                   0.000
REMARK UNBOUND:                 0.000
REMARK  Name = ZINC000005133859
REMARK  0 active torsions:
REMARK  status: ('A' for Active; 'I' for Inactive)
REMARK                            x       y       z     vdW  Elec       q    Type
REMARK                         _______ _______ _______ _____ _____    ______ ____
ROOT
ATOM      1  C   UNL     1      -0.022   2.102 -21.955  0.00  0.00    -0.013 C 
ATOM      2  C   UNL     1      -0.773   2.477 -22.948  0.00  0.00    -0.025 C 
ATOM      3  C   UNL     1      -2.067   2.463 -22.825  0.00  0.00    +0.041 C 
ATOM      4  C   UNL     1      -2.818   2.838 -23.818  0.00  0.00    +0.055 C 
ATOM      5  C   UNL     1      -2.275   3.226 -24.933  0.00  0.00    +0.130 C 
ATOM      6  N   UNL     1      -0.980   3.241 -25.056  0.00  0.00    +0.233 N 
ATOM      7  H   UNL     1      -0.804   2.529 -25.765  0.00  0.00    +0.202 HD
ATOM      8  H   UNL     1      -0.716   4.200 -25.280  0.00  0.00    +0.202 HD
ATOM      9  C   UNL     1      -0.230   2.866 -24.063  0.00  0.00    +0.097 C 
ATOM     10  C   UNL     1       1.064   2.880 -24.185  0.00  0.00    +0.088 C 
ATOM     11  C   UNL     1       1.816   2.505 -23.193  0.00  0.00    +0.027 C 
ATOM     12  C   UNL     1       2.359   2.894 -24.308  0.00  0.00    +0.141 C 
ATOM     13  N   UNL     1       3.109   2.520 -23.315  0.00  0.00    +0.238 N 
ATOM     14  H   UNL     1       4.049   2.634 -23.694  0.00  0.00    +0.204 HD
ATOM     15  C   UNL     1       4.403   2.534 -23.437  0.00  0.00    +0.131 C 
ATOM     16  C   UNL     1       5.155   2.159 -22.445  0.00  0.00    +0.051 C 
ATOM     17  C   UNL     1       4.612   1.770 -21.330  0.00  0.00    +0.011 C 
ATOM     18  C   UNL     1       3.317   1.756 -21.207  0.00  0.00    +0.055 C 
ATOM     19  C   UNL     1       2.566   2.131 -22.200  0.00  0.00    +0.071 C 
ATOM     20  C   UNL     1       1.273   2.117 -22.078  0.00  0.00    +0.061 C 
ENDROOT
TORSDOF 0
ENDMDL
