MODEL 1
REMARK VINA RESULT:    -9.029      0.000      0.000
REMARK INTER + INTRA:         -11.801
REMARK INTER:                 -11.261
REMARK INTRA:                  -0.541
REMARK UNBOUND:                -0.397
REMARK  Name = ZINC000039386788
REMARK  7 active torsions:
REMARK  status: ('A' for Active; 'I' for Inactive)
REMARK    1  A    between atoms: C_1  and  O_2
REMARK    2  A    between atoms: O_2  and  C_3
REMARK    3  A    between atoms: C_11  and  C_12
REMARK    4  A    between atoms: C_12  and  C_13
REMARK    5  A    between atoms: C_16  and  O_17
REMARK    6  A    between atoms: O_17  and  C_18
REMARK    7  A    between atoms: C_19  and  O_20
REMARK                            x       y       z     vdW  Elec       q    Type
REMARK                         _______ _______ _______ _____ _____    ______ ____
ROOT
ATOM      1  C   UNL     1      -4.421   3.353 -22.267  0.00  0.00    +0.098 C 
ATOM      2  C   UNL     1      -3.419   2.922 -21.560  0.00  0.00    +0.019 C 
ATOM      3  C   UNL     1      -2.261   2.734 -22.120  0.00  0.00    +0.066 C 
ATOM      4  C   UNL     1      -2.105   2.977 -23.388  0.00  0.00    -0.018 C 
ATOM      5  C   UNL     1      -3.107   3.408 -24.095  0.00  0.00    -0.052 C 
ATOM      6  C   UNL     1      -2.952   3.652 -25.362  0.00  0.00    +0.082 C 
ATOM      7  C   UNL     1      -1.794   3.464 -25.923  0.00  0.00    +0.134 C 
ATOM      8  N   UNL     1      -0.791   3.033 -25.216  0.00  0.00    +0.233 N 
ATOM      9  H   UNL     1      -0.606   2.111 -25.611  0.00  0.00    +0.202 HD
ATOM     10  H   UNL     1      -0.055   3.734 -25.293  0.00  0.00    +0.202 HD
ATOM     11  C   UNL     1      -0.947   2.790 -23.948  0.00  0.00    +0.094 C 
ATOM     12  C   UNL     1      -4.265   3.596 -23.535  0.00  0.00    +0.104 C 
ENDROOT
BRANCH   1  14
ATOM     13  C   UNL     1      -6.478   2.604 -21.744  0.00  0.00    +0.276 C 
ATOM     14  O   UNL     1      -5.579   3.541 -21.707  0.00  0.00    -0.499 OA
ENDBRANCH   1  14
BRANCH  11  15
ATOM     15  C   UNL     1       0.055   2.359 -23.241  0.00  0.00    +0.094 C 
BRANCH  15  16
ATOM     16  C   UNL     1       1.176   3.018 -23.233  0.00  0.00    -0.038 A 
ATOM     17  C   UNL     1       2.306   2.378 -23.217  0.00  0.00    +0.007 A 
ATOM     18  C   UNL     1       3.426   3.037 -23.209  0.00  0.00    +0.049 A 
ATOM     19  C   UNL     1       3.416   4.337 -23.216  0.00  0.00    +0.161 A 
ATOM     20  C   UNL     1       2.285   4.977 -23.232  0.00  0.00    +0.159 A 
ATOM     21  C   UNL     1       1.165   4.317 -23.240  0.00  0.00    +0.053 A 
BRANCH  20  22
ATOM     22  O   UNL     1       2.274   6.277 -23.239  0.00  0.00    -0.503 OA
ATOM     23  H   UNL     1       1.502   6.742 -22.982  0.00  0.00    +0.292 HD
ENDBRANCH  20  22
BRANCH  19  24
ATOM     24  O   UNL     1       4.537   4.996 -23.207  0.00  0.00    -0.491 OA
ATOM     25  C   UNL     1       5.663   4.361 -23.077  0.00  0.00    +0.277 C 
ENDBRANCH  19  24
ENDBRANCH  15  16
ENDBRANCH  11  15
TORSDOF 5
ENDMDL
MODEL 2
REMARK VINA RESULT:    -9.012      1.387      2.307
REMARK INTER + INTRA:         -11.779
REMARK INTER:                 -11.022
REMARK INTRA:                  -0.757
REMARK UNBOUND:                -0.397
REMARK  Name = ZINC000039386788
REMARK  7 active torsions:
REMARK  status: ('A' for Active; 'I' for Inactive)
REMARK    1  A    between atoms: C_1  and  O_2
REMARK    2  A    between atoms: O_2  and  C_3
REMARK    3  A    between atoms: C_11  and  C_12
REMARK    4  A    between atoms: C_12  and  C_13
REMARK    5  A    between atoms: C_16  and  O_17
REMARK    6  A    between atoms: O_17  and  C_18
REMARK    7  A    between atoms: C_19  and  O_20
REMARK                            x       y       z     vdW  Elec       q    Type
REMARK                         _______ _______ _______ _____ _____    ______ ____
ROOT
ATOM      1  C   UNL     1      -3.398   3.681 -23.897  0.00  0.00    +0.098 C 
ATOM      2  C   UNL     1      -2.488   4.062 -24.743  0.00  0.00    +0.019 C 
ATOM      3  C   UNL     1      -1.252   3.695 -24.578  0.00  0.00    +0.066 C 
ATOM      4  C   UNL     1      -0.926   2.947 -23.566  0.00  0.00    -0.018 C 
ATOM      5  C   UNL     1      -1.836   2.566 -22.719  0.00  0.00    -0.052 C 
ATOM      6  C   UNL     1      -1.511   1.818 -21.707  0.00  0.00    +0.082 C 
ATOM      7  C   UNL     1      -0.275   1.451 -21.542  0.00  0.00    +0.134 C 
ATOM      8  N   UNL     1       0.636   1.831 -22.388  0.00  0.00    +0.233 N 
ATOM      9  H   UNL     1       1.235   2.440 -21.830  0.00  0.00    +0.202 HD
ATOM     10  H   UNL     1       1.054   0.984 -22.771  0.00  0.00    +0.202 HD
ATOM     11  C   UNL     1       0.310   2.579 -23.400  0.00  0.00    +0.094 C 
ATOM     12  C   UNL     1      -3.072   2.933 -22.885  0.00  0.00    +0.104 C 
ENDROOT
BRANCH   1  14
ATOM     13  C   UNL     1      -5.541   3.683 -23.207  0.00  0.00    +0.276 C 
ATOM     14  O   UNL     1      -4.634   4.049 -24.062  0.00  0.00    -0.499 OA
ENDBRANCH   1  14
BRANCH  11  15
ATOM     15  C   UNL     1       1.220   2.960 -24.247  0.00  0.00    +0.094 C 
BRANCH  15  16
ATOM     16  C   UNL     1       2.289   3.566 -23.823  0.00  0.00    -0.038 A 
ATOM     17  C   UNL     1       3.436   2.957 -23.851  0.00  0.00    +0.007 A 
ATOM     18  C   UNL     1       4.505   3.563 -23.427  0.00  0.00    +0.049 A 
ATOM     19  C   UNL     1       4.427   4.780 -22.975  0.00  0.00    +0.161 A 
ATOM     20  C   UNL     1       3.278   5.389 -22.946  0.00  0.00    +0.159 A 
ATOM     21  C   UNL     1       2.210   4.782 -23.370  0.00  0.00    +0.053 A 
BRANCH  20  22
ATOM     22  O   UNL     1       3.200   6.605 -22.494  0.00  0.00    -0.503 OA
ATOM     23  H   UNL     1       3.919   6.978 -22.022  0.00  0.00    +0.292 HD
ENDBRANCH  20  22
BRANCH  19  24
ATOM     24  O   UNL     1       5.496   5.386 -22.551  0.00  0.00    -0.491 OA
ATOM     25  C   UNL     1       6.657   5.075 -23.044  0.00  0.00    +0.277 C 
ENDBRANCH  19  24
ENDBRANCH  15  16
ENDBRANCH  11  15
TORSDOF 5
ENDMDL
MODEL 3
REMARK VINA RESULT:    -8.733      1.404      6.972
REMARK INTER + INTRA:         -11.427
REMARK INTER:                 -10.670
REMARK INTRA:                  -0.757
REMARK UNBOUND:                -0.397
REMARK  Name = ZINC000039386788
REMARK  7 active torsions:
REMARK  status: ('A' for Active; 'I' for Inactive)
REMARK    1  A    between atoms: C_1  and  O_2
REMARK    2  A    between atoms: O_2  and  C_3
REMARK    3  A    between atoms: C_11  and  C_12
REMARK    4  A    between atoms: C_12  and  C_13
REMARK    5  A    between atoms: C_16  and  O_17
REMARK    6  A    between atoms: O_17  and  C_18
REMARK    7  A    between atoms: C_19  and  O_20
REMARK                            x       y       z     vdW  Elec       q    Type
REMARK                         _______ _______ _______ _____ _____    ______ ____
ROOT
ATOM      1  C   UNL     1       4.197   5.192 -22.854  0.00  0.00    +0.098 C 
ATOM      2  C   UNL     1       3.113   5.910 -22.851  0.00  0.00    +0.019 C 
ATOM      3  C   UNL     1       2.013   5.431 -23.352  0.00  0.00    +0.066 C 
ATOM      4  C   UNL     1       1.998   4.233 -23.856  0.00  0.00    -0.018 C 
ATOM      5  C   UNL     1       3.081   3.514 -23.860  0.00  0.00    -0.052 C 
ATOM      6  C   UNL     1       3.065   2.317 -24.364  0.00  0.00    +0.082 C 
ATOM      7  C   UNL     1       1.965   1.837 -24.865  0.00  0.00    +0.134 C 
ATOM      8  N   UNL     1       0.882   2.555 -24.862  0.00  0.00    +0.233 N 
ATOM      9  H   UNL     1       0.707   2.720 -25.853  0.00  0.00    +0.202 HD
ATOM     10  H   UNL     1       0.180   2.027 -24.343  0.00  0.00    +0.202 HD
ATOM     11  C   UNL     1       0.898   3.753 -24.357  0.00  0.00    +0.094 C 
ATOM     12  C   UNL     1       4.180   3.994 -23.359  0.00  0.00    +0.104 C 
ENDROOT
BRANCH   1  14
ATOM     13  C   UNL     1       6.445   5.202 -22.739  0.00  0.00    +0.276 C 
ATOM     14  O   UNL     1       5.296   5.672 -22.353  0.00  0.00    -0.499 OA
ENDBRANCH   1  14
BRANCH  11  15
ATOM     15  C   UNL     1      -0.186   4.471 -24.354  0.00  0.00    +0.094 C 
BRANCH  15  16
ATOM     16  C   UNL     1      -1.263   4.020 -23.782  0.00  0.00    -0.038 A 
ATOM     17  C   UNL     1      -2.284   3.671 -24.506  0.00  0.00    +0.007 A 
ATOM     18  C   UNL     1      -3.361   3.220 -23.934  0.00  0.00    +0.049 A 
ATOM     19  C   UNL     1      -3.417   3.118 -22.639  0.00  0.00    +0.161 A 
ATOM     20  C   UNL     1      -2.394   3.467 -21.916  0.00  0.00    +0.159 A 
ATOM     21  C   UNL     1      -1.318   3.918 -22.488  0.00  0.00    +0.053 A 
BRANCH  20  22
ATOM     22  O   UNL     1      -2.449   3.365 -20.621  0.00  0.00    -0.503 OA
ATOM     23  H   UNL     1      -2.973   3.964 -20.125  0.00  0.00    +0.292 HD
ENDBRANCH  20  22
BRANCH  19  24
ATOM     24  O   UNL     1      -4.494   2.666 -22.068  0.00  0.00    -0.491 OA
ATOM     25  C   UNL     1      -5.608   3.328 -22.168  0.00  0.00    +0.277 C 
ENDBRANCH  19  24
ENDBRANCH  15  16
ENDBRANCH  11  15
TORSDOF 5
ENDMDL
MODEL 4
REMARK VINA RESULT:    -8.704      1.120      1.733
REMARK INTER + INTRA:         -11.391
REMARK INTER:                 -10.923
REMARK INTRA:                  -0.468
REMARK UNBOUND:                -0.397
REMARK  Name = ZINC000039386788
REMARK  7 active torsions:
REMARK  status: ('A' for Active; 'I' for Inactive)
REMARK    1  A    between atoms: C_1  and  O_2
REMARK    2  A    between atoms: O_2  and  C_3
REMARK    3  A    between atoms: C_11  and  C_12
REMARK    4  A    between atoms: C_12  and  C_13
REMARK    5  A    between atoms: C_16  and  O_17
REMARK    6  A    between atoms: O_17  and  C_18
REMARK    7  A    between atoms: C_19  and  O_20
REMARK                            x       y       z     vdW  Elec       q    Type
REMARK                         _______ _______ _______ _____ _____    ______ ____
ROOT
ATOM      1  C   UNL     1      -4.008   3.363 -22.051  0.00  0.00    +0.098 C 
ATOM      2  C   UNL     1      -3.068   2.877 -21.296  0.00  0.00    +0.019 C 
ATOM      3  C   UNL     1      -1.893   2.633 -21.795  0.00  0.00    +0.066 C 
ATOM      4  C   UNL     1      -1.658   2.875 -23.051  0.00  0.00    -0.018 C 
ATOM      5  C   UNL     1      -2.597   3.361 -23.807  0.00  0.00    -0.052 C 
ATOM      6  C   UNL     1      -2.362   3.603 -25.061  0.00  0.00    +0.082 C 
ATOM      7  C   UNL     1      -1.187   3.359 -25.561  0.00  0.00    +0.134 C 
ATOM      8  N   UNL     1      -0.247   2.873 -24.806  0.00  0.00    +0.233 N 
ATOM      9  H   UNL     1      -0.088   1.945 -25.198  0.00  0.00    +0.202 HD
ATOM     10  H   UNL     1       0.527   3.535 -24.838  0.00  0.00    +0.202 HD
ATOM     11  C   UNL     1      -0.483   2.631 -23.551  0.00  0.00    +0.094 C 
ATOM     12  C   UNL     1      -3.772   3.605 -23.307  0.00  0.00    +0.104 C 
ENDROOT
BRANCH   1  14
ATOM     13  C   UNL     1      -6.168   2.789 -21.777  0.00  0.00    +0.276 C 
ATOM     14  O   UNL     1      -5.183   3.607 -21.551  0.00  0.00    -0.499 OA
ENDBRANCH   1  14
BRANCH  11  15
ATOM     15  C   UNL     1       0.457   2.145 -22.795  0.00  0.00    +0.094 C 
BRANCH  15  16
ATOM     16  C   UNL     1       1.688   2.527 -22.963  0.00  0.00    -0.038 A 
ATOM     17  C   UNL     1       1.968   3.792 -23.062  0.00  0.00    +0.007 A 
ATOM     18  C   UNL     1       3.200   4.174 -23.230  0.00  0.00    +0.049 A 
ATOM     19  C   UNL     1       4.151   3.290 -23.298  0.00  0.00    +0.161 A 
ATOM     20  C   UNL     1       3.870   2.025 -23.199  0.00  0.00    +0.159 A 
ATOM     21  C   UNL     1       2.639   1.644 -23.031  0.00  0.00    +0.053 A 
BRANCH  20  22
ATOM     22  O   UNL     1       4.821   1.141 -23.267  0.00  0.00    -0.503 OA
ATOM     23  H   UNL     1       5.671   1.389 -23.575  0.00  0.00    +0.292 HD
ENDBRANCH  20  22
BRANCH  19  24
ATOM     24  O   UNL     1       5.382   3.672 -23.466  0.00  0.00    -0.491 OA
ATOM     25  C   UNL     1       5.809   4.759 -22.896  0.00  0.00    +0.277 C 
ENDBRANCH  19  24
ENDBRANCH  15  16
ENDBRANCH  11  15
TORSDOF 5
ENDMDL
MODEL 5
REMARK VINA RESULT:    -8.609      2.000      6.811
REMARK INTER + INTRA:         -11.271
REMARK INTER:                 -10.494
REMARK INTRA:                  -0.777
REMARK UNBOUND:                -0.397
REMARK  Name = ZINC000039386788
REMARK  7 active torsions:
REMARK  status: ('A' for Active; 'I' for Inactive)
REMARK    1  A    between atoms: C_1  and  O_2
REMARK    2  A    between atoms: O_2  and  C_3
REMARK    3  A    between atoms: C_11  and  C_12
REMARK    4  A    between atoms: C_12  and  C_13
REMARK    5  A    between atoms: C_16  and  O_17
REMARK    6  A    between atoms: O_17  and  C_18
REMARK    7  A    between atoms: C_19  and  O_20
REMARK                            x       y       z     vdW  Elec       q    Type
REMARK                         _______ _______ _______ _____ _____    ______ ____
ROOT
ATOM      1  C   UNL     1       4.001   1.585 -22.679  0.00  0.00    +0.098 C 
ATOM      2  C   UNL     1       3.025   0.983 -23.291  0.00  0.00    +0.019 C 
ATOM      3  C   UNL     1       2.049   1.675 -23.798  0.00  0.00    +0.066 C 
ATOM      4  C   UNL     1       2.049   2.971 -23.693  0.00  0.00    -0.018 C 
ATOM      5  C   UNL     1       3.024   3.574 -23.081  0.00  0.00    -0.052 C 
ATOM      6  C   UNL     1       3.025   4.869 -22.975  0.00  0.00    +0.082 C 
ATOM      7  C   UNL     1       2.049   5.563 -23.482  0.00  0.00    +0.134 C 
ATOM      8  N   UNL     1       1.073   4.960 -24.095  0.00  0.00    +0.233 N 
ATOM      9  H   UNL     1       0.269   5.147 -23.495  0.00  0.00    +0.202 HD
ATOM     10  H   UNL     1       1.047   5.333 -25.044  0.00  0.00    +0.202 HD
ATOM     11  C   UNL     1       1.073   3.665 -24.200  0.00  0.00    +0.094 C 
ATOM     12  C   UNL     1       4.000   2.881 -22.574  0.00  0.00    +0.104 C 
ENDROOT
BRANCH   1  14
ATOM     13  C   UNL     1       4.878   0.416 -20.967  0.00  0.00    +0.276 C 
ATOM     14  O   UNL     1       4.977   0.892 -22.172  0.00  0.00    -0.499 OA
ENDBRANCH   1  14
BRANCH  11  15
ATOM     15  C   UNL     1       0.097   3.062 -24.812  0.00  0.00    +0.094 C 
BRANCH  15  16
ATOM     16  C   UNL     1      -1.127   3.231 -24.408  0.00  0.00    -0.038 A 
ATOM     17  C   UNL     1      -1.492   2.788 -23.242  0.00  0.00    +0.007 A 
ATOM     18  C   UNL     1      -2.716   2.957 -22.838  0.00  0.00    +0.049 A 
ATOM     19  C   UNL     1      -3.574   3.568 -23.599  0.00  0.00    +0.161 A 
ATOM     20  C   UNL     1      -3.208   4.011 -24.765  0.00  0.00    +0.159 A 
ATOM     21  C   UNL     1      -1.984   3.842 -25.169  0.00  0.00    +0.053 A 
BRANCH  20  22
ATOM     22  O   UNL     1      -4.066   4.623 -25.527  0.00  0.00    -0.503 OA
ATOM     23  H   UNL     1      -4.469   4.167 -26.240  0.00  0.00    +0.292 HD
ENDBRANCH  20  22
BRANCH  19  24
ATOM     24  O   UNL     1      -4.799   3.737 -23.195  0.00  0.00    -0.491 OA
ATOM     25  C   UNL     1      -5.169   3.278 -22.037  0.00  0.00    +0.277 C 
ENDBRANCH  19  24
ENDBRANCH  15  16
ENDBRANCH  11  15
TORSDOF 5
ENDMDL
MODEL 6
REMARK VINA RESULT:    -8.429      2.058      2.600
REMARK INTER + INTRA:         -11.043
REMARK INTER:                 -10.916
REMARK INTRA:                  -0.128
REMARK UNBOUND:                -0.397
REMARK  Name = ZINC000039386788
REMARK  7 active torsions:
REMARK  status: ('A' for Active; 'I' for Inactive)
REMARK    1  A    between atoms: C_1  and  O_2
REMARK    2  A    between atoms: O_2  and  C_3
REMARK    3  A    between atoms: C_11  and  C_12
REMARK    4  A    between atoms: C_12  and  C_13
REMARK    5  A    between atoms: C_16  and  O_17
REMARK    6  A    between atoms: O_17  and  C_18
REMARK    7  A    between atoms: C_19  and  O_20
REMARK                            x       y       z     vdW  Elec       q    Type
REMARK                         _______ _______ _______ _____ _____    ______ ____
ROOT
ATOM      1  C   UNL     1      -2.818   3.278 -21.853  0.00  0.00    +0.098 C 
ATOM      2  C   UNL     1      -1.597   3.698 -21.698  0.00  0.00    +0.019 C 
ATOM      3  C   UNL     1      -0.838   3.890 -22.735  0.00  0.00    +0.066 C 
ATOM      4  C   UNL     1      -1.301   3.662 -23.929  0.00  0.00    -0.018 C 
ATOM      5  C   UNL     1      -2.522   3.243 -24.085  0.00  0.00    -0.052 C 
ATOM      6  C   UNL     1      -2.984   3.016 -25.277  0.00  0.00    +0.082 C 
ATOM      7  C   UNL     1      -2.226   3.208 -26.316  0.00  0.00    +0.134 C 
ATOM      8  N   UNL     1      -1.005   3.627 -26.161  0.00  0.00    +0.233 N 
ATOM      9  H   UNL     1      -0.444   2.839 -26.484  0.00  0.00    +0.202 HD
ATOM     10  H   UNL     1      -0.927   4.502 -26.679  0.00  0.00    +0.202 HD
ATOM     11  C   UNL     1      -0.543   3.854 -24.967  0.00  0.00    +0.094 C 
ATOM     12  C   UNL     1      -3.280   3.051 -23.046  0.00  0.00    +0.104 C 
ENDROOT
BRANCH   1  14
ATOM     13  C   UNL     1      -3.299   3.677 -19.690  0.00  0.00    +0.276 C 
ATOM     14  O   UNL     1      -3.576   3.086 -20.814  0.00  0.00    -0.499 OA
ENDBRANCH   1  14
BRANCH  11  15
ATOM     15  C   UNL     1       0.678   4.273 -24.813  0.00  0.00    +0.094 C 
BRANCH  15  16
ATOM     16  C   UNL     1       1.597   3.457 -24.388  0.00  0.00    -0.038 A 
ATOM     17  C   UNL     1       2.302   3.762 -23.341  0.00  0.00    +0.007 A 
ATOM     18  C   UNL     1       3.221   2.945 -22.916  0.00  0.00    +0.049 A 
ATOM     19  C   UNL     1       3.434   1.825 -23.540  0.00  0.00    +0.161 A 
ATOM     20  C   UNL     1       2.728   1.521 -24.588  0.00  0.00    +0.159 A 
ATOM     21  C   UNL     1       1.809   2.337 -25.012  0.00  0.00    +0.053 A 
BRANCH  20  22
ATOM     22  O   UNL     1       2.941   0.401 -25.212  0.00  0.00    -0.503 OA
ATOM     23  H   UNL     1       2.692   0.309 -26.111  0.00  0.00    +0.292 HD
ENDBRANCH  20  22
BRANCH  19  24
ATOM     24  O   UNL     1       4.353   1.009 -23.115  0.00  0.00    -0.491 OA
ATOM     25  C   UNL     1       4.357   0.625 -21.874  0.00  0.00    +0.277 C 
ENDBRANCH  19  24
ENDBRANCH  15  16
ENDBRANCH  11  15
TORSDOF 5
ENDMDL
MODEL 7
REMARK VINA RESULT:    -8.384      1.542      7.031
REMARK INTER + INTRA:         -10.987
REMARK INTER:                 -10.214
REMARK INTRA:                  -0.773
REMARK UNBOUND:                -0.397
REMARK  Name = ZINC000039386788
REMARK  7 active torsions:
REMARK  status: ('A' for Active; 'I' for Inactive)
REMARK    1  A    between atoms: C_1  and  O_2
REMARK    2  A    between atoms: O_2  and  C_3
REMARK    3  A    between atoms: C_11  and  C_12
REMARK    4  A    between atoms: C_12  and  C_13
REMARK    5  A    between atoms: C_16  and  O_17
REMARK    6  A    between atoms: O_17  and  C_18
REMARK    7  A    between atoms: C_19  and  O_20
REMARK                            x       y       z     vdW  Elec       q    Type
REMARK                         _______ _______ _______ _____ _____    ______ ____
ROOT
ATOM      1  C   UNL     1       4.604   4.685 -22.753  0.00  0.00    +0.098 C 
ATOM      2  C   UNL     1       3.591   5.498 -22.821  0.00  0.00    +0.019 C 
ATOM      3  C   UNL     1       2.497   5.126 -23.417  0.00  0.00    +0.066 C 
ATOM      4  C   UNL     1       2.417   3.942 -23.947  0.00  0.00    -0.018 C 
ATOM      5  C   UNL     1       3.429   3.129 -23.880  0.00  0.00    -0.052 C 
ATOM      6  C   UNL     1       3.349   1.945 -24.409  0.00  0.00    +0.082 C 
ATOM      7  C   UNL     1       2.255   1.573 -25.006  0.00  0.00    +0.134 C 
ATOM      8  N   UNL     1       1.243   2.385 -25.074  0.00  0.00    +0.233 N 
ATOM      9  H   UNL     1       1.164   2.579 -26.072  0.00  0.00    +0.202 HD
ATOM     10  H   UNL     1       0.458   1.914 -24.624  0.00  0.00    +0.202 HD
ATOM     11  C   UNL     1       1.324   3.569 -24.544  0.00  0.00    +0.094 C 
ATOM     12  C   UNL     1       4.522   3.501 -23.283  0.00  0.00    +0.104 C 
ENDROOT
BRANCH   1  14
ATOM     13  C   UNL     1       6.790   5.214 -22.841  0.00  0.00    +0.276 C 
ATOM     14  O   UNL     1       5.697   5.058 -22.156  0.00  0.00    -0.499 OA
ENDBRANCH   1  14
BRANCH  11  15
ATOM     15  C   UNL     1       0.311   4.382 -24.611  0.00  0.00    +0.094 C 
BRANCH  15  16
ATOM     16  C   UNL     1      -0.838   4.032 -24.113  0.00  0.00    -0.038 A 
ATOM     17  C   UNL     1      -0.979   3.917 -22.826  0.00  0.00    +0.007 A 
ATOM     18  C   UNL     1      -2.128   3.567 -22.328  0.00  0.00    +0.049 A 
ATOM     19  C   UNL     1      -3.135   3.332 -23.116  0.00  0.00    +0.161 A 
ATOM     20  C   UNL     1      -2.992   3.447 -24.403  0.00  0.00    +0.159 A 
ATOM     21  C   UNL     1      -1.843   3.797 -24.901  0.00  0.00    +0.053 A 
BRANCH  20  22
ATOM     22  O   UNL     1      -3.999   3.212 -25.192  0.00  0.00    -0.503 OA
ATOM     23  H   UNL     1      -4.707   3.823 -25.244  0.00  0.00    +0.292 HD
ENDBRANCH  20  22
BRANCH  19  24
ATOM     24  O   UNL     1      -4.283   2.981 -22.618  0.00  0.00    -0.491 OA
ATOM     25  C   UNL     1      -4.405   2.793 -21.338  0.00  0.00    +0.277 C 
ENDBRANCH  19  24
ENDBRANCH  15  16
ENDBRANCH  11  15
TORSDOF 5
ENDMDL
MODEL 8
REMARK VINA RESULT:    -8.363      2.449      3.392
REMARK INTER + INTRA:         -10.959
REMARK INTER:                 -10.614
REMARK INTRA:                  -0.345
REMARK UNBOUND:                -0.397
REMARK  Name = ZINC000039386788
REMARK  7 active torsions:
REMARK  status: ('A' for Active; 'I' for Inactive)
REMARK    1  A    between atoms: C_1  and  O_2
REMARK    2  A    between atoms: O_2  and  C_3
REMARK    3  A    between atoms: C_11  and  C_12
REMARK    4  A    between atoms: C_12  and  C_13
REMARK    5  A    between atoms: C_16  and  O_17
REMARK    6  A    between atoms: O_17  and  C_18
REMARK    7  A    between atoms: C_19  and  O_20
REMARK                            x       y       z     vdW  Elec       q    Type
REMARK                         _______ _______ _______ _____ _____    ______ ____
ROOT
ATOM      1  C   UNL     1      -1.675   2.627 -21.878  0.00  0.00    +0.098 C 
ATOM      2  C   UNL     1      -0.761   1.845 -21.385  0.00  0.00    +0.019 C 
ATOM      3  C   UNL     1       0.376   1.704 -21.999  0.00  0.00    +0.066 C 
ATOM      4  C   UNL     1       0.600   2.347 -23.106  0.00  0.00    -0.018 C 
ATOM      5  C   UNL     1      -0.313   3.130 -23.601  0.00  0.00    -0.052 C 
ATOM      6  C   UNL     1      -0.089   3.772 -24.707  0.00  0.00    +0.082 C 
ATOM      7  C   UNL     1       1.048   3.632 -25.322  0.00  0.00    +0.134 C 
ATOM      8  N   UNL     1       1.962   2.850 -24.828  0.00  0.00    +0.233 N 
ATOM      9  H   UNL     1       2.031   2.105 -25.522  0.00  0.00    +0.202 HD
ATOM     10  H   UNL     1       2.789   3.425 -24.673  0.00  0.00    +0.202 HD
ATOM     11  C   UNL     1       1.737   2.207 -23.721  0.00  0.00    +0.094 C 
ATOM     12  C   UNL     1      -1.450   3.270 -22.986  0.00  0.00    +0.104 C 
ENDROOT
BRANCH   1  14
ATOM     13  C   UNL     1      -2.946   3.675 -20.345  0.00  0.00    +0.276 C 
ATOM     14  O   UNL     1      -2.812   2.767 -21.264  0.00  0.00    -0.499 OA
ENDBRANCH   1  14
BRANCH  11  15
ATOM     15  C   UNL     1       2.651   1.425 -23.227  0.00  0.00    +0.094 C 
BRANCH  15  16
ATOM     16  C   UNL     1       3.650   1.928 -22.566  0.00  0.00    -0.038 A 
ATOM     17  C   UNL     1       4.181   3.051 -22.947  0.00  0.00    +0.007 A 
ATOM     18  C   UNL     1       5.181   3.555 -22.285  0.00  0.00    +0.049 A 
ATOM     19  C   UNL     1       5.649   2.935 -21.243  0.00  0.00    +0.161 A 
ATOM     20  C   UNL     1       5.117   1.811 -20.862  0.00  0.00    +0.159 A 
ATOM     21  C   UNL     1       4.118   1.308 -21.524  0.00  0.00    +0.053 A 
BRANCH  20  22
ATOM     22  O   UNL     1       5.585   1.191 -19.820  0.00  0.00    -0.503 OA
ATOM     23  H   UNL     1       4.998   0.826 -19.188  0.00  0.00    +0.292 HD
ENDBRANCH  20  22
BRANCH  19  24
ATOM     24  O   UNL     1       6.649   3.438 -20.581  0.00  0.00    -0.491 OA
ATOM     25  C   UNL     1       7.346   4.407 -21.096  0.00  0.00    +0.277 C 
ENDBRANCH  19  24
ENDBRANCH  15  16
ENDBRANCH  11  15
TORSDOF 5
ENDMDL
MODEL 9
REMARK VINA RESULT:    -8.072      2.075      3.167
REMARK INTER + INTRA:         -10.593
REMARK INTER:                 -10.196
REMARK INTRA:                  -0.397
REMARK UNBOUND:                -0.397
REMARK  Name = ZINC000039386788
REMARK  7 active torsions:
REMARK  status: ('A' for Active; 'I' for Inactive)
REMARK    1  A    between atoms: C_1  and  O_2
REMARK    2  A    between atoms: O_2  and  C_3
REMARK    3  A    between atoms: C_11  and  C_12
REMARK    4  A    between atoms: C_12  and  C_13
REMARK    5  A    between atoms: C_16  and  O_17
REMARK    6  A    between atoms: O_17  and  C_18
REMARK    7  A    between atoms: C_19  and  O_20
REMARK                            x       y       z     vdW  Elec       q    Type
REMARK                         _______ _______ _______ _____ _____    ______ ____
ROOT
ATOM      1  C   UNL     1      -3.138   3.368 -24.443  0.00  0.00    +0.098 C 
ATOM      2  C   UNL     1      -2.151   3.545 -25.270  0.00  0.00    +0.019 C 
ATOM      3  C   UNL     1      -0.937   3.256 -24.906  0.00  0.00    +0.066 C 
ATOM      4  C   UNL     1      -0.711   2.790 -23.713  0.00  0.00    -0.018 C 
ATOM      5  C   UNL     1      -1.697   2.613 -22.886  0.00  0.00    -0.052 C 
ATOM      6  C   UNL     1      -1.471   2.148 -21.694  0.00  0.00    +0.082 C 
ATOM      7  C   UNL     1      -0.258   1.858 -21.329  0.00  0.00    +0.134 C 
ATOM      8  N   UNL     1       0.730   2.035 -22.156  0.00  0.00    +0.233 N 
ATOM      9  H   UNL     1       1.275   2.775 -21.715  0.00  0.00    +0.202 HD
ATOM     10  H   UNL     1       1.179   1.127 -22.275  0.00  0.00    +0.202 HD
ATOM     11  C   UNL     1       0.503   2.501 -23.348  0.00  0.00    +0.094 C 
ATOM     12  C   UNL     1      -2.911   2.902 -23.251  0.00  0.00    +0.104 C 
ENDROOT
BRANCH   1  14
ATOM     13  C   UNL     1      -4.868   4.808 -24.494  0.00  0.00    +0.276 C 
ATOM     14  O   UNL     1      -4.352   3.658 -24.808  0.00  0.00    -0.499 OA
ENDBRANCH   1  14
BRANCH  11  15
ATOM     15  C   UNL     1       1.490   2.677 -24.175  0.00  0.00    +0.094 C 
BRANCH  15  16
ATOM     16  C   UNL     1       2.703   2.797 -23.723  0.00  0.00    -0.038 A 
ATOM     17  C   UNL     1       3.197   3.977 -23.492  0.00  0.00    +0.007 A 
ATOM     18  C   UNL     1       4.410   4.097 -23.041  0.00  0.00    +0.049 A 
ATOM     19  C   UNL     1       5.129   3.037 -22.820  0.00  0.00    +0.161 A 
ATOM     20  C   UNL     1       4.635   1.857 -23.051  0.00  0.00    +0.159 A 
ATOM     21  C   UNL     1       3.422   1.738 -23.503  0.00  0.00    +0.053 A 
BRANCH  20  22
ATOM     22  O   UNL     1       5.355   0.797 -22.830  0.00  0.00    -0.503 OA
ATOM     23  H   UNL     1       6.103   0.617 -23.366  0.00  0.00    +0.292 HD
ENDBRANCH  20  22
BRANCH  19  24
ATOM     24  O   UNL     1       6.342   3.157 -22.368  0.00  0.00    -0.491 OA
ATOM     25  C   UNL     1       6.551   3.685 -21.199  0.00  0.00    +0.277 C 
ENDBRANCH  19  24
ENDBRANCH  15  16
ENDBRANCH  11  15
TORSDOF 5
ENDMDL
