MODEL 1
REMARK VINA RESULT:   -10.697      0.000      0.000
REMARK INTER + INTRA:         -10.697
REMARK INTER:                 -10.697
REMARK INTRA:                   0.000
REMARK UNBOUND:                 0.000
REMARK  Name = ZINC000003881689
REMARK  3 active torsions:
REMARK  status: ('A' for Active; 'I' for Inactive)
REMARK    1  A    between atoms: C_1  and  C_2
REMARK    2  A    between atoms: C_8  and  C_9
REMARK    3  A    between atoms: C_13  and  C_14
REMARK                            x       y       z     vdW  Elec       q    Type
REMARK                         _______ _______ _______ _____ _____    ______ ____
ROOT
ATOM      1  C   UNL     1      -3.984   2.431 -20.982  0.00  0.00    +0.048 C 
ATOM      2  C   UNL     1      -4.094   2.972 -22.159  0.00  0.00    -0.000 C 
ATOM      3  C   UNL     1      -3.048   3.089 -22.921  0.00  0.00    -0.013 C 
ATOM      4  C   UNL     1      -1.891   2.666 -22.506  0.00  0.00    +0.208 C 
ATOM      5  O   UNL     1      -1.519   2.101 -21.396  0.00  0.00    -0.456 OA
ATOM      6  C   UNL     1      -0.242   1.870 -21.472  0.00  0.00    +0.311 C 
ATOM      7  C   UNL     1       0.176   2.292 -22.629  0.00  0.00    +0.102 C 
ATOM      8  C   UNL     1       1.397   2.232 -23.069  0.00  0.00    +0.019 C 
ATOM      9  O   UNL     1       0.490   1.313 -20.553  0.00  0.00    -0.251 OA
ATOM     10  C   UNL     1      -0.844   2.784 -23.267  0.00  0.00    +0.048 C 
ATOM     11  C   UNL     1      -0.954   3.325 -24.445  0.00  0.00    +0.009 C 
ATOM     12  C   UNL     1      -2.111   3.748 -24.860  0.00  0.00    +0.015 C 
ATOM     13  C   UNL     1      -3.158   3.630 -24.098  0.00  0.00    +0.011 C 
ATOM     14  C   UNL     1      -4.315   4.053 -24.513  0.00  0.00    -0.012 C 
ATOM     15  C   UNL     1      -5.361   3.935 -23.752  0.00  0.00    +0.048 C 
ATOM     16  C   UNL     1      -3.268   4.171 -25.276  0.00  0.00    +0.020 C 
ATOM     17  C   UNL     1      -5.251   3.395 -22.575  0.00  0.00    +0.182 C 
ATOM     18  O   UNL     1      -6.298   3.277 -21.813  0.00  0.00    -0.288 OA
ENDROOT
TORSDOF 0
ENDMDL
MODEL 2
REMARK VINA RESULT:   -10.425      1.625      2.827
REMARK INTER + INTRA:         -10.425
REMARK INTER:                 -10.425
REMARK INTRA:                   0.000
REMARK UNBOUND:                 0.000
REMARK  Name = ZINC000003881689
REMARK  3 active torsions:
REMARK  status: ('A' for Active; 'I' for Inactive)
REMARK    1  A    between atoms: C_1  and  C_2
REMARK    2  A    between atoms: C_8  and  C_9
REMARK    3  A    between atoms: C_13  and  C_14
REMARK                            x       y       z     vdW  Elec       q    Type
REMARK                         _______ _______ _______ _____ _____    ______ ____
ROOT
ATOM      1  C   UNL     1      -2.494   3.396 -25.549  0.00  0.00    +0.048 C 
ATOM      2  C   UNL     1      -3.353   3.445 -24.575  0.00  0.00    -0.000 C 
ATOM      3  C   UNL     1      -2.999   3.086 -23.377  0.00  0.00    -0.013 C 
ATOM      4  C   UNL     1      -1.785   2.678 -23.153  0.00  0.00    +0.208 C 
ATOM      5  O   UNL     1      -0.757   2.538 -23.935  0.00  0.00    -0.456 OA
ATOM      6  C   UNL     1       0.233   2.092 -23.220  0.00  0.00    +0.311 C 
ATOM      7  C   UNL     1      -0.183   1.957 -21.996  0.00  0.00    +0.102 C 
ATOM      8  C   UNL     1       0.524   1.534 -20.991  0.00  0.00    +0.019 C 
ATOM      9  O   UNL     1       1.430   1.828 -23.653  0.00  0.00    -0.251 OA
ATOM     10  C   UNL     1      -1.431   2.319 -21.955  0.00  0.00    +0.048 C 
ATOM     11  C   UNL     1      -2.290   2.368 -20.980  0.00  0.00    +0.009 C 
ATOM     12  C   UNL     1      -3.504   2.776 -21.204  0.00  0.00    +0.015 C 
ATOM     13  C   UNL     1      -3.858   3.135 -22.402  0.00  0.00    +0.011 C 
ATOM     14  C   UNL     1      -5.072   3.543 -22.627  0.00  0.00    -0.012 C 
ATOM     15  C   UNL     1      -5.427   3.902 -23.824  0.00  0.00    +0.048 C 
ATOM     16  C   UNL     1      -4.718   3.184 -21.428  0.00  0.00    +0.020 C 
ATOM     17  C   UNL     1      -4.567   3.853 -24.799  0.00  0.00    +0.182 C 
ATOM     18  O   UNL     1      -4.922   4.212 -25.997  0.00  0.00    -0.288 OA
ENDROOT
TORSDOF 0
ENDMDL
MODEL 3
REMARK VINA RESULT:    -9.915      1.914      5.371
REMARK INTER + INTRA:          -9.915
REMARK INTER:                  -9.915
REMARK INTRA:                   0.000
REMARK UNBOUND:                 0.000
REMARK  Name = ZINC000003881689
REMARK  3 active torsions:
REMARK  status: ('A' for Active; 'I' for Inactive)
REMARK    1  A    between atoms: C_1  and  C_2
REMARK    2  A    between atoms: C_8  and  C_9
REMARK    3  A    between atoms: C_13  and  C_14
REMARK                            x       y       z     vdW  Elec       q    Type
REMARK                         _______ _______ _______ _____ _____    ______ ____
ROOT
ATOM      1  C   UNL     1      -0.271   3.756 -25.291  0.00  0.00    +0.048 C 
ATOM      2  C   UNL     1       0.017   3.097 -24.208  0.00  0.00    -0.000 C 
ATOM      3  C   UNL     1      -0.911   2.850 -23.331  0.00  0.00    -0.013 C 
ATOM      4  C   UNL     1      -2.127   3.262 -23.538  0.00  0.00    +0.208 C 
ATOM      5  O   UNL     1      -2.665   3.926 -24.517  0.00  0.00    -0.456 OA
ATOM      6  C   UNL     1      -3.926   4.090 -24.244  0.00  0.00    +0.311 C 
ATOM      7  C   UNL     1      -4.166   3.527 -23.097  0.00  0.00    +0.102 C 
ATOM      8  C   UNL     1      -5.317   3.484 -22.493  0.00  0.00    +0.019 C 
ATOM      9  O   UNL     1      -4.794   4.708 -24.989  0.00  0.00    -0.251 OA
ATOM     10  C   UNL     1      -3.054   3.016 -22.661  0.00  0.00    +0.048 C 
ATOM     11  C   UNL     1      -2.766   2.357 -21.577  0.00  0.00    +0.009 C 
ATOM     12  C   UNL     1      -1.551   1.945 -21.371  0.00  0.00    +0.015 C 
ATOM     13  C   UNL     1      -0.623   2.192 -22.248  0.00  0.00    +0.011 C 
ATOM     14  C   UNL     1       0.593   1.780 -22.042  0.00  0.00    -0.012 C 
ATOM     15  C   UNL     1       1.520   2.026 -22.918  0.00  0.00    +0.048 C 
ATOM     16  C   UNL     1      -0.335   1.533 -21.164  0.00  0.00    +0.020 C 
ATOM     17  C   UNL     1       1.232   2.685 -24.001  0.00  0.00    +0.182 C 
ATOM     18  O   UNL     1       2.160   2.931 -24.878  0.00  0.00    -0.288 OA
ENDROOT
TORSDOF 0
ENDMDL
MODEL 4
REMARK VINA RESULT:    -9.523      1.044      4.544
REMARK INTER + INTRA:          -9.523
REMARK INTER:                  -9.523
REMARK INTRA:                   0.000
REMARK UNBOUND:                 0.000
REMARK  Name = ZINC000003881689
REMARK  3 active torsions:
REMARK  status: ('A' for Active; 'I' for Inactive)
REMARK    1  A    between atoms: C_1  and  C_2
REMARK    2  A    between atoms: C_8  and  C_9
REMARK    3  A    between atoms: C_13  and  C_14
REMARK                            x       y       z     vdW  Elec       q    Type
REMARK                         _______ _______ _______ _____ _____    ______ ____
ROOT
ATOM      1  C   UNL     1      -0.260   1.516 -21.262  0.00  0.00    +0.048 C 
ATOM      2  C   UNL     1       0.072   2.051 -22.400  0.00  0.00    -0.000 C 
ATOM      3  C   UNL     1      -0.827   2.649 -23.124  0.00  0.00    -0.013 C 
ATOM      4  C   UNL     1      -2.058   2.711 -22.711  0.00  0.00    +0.208 C 
ATOM      5  O   UNL     1      -2.638   2.268 -21.636  0.00  0.00    -0.456 OA
ATOM      6  C   UNL     1      -3.895   2.591 -21.696  0.00  0.00    +0.311 C 
ATOM      7  C   UNL     1      -4.093   3.235 -22.808  0.00  0.00    +0.102 C 
ATOM      8  C   UNL     1      -5.227   3.719 -23.220  0.00  0.00    +0.019 C 
ATOM      9  O   UNL     1      -4.798   2.319 -20.800  0.00  0.00    -0.251 OA
ATOM     10  C   UNL     1      -2.957   3.309 -23.435  0.00  0.00    +0.048 C 
ATOM     11  C   UNL     1      -2.625   3.844 -24.573  0.00  0.00    +0.009 C 
ATOM     12  C   UNL     1      -1.394   3.781 -24.986  0.00  0.00    +0.015 C 
ATOM     13  C   UNL     1      -0.495   3.183 -24.262  0.00  0.00    +0.011 C 
ATOM     14  C   UNL     1       0.736   3.120 -24.675  0.00  0.00    -0.012 C 
ATOM     15  C   UNL     1       1.635   2.523 -23.951  0.00  0.00    +0.048 C 
ATOM     16  C   UNL     1      -0.163   3.718 -25.400  0.00  0.00    +0.020 C 
ATOM     17  C   UNL     1       1.303   1.988 -22.813  0.00  0.00    +0.182 C 
ATOM     18  O   UNL     1       2.202   1.391 -22.089  0.00  0.00    -0.288 OA
ENDROOT
TORSDOF 0
ENDMDL
MODEL 5
REMARK VINA RESULT:    -8.995      2.005      3.128
REMARK INTER + INTRA:          -8.995
REMARK INTER:                  -8.995
REMARK INTRA:                   0.000
REMARK UNBOUND:                 0.000
REMARK  Name = ZINC000003881689
REMARK  3 active torsions:
REMARK  status: ('A' for Active; 'I' for Inactive)
REMARK    1  A    between atoms: C_1  and  C_2
REMARK    2  A    between atoms: C_8  and  C_9
REMARK    3  A    between atoms: C_13  and  C_14
REMARK                            x       y       z     vdW  Elec       q    Type
REMARK                         _______ _______ _______ _____ _____    ______ ____
ROOT
ATOM      1  C   UNL     1      -0.974   1.108 -21.423  0.00  0.00    +0.048 C 
ATOM      2  C   UNL     1      -1.145   2.276 -21.968  0.00  0.00    -0.000 C 
ATOM      3  C   UNL     1      -0.141   2.891 -22.519  0.00  0.00    -0.013 C 
ATOM      4  C   UNL     1       1.035   2.337 -22.526  0.00  0.00    +0.208 C 
ATOM      5  O   UNL     1       1.464   1.202 -22.060  0.00  0.00    -0.456 OA
ATOM      6  C   UNL     1       2.735   1.115 -22.324  0.00  0.00    +0.311 C 
ATOM      7  C   UNL     1       3.090   2.197 -22.953  0.00  0.00    +0.102 C 
ATOM      8  C   UNL     1       4.285   2.473 -23.381  0.00  0.00    +0.019 C 
ATOM      9  O   UNL     1       3.513   0.121 -22.014  0.00  0.00    -0.251 OA
ATOM     10  C   UNL     1       2.039   2.951 -23.077  0.00  0.00    +0.048 C 
ATOM     11  C   UNL     1       1.867   4.119 -23.622  0.00  0.00    +0.009 C 
ATOM     12  C   UNL     1       0.691   4.673 -23.615  0.00  0.00    +0.015 C 
ATOM     13  C   UNL     1      -0.313   4.059 -23.064  0.00  0.00    +0.011 C 
ATOM     14  C   UNL     1      -1.490   4.612 -23.056  0.00  0.00    -0.012 C 
ATOM     15  C   UNL     1      -2.493   3.998 -22.505  0.00  0.00    +0.048 C 
ATOM     16  C   UNL     1      -0.485   5.227 -23.608  0.00  0.00    +0.020 C 
ATOM     17  C   UNL     1      -2.322   2.830 -21.961  0.00  0.00    +0.182 C 
ATOM     18  O   UNL     1      -3.326   2.216 -21.409  0.00  0.00    -0.288 OA
ENDROOT
TORSDOF 0
ENDMDL
MODEL 6
REMARK VINA RESULT:    -8.697      2.945      4.852
REMARK INTER + INTRA:          -8.697
REMARK INTER:                  -8.697
REMARK INTRA:                   0.000
REMARK UNBOUND:                 0.000
REMARK  Name = ZINC000003881689
REMARK  3 active torsions:
REMARK  status: ('A' for Active; 'I' for Inactive)
REMARK    1  A    between atoms: C_1  and  C_2
REMARK    2  A    between atoms: C_8  and  C_9
REMARK    3  A    between atoms: C_13  and  C_14
REMARK                            x       y       z     vdW  Elec       q    Type
REMARK                         _______ _______ _______ _____ _____    ______ ____
ROOT
ATOM      1  C   UNL     1       1.063   3.759 -25.294  0.00  0.00    +0.048 C 
ATOM      2  C   UNL     1       0.325   3.173 -24.399  0.00  0.00    -0.000 C 
ATOM      3  C   UNL     1       0.875   2.645 -23.346  0.00  0.00    -0.013 C 
ATOM      4  C   UNL     1       2.164   2.705 -23.187  0.00  0.00    +0.208 C 
ATOM      5  O   UNL     1       3.107   3.222 -23.917  0.00  0.00    -0.456 OA
ATOM      6  C   UNL     1       4.240   3.015 -23.314  0.00  0.00    +0.311 C 
ATOM      7  C   UNL     1       3.997   2.369 -22.212  0.00  0.00    +0.102 C 
ATOM      8  C   UNL     1       4.883   1.983 -21.342  0.00  0.00    +0.019 C 
ATOM      9  O   UNL     1       5.411   3.388 -23.739  0.00  0.00    -0.251 OA
ATOM     10  C   UNL     1       2.714   2.178 -22.134  0.00  0.00    +0.048 C 
ATOM     11  C   UNL     1       1.976   1.591 -21.239  0.00  0.00    +0.009 C 
ATOM     12  C   UNL     1       0.687   1.531 -21.397  0.00  0.00    +0.015 C 
ATOM     13  C   UNL     1       0.136   2.058 -22.451  0.00  0.00    +0.011 C 
ATOM     14  C   UNL     1      -1.152   1.999 -22.610  0.00  0.00    -0.012 C 
ATOM     15  C   UNL     1      -1.703   2.526 -23.662  0.00  0.00    +0.048 C 
ATOM     16  C   UNL     1      -0.602   1.472 -21.556  0.00  0.00    +0.020 C 
ATOM     17  C   UNL     1      -0.964   3.113 -24.557  0.00  0.00    +0.182 C 
ATOM     18  O   UNL     1      -1.515   3.640 -25.610  0.00  0.00    -0.288 OA
ENDROOT
TORSDOF 0
ENDMDL
MODEL 7
REMARK VINA RESULT:    -8.612      1.637      5.261
REMARK INTER + INTRA:          -8.612
REMARK INTER:                  -8.612
REMARK INTRA:                   0.000
REMARK UNBOUND:                 0.000
REMARK  Name = ZINC000003881689
REMARK  3 active torsions:
REMARK  status: ('A' for Active; 'I' for Inactive)
REMARK    1  A    between atoms: C_1  and  C_2
REMARK    2  A    between atoms: C_8  and  C_9
REMARK    3  A    between atoms: C_13  and  C_14
REMARK                            x       y       z     vdW  Elec       q    Type
REMARK                         _______ _______ _______ _____ _____    ______ ____
ROOT
ATOM      1  C   UNL     1       0.189   1.114 -21.314  0.00  0.00    +0.048 C 
ATOM      2  C   UNL     1       1.089   1.858 -21.885  0.00  0.00    -0.000 C 
ATOM      3  C   UNL     1       0.728   2.803 -22.701  0.00  0.00    -0.013 C 
ATOM      4  C   UNL     1      -0.532   3.004 -22.947  0.00  0.00    +0.208 C 
ATOM      5  O   UNL     1      -1.607   2.413 -22.516  0.00  0.00    -0.456 OA
ATOM      6  C   UNL     1      -2.632   2.993 -23.067  0.00  0.00    +0.311 C 
ATOM      7  C   UNL     1      -2.190   3.943 -23.838  0.00  0.00    +0.102 C 
ATOM      8  C   UNL     1      -2.919   4.744 -24.557  0.00  0.00    +0.019 C 
ATOM      9  O   UNL     1      -3.879   2.679 -22.879  0.00  0.00    -0.251 OA
ATOM     10  C   UNL     1      -0.893   3.949 -23.764  0.00  0.00    +0.048 C 
ATOM     11  C   UNL     1       0.007   4.693 -24.335  0.00  0.00    +0.009 C 
ATOM     12  C   UNL     1       1.268   4.493 -24.089  0.00  0.00    +0.015 C 
ATOM     13  C   UNL     1       1.629   3.548 -23.272  0.00  0.00    +0.011 C 
ATOM     14  C   UNL     1       2.889   3.347 -23.026  0.00  0.00    -0.012 C 
ATOM     15  C   UNL     1       3.250   2.403 -22.210  0.00  0.00    +0.048 C 
ATOM     16  C   UNL     1       2.529   4.293 -23.843  0.00  0.00    +0.020 C 
ATOM     17  C   UNL     1       2.350   1.658 -21.639  0.00  0.00    +0.182 C 
ATOM     18  O   UNL     1       2.711   0.713 -20.822  0.00  0.00    -0.288 OA
ENDROOT
TORSDOF 0
ENDMDL
MODEL 8
REMARK VINA RESULT:    -8.514      2.986      6.843
REMARK INTER + INTRA:          -8.514
REMARK INTER:                  -8.514
REMARK INTRA:                   0.000
REMARK UNBOUND:                 0.000
REMARK  Name = ZINC000003881689
REMARK  3 active torsions:
REMARK  status: ('A' for Active; 'I' for Inactive)
REMARK    1  A    between atoms: C_1  and  C_2
REMARK    2  A    between atoms: C_8  and  C_9
REMARK    3  A    between atoms: C_13  and  C_14
REMARK                            x       y       z     vdW  Elec       q    Type
REMARK                         _______ _______ _______ _____ _____    ______ ____
ROOT
ATOM      1  C   UNL     1       2.953   0.461 -22.480  0.00  0.00    +0.048 C 
ATOM      2  C   UNL     1       3.661   1.547 -22.575  0.00  0.00    -0.000 C 
ATOM      3  C   UNL     1       3.086   2.676 -22.866  0.00  0.00    -0.013 C 
ATOM      4  C   UNL     1       1.801   2.718 -23.063  0.00  0.00    +0.208 C 
ATOM      5  O   UNL     1       0.885   1.797 -23.029  0.00  0.00    -0.456 OA
ATOM      6  C   UNL     1      -0.257   2.357 -23.299  0.00  0.00    +0.311 C 
ATOM      7  C   UNL     1      -0.046   3.624 -23.500  0.00  0.00    +0.102 C 
ATOM      8  C   UNL     1      -0.949   4.511 -23.795  0.00  0.00    +0.019 C 
ATOM      9  O   UNL     1      -1.407   1.755 -23.358  0.00  0.00    -0.251 OA
ATOM     10  C   UNL     1       1.226   3.847 -23.354  0.00  0.00    +0.048 C 
ATOM     11  C   UNL     1       1.934   4.933 -23.449  0.00  0.00    +0.009 C 
ATOM     12  C   UNL     1       3.219   4.891 -23.252  0.00  0.00    +0.015 C 
ATOM     13  C   UNL     1       3.794   3.762 -22.961  0.00  0.00    +0.011 C 
ATOM     14  C   UNL     1       5.079   3.718 -22.764  0.00  0.00    -0.012 C 
ATOM     15  C   UNL     1       5.654   2.591 -22.473  0.00  0.00    +0.048 C 
ATOM     16  C   UNL     1       4.503   4.848 -23.055  0.00  0.00    +0.020 C 
ATOM     17  C   UNL     1       4.946   1.505 -22.378  0.00  0.00    +0.182 C 
ATOM     18  O   UNL     1       5.521   0.376 -22.087  0.00  0.00    -0.288 OA
ENDROOT
TORSDOF 0
ENDMDL
