MODEL 1
REMARK VINA RESULT:    -7.162      0.000      0.000
REMARK INTER + INTRA:          -7.322
REMARK INTER:                  -7.379
REMARK INTRA:                   0.057
REMARK UNBOUND:                 0.050
REMARK  Name = ZINC000002569741
REMARK  2 active torsions:
REMARK  status: ('A' for Active; 'I' for Inactive)
REMARK    1  A    between atoms: C_1  and  N_2
REMARK    2  A    between atoms: C_6  and  C_7
REMARK                            x       y       z     vdW  Elec       q    Type
REMARK                         _______ _______ _______ _____ _____    ______ ____
ROOT
ATOM      1  C   UNL     1      -4.766   3.213 -22.350  0.00  0.00    +0.191 C 
ATOM      2  N   UNL     1      -4.482   3.364 -22.773  0.00  0.00    +0.241 N 
ATOM      3  H   UNL     1      -3.946   3.657 -23.589  0.00  0.00    +0.204 HD
ATOM      4  C   UNL     1      -5.184   3.686 -23.316  0.00  0.00    +0.069 C 
ATOM      5  C   UNL     1      -4.675   4.145 -24.503  0.00  0.00    +0.082 C 
ATOM      6  C   UNL     1      -3.231   3.998 -24.563  0.00  0.00    -0.011 C 
ATOM      7  C   UNL     1      -2.669   3.405 -23.363  0.00  0.00    +0.019 C 
ATOM      8  C   UNL     1      -5.930   3.270 -22.163  0.00  0.00    +0.060 C 
ATOM      9  C   UNL     1      -4.469   2.731 -21.333  0.00  0.00    +0.065 C 
ATOM     10  C   UNL     1      -3.636   3.114 -22.435  0.00  0.00    +0.097 C 
ENDROOT
BRANCH   7  11
ATOM     11  C   UNL     1      -1.272   3.202 -23.282  0.00  0.00    +0.073 C 
ATOM     12  O   UNL     1      -0.471   4.275 -22.842  0.00  0.00    -0.545 OA
ATOM     13  O   UNL     1      -0.681   2.002 -23.617  0.00  0.00    -0.545 OA
ENDBRANCH   7  11
TORSDOF 1
ENDMDL
MODEL 2
REMARK VINA RESULT:    -6.952      0.926      2.181
REMARK INTER + INTRA:          -7.105
REMARK INTER:                  -7.164
REMARK INTRA:                   0.059
REMARK UNBOUND:                 0.050
REMARK  Name = ZINC000002569741
REMARK  2 active torsions:
REMARK  status: ('A' for Active; 'I' for Inactive)
REMARK    1  A    between atoms: C_1  and  N_2
REMARK    2  A    between atoms: C_6  and  C_7
REMARK                            x       y       z     vdW  Elec       q    Type
REMARK                         _______ _______ _______ _____ _____    ______ ____
ROOT
ATOM      1  C   UNL     1      -4.906   3.430 -22.587  0.00  0.00    +0.191 C 
ATOM      2  N   UNL     1      -4.432   3.389 -22.352  0.00  0.00    +0.241 N 
ATOM      3  H   UNL     1      -3.525   3.308 -21.894  0.00  0.00    +0.204 HD
ATOM      4  C   UNL     1      -4.709   3.068 -21.509  0.00  0.00    +0.069 C 
ATOM      5  C   UNL     1      -3.615   2.880 -20.704  0.00  0.00    +0.082 C 
ATOM      6  C   UNL     1      -2.380   3.229 -21.384  0.00  0.00    -0.011 C 
ATOM      7  C   UNL     1      -2.589   3.690 -22.744  0.00  0.00    +0.019 C 
ATOM      8  C   UNL     1      -5.980   3.186 -22.163  0.00  0.00    +0.060 C 
ATOM      9  C   UNL     1      -5.233   3.776 -23.649  0.00  0.00    +0.065 C 
ATOM     10  C   UNL     1      -3.918   3.693 -23.085  0.00  0.00    +0.097 C 
ENDROOT
BRANCH   7  11
ATOM     11  C   UNL     1      -1.472   4.064 -23.527  0.00  0.00    +0.073 C 
ATOM     12  O   UNL     1      -0.946   3.115 -24.425  0.00  0.00    -0.545 OA
ATOM     13  O   UNL     1      -0.895   5.312 -23.436  0.00  0.00    -0.545 OA
ENDBRANCH   7  11
TORSDOF 1
ENDMDL
MODEL 3
REMARK VINA RESULT:    -6.810      2.261      3.313
REMARK INTER + INTRA:          -6.959
REMARK INTER:                  -7.012
REMARK INTRA:                   0.053
REMARK UNBOUND:                 0.050
REMARK  Name = ZINC000002569741
REMARK  2 active torsions:
REMARK  status: ('A' for Active; 'I' for Inactive)
REMARK    1  A    between atoms: C_1  and  N_2
REMARK    2  A    between atoms: C_6  and  C_7
REMARK                            x       y       z     vdW  Elec       q    Type
REMARK                         _______ _______ _______ _____ _____    ______ ____
ROOT
ATOM      1  C   UNL     1      -2.404   2.611 -22.384  0.00  0.00    +0.191 C 
ATOM      2  N   UNL     1      -2.908   2.771 -22.426  0.00  0.00    +0.241 N 
ATOM      3  H   UNL     1      -3.878   3.076 -22.498  0.00  0.00    +0.204 HD
ATOM      4  C   UNL     1      -3.184   2.629 -21.534  0.00  0.00    +0.069 C 
ATOM      5  C   UNL     1      -4.502   2.986 -21.398  0.00  0.00    +0.082 C 
ATOM      6  C   UNL     1      -5.062   3.465 -22.649  0.00  0.00    -0.011 C 
ATOM      7  C   UNL     1      -4.107   3.456 -23.742  0.00  0.00    +0.019 C 
ATOM      8  C   UNL     1      -1.818   2.202 -21.444  0.00  0.00    +0.060 C 
ATOM      9  C   UNL     1      -1.531   2.544 -23.151  0.00  0.00    +0.065 C 
ATOM     10  C   UNL     1      -2.879   2.992 -23.344  0.00  0.00    +0.097 C 
ENDROOT
BRANCH   7  11
ATOM     11  C   UNL     1      -4.517   3.898 -25.021  0.00  0.00    +0.073 C 
ATOM     12  O   UNL     1      -4.308   5.251 -25.352  0.00  0.00    -0.545 OA
ATOM     13  O   UNL     1      -5.105   3.053 -25.938  0.00  0.00    -0.545 OA
ENDBRANCH   7  11
TORSDOF 1
ENDMDL
MODEL 4
REMARK VINA RESULT:    -6.721      0.872      2.231
REMARK INTER + INTRA:          -6.868
REMARK INTER:                  -6.965
REMARK INTRA:                   0.098
REMARK UNBOUND:                 0.050
REMARK  Name = ZINC000002569741
REMARK  2 active torsions:
REMARK  status: ('A' for Active; 'I' for Inactive)
REMARK    1  A    between atoms: C_1  and  N_2
REMARK    2  A    between atoms: C_6  and  C_7
REMARK                            x       y       z     vdW  Elec       q    Type
REMARK                         _______ _______ _______ _____ _____    ______ ____
ROOT
ATOM      1  C   UNL     1      -4.126   3.535 -23.317  0.00  0.00    +0.191 C 
ATOM      2  N   UNL     1      -3.801   3.379 -22.928  0.00  0.00    +0.241 N 
ATOM      3  H   UNL     1      -3.183   3.079 -22.174  0.00  0.00    +0.204 HD
ATOM      4  C   UNL     1      -4.432   3.295 -22.231  0.00  0.00    +0.069 C 
ATOM      5  C   UNL     1      -3.800   2.888 -21.084  0.00  0.00    +0.082 C 
ATOM      6  C   UNL     1      -2.373   2.712 -21.288  0.00  0.00    -0.011 C 
ATOM      7  C   UNL     1      -1.951   3.006 -22.646  0.00  0.00    +0.019 C 
ATOM      8  C   UNL     1      -5.292   3.718 -23.298  0.00  0.00    +0.060 C 
ATOM      9  C   UNL     1      -3.945   3.804 -24.435  0.00  0.00    +0.065 C 
ATOM     10  C   UNL     1      -3.005   3.386 -23.437  0.00  0.00    +0.097 C 
ENDROOT
BRANCH   7  11
ATOM     11  C   UNL     1      -0.585   2.877 -22.988  0.00  0.00    +0.073 C 
ATOM     12  O   UNL     1      -0.063   1.578 -23.147  0.00  0.00    -0.545 OA
ATOM     13  O   UNL     1       0.235   3.970 -23.168  0.00  0.00    -0.545 OA
ENDBRANCH   7  11
TORSDOF 1
ENDMDL
MODEL 5
REMARK VINA RESULT:    -6.653      2.040      2.918
REMARK INTER + INTRA:          -6.797
REMARK INTER:                  -6.850
REMARK INTRA:                   0.052
REMARK UNBOUND:                 0.050
REMARK  Name = ZINC000002569741
REMARK  2 active torsions:
REMARK  status: ('A' for Active; 'I' for Inactive)
REMARK    1  A    between atoms: C_1  and  N_2
REMARK    2  A    between atoms: C_6  and  C_7
REMARK                            x       y       z     vdW  Elec       q    Type
REMARK                         _______ _______ _______ _____ _____    ______ ____
ROOT
ATOM      1  C   UNL     1      -4.072   2.911 -21.693  0.00  0.00    +0.191 C 
ATOM      2  N   UNL     1      -3.696   2.995 -22.058  0.00  0.00    +0.241 N 
ATOM      3  H   UNL     1      -2.967   3.155 -22.752  0.00  0.00    +0.204 HD
ATOM      4  C   UNL     1      -2.935   2.798 -21.535  0.00  0.00    +0.069 C 
ATOM      5  C   UNL     1      -1.803   2.953 -22.294  0.00  0.00    +0.082 C 
ATOM      6  C   UNL     1      -2.116   3.368 -23.650  0.00  0.00    -0.011 C 
ATOM      7  C   UNL     1      -3.540   3.520 -23.885  0.00  0.00    +0.019 C 
ATOM      8  C   UNL     1      -3.968   2.575 -20.566  0.00  0.00    +0.060 C 
ATOM      9  C   UNL     1      -5.233   2.988 -21.725  0.00  0.00    +0.065 C 
ATOM     10  C   UNL     1      -4.277   3.235 -22.764  0.00  0.00    +0.097 C 
ENDROOT
BRANCH   7  11
ATOM     11  C   UNL     1      -3.991   3.920 -25.164  0.00  0.00    +0.073 C 
ATOM     12  O   UNL     1      -4.256   2.916 -26.117  0.00  0.00    -0.545 OA
ATOM     13  O   UNL     1      -4.175   5.244 -25.499  0.00  0.00    -0.545 OA
ENDBRANCH   7  11
TORSDOF 1
ENDMDL
MODEL 6
REMARK VINA RESULT:    -6.291      3.003      4.449
REMARK INTER + INTRA:          -6.425
REMARK INTER:                  -6.476
REMARK INTRA:                   0.051
REMARK UNBOUND:                 0.050
REMARK  Name = ZINC000002569741
REMARK  2 active torsions:
REMARK  status: ('A' for Active; 'I' for Inactive)
REMARK    1  A    between atoms: C_1  and  N_2
REMARK    2  A    between atoms: C_6  and  C_7
REMARK                            x       y       z     vdW  Elec       q    Type
REMARK                         _______ _______ _______ _____ _____    ______ ____
ROOT
ATOM      1  C   UNL     1       0.091   2.326 -22.298  0.00  0.00    +0.191 C 
ATOM      2  N   UNL     1      -0.250   2.730 -22.349  0.00  0.00    +0.241 N 
ATOM      3  H   UNL     1      -0.900   3.509 -22.454  0.00  0.00    +0.204 HD
ATOM      4  C   UNL     1       0.221   3.243 -22.986  0.00  0.00    +0.069 C 
ATOM      5  C   UNL     1      -0.493   4.376 -23.284  0.00  0.00    +0.082 C 
ATOM      6  C   UNL     1      -1.738   4.439 -22.540  0.00  0.00    -0.011 C 
ATOM      7  C   UNL     1      -1.936   3.300 -21.662  0.00  0.00    +0.019 C 
ATOM      8  C   UNL     1       1.128   2.143 -22.831  0.00  0.00    +0.060 C 
ATOM      9  C   UNL     1       0.076   1.359 -21.650  0.00  0.00    +0.065 C 
ATOM     10  C   UNL     1      -0.893   2.412 -21.734  0.00  0.00    +0.097 C 
ENDROOT
BRANCH   7  11
ATOM     11  C   UNL     1      -3.109   3.230 -20.875  0.00  0.00    +0.073 C 
ATOM     12  O   UNL     1      -4.252   2.634 -21.443  0.00  0.00    -0.545 OA
ATOM     13  O   UNL     1      -3.162   3.720 -19.588  0.00  0.00    -0.545 OA
ENDBRANCH   7  11
TORSDOF 1
ENDMDL
MODEL 7
REMARK VINA RESULT:    -6.281      3.585      4.687
REMARK INTER + INTRA:          -6.415
REMARK INTER:                  -6.468
REMARK INTRA:                   0.054
REMARK UNBOUND:                 0.050
REMARK  Name = ZINC000002569741
REMARK  2 active torsions:
REMARK  status: ('A' for Active; 'I' for Inactive)
REMARK    1  A    between atoms: C_1  and  N_2
REMARK    2  A    between atoms: C_6  and  C_7
REMARK                            x       y       z     vdW  Elec       q    Type
REMARK                         _______ _______ _______ _____ _____    ______ ____
ROOT
ATOM      1  C   UNL     1      -0.134   3.632 -23.064  0.00  0.00    +0.191 C 
ATOM      2  N   UNL     1      -0.151   3.213 -22.739  0.00  0.00    +0.241 N 
ATOM      3  H   UNL     1      -0.193   2.409 -22.113  0.00  0.00    +0.204 HD
ATOM      4  C   UNL     1      -1.045   3.287 -22.445  0.00  0.00    +0.069 C 
ATOM      5  C   UNL     1      -1.327   2.274 -21.565  0.00  0.00    +0.082 C 
ATOM      6  C   UNL     1      -0.181   1.407 -21.357  0.00  0.00    -0.011 C 
ATOM      7  C   UNL     1       0.985   1.811 -22.121  0.00  0.00    +0.019 C 
ATOM      8  C   UNL     1      -0.977   4.415 -23.328  0.00  0.00    +0.060 C 
ATOM      9  C   UNL     1       0.707   4.079 -23.732  0.00  0.00    +0.065 C 
ATOM     10  C   UNL     1       0.740   2.930 -22.874  0.00  0.00    +0.097 C 
ENDROOT
BRANCH   7  11
ATOM     11  C   UNL     1       2.176   1.056 -22.015  0.00  0.00    +0.073 C 
ATOM     12  O   UNL     1       3.137   1.465 -21.069  0.00  0.00    -0.545 OA
ATOM     13  O   UNL     1       2.419  -0.051 -22.799  0.00  0.00    -0.545 OA
ENDBRANCH   7  11
TORSDOF 1
ENDMDL
MODEL 8
REMARK VINA RESULT:    -6.019      3.285      3.834
REMARK INTER + INTRA:          -6.145
REMARK INTER:                  -6.195
REMARK INTRA:                   0.050
REMARK UNBOUND:                 0.050
REMARK  Name = ZINC000002569741
REMARK  2 active torsions:
REMARK  status: ('A' for Active; 'I' for Inactive)
REMARK    1  A    between atoms: C_1  and  N_2
REMARK    2  A    between atoms: C_6  and  C_7
REMARK                            x       y       z     vdW  Elec       q    Type
REMARK                         _______ _______ _______ _____ _____    ______ ____
ROOT
ATOM      1  C   UNL     1      -0.756   2.570 -22.132  0.00  0.00    +0.191 C 
ATOM      2  N   UNL     1      -0.629   2.983 -22.441  0.00  0.00    +0.241 N 
ATOM      3  H   UNL     1      -0.392   3.779 -23.032  0.00  0.00    +0.204 HD
ATOM      4  C   UNL     1      -1.310   3.581 -22.180  0.00  0.00    +0.069 C 
ATOM      5  C   UNL     1      -1.180   4.758 -22.873  0.00  0.00    +0.082 C 
ATOM      6  C   UNL     1      -0.050   4.724 -23.784  0.00  0.00    -0.011 C 
ATOM      7  C   UNL     1       0.673   3.466 -23.750  0.00  0.00    +0.019 C 
ATOM      8  C   UNL     1      -1.636   2.456 -21.353  0.00  0.00    +0.060 C 
ATOM      9  C   UNL     1      -0.286   1.515 -21.992  0.00  0.00    +0.065 C 
ATOM     10  C   UNL     1       0.120   2.583 -22.857  0.00  0.00    +0.097 C 
ENDROOT
BRANCH   7  11
ATOM     11  C   UNL     1       1.799   3.292 -24.587  0.00  0.00    +0.073 C 
ATOM     12  O   UNL     1       3.064   3.640 -24.075  0.00  0.00    -0.545 OA
ATOM     13  O   UNL     1       1.694   2.799 -25.870  0.00  0.00    -0.545 OA
ENDBRANCH   7  11
TORSDOF 1
ENDMDL
MODEL 9
REMARK VINA RESULT:    -5.996      3.478      4.722
REMARK INTER + INTRA:          -6.122
REMARK INTER:                  -6.189
REMARK INTRA:                   0.067
REMARK UNBOUND:                 0.050
REMARK  Name = ZINC000002569741
REMARK  2 active torsions:
REMARK  status: ('A' for Active; 'I' for Inactive)
REMARK    1  A    between atoms: C_1  and  N_2
REMARK    2  A    between atoms: C_6  and  C_7
REMARK                            x       y       z     vdW  Elec       q    Type
REMARK                         _______ _______ _______ _____ _____    ______ ____
ROOT
ATOM      1  C   UNL     1      -0.544   3.432 -22.866  0.00  0.00    +0.191 C 
ATOM      2  N   UNL     1      -0.018   3.401 -22.933  0.00  0.00    +0.241 N 
ATOM      3  H   UNL     1       0.991   3.349 -23.066  0.00  0.00    +0.204 HD
ATOM      4  C   UNL     1       0.118   4.199 -23.419  0.00  0.00    +0.069 C 
ATOM      5  C   UNL     1       1.450   4.336 -23.714  0.00  0.00    +0.082 C 
ATOM      6  C   UNL     1       2.234   3.228 -23.198  0.00  0.00    -0.011 C 
ATOM      7  C   UNL     1       1.433   2.242 -22.495  0.00  0.00    +0.019 C 
ATOM      8  C   UNL     1      -1.302   4.263 -23.226  0.00  0.00    +0.060 C 
ATOM      9  C   UNL     1      -1.315   2.738 -22.338  0.00  0.00    +0.065 C 
ATOM     10  C   UNL     1       0.104   2.582 -22.477  0.00  0.00    +0.097 C 
ENDROOT
BRANCH   7  11
ATOM     11  C   UNL     1       2.065   1.107 -21.938  0.00  0.00    +0.073 C 
ATOM     12  O   UNL     1       2.347   0.022 -22.791  0.00  0.00    -0.545 OA
ATOM     13  O   UNL     1       2.408   1.035 -20.605  0.00  0.00    -0.545 OA
ENDBRANCH   7  11
TORSDOF 1
ENDMDL
