MODEL 1
REMARK VINA RESULT:   -10.763      0.000      0.000
REMARK INTER + INTRA:         -10.753
REMARK INTER:                 -11.671
REMARK INTRA:                   0.918
REMARK UNBOUND:                 1.269
REMARK  Name = ZINC000096316332
REMARK  5 active torsions:
REMARK  status: ('A' for Active; 'I' for Inactive)
REMARK    1  A    between atoms: C_1  and  O_2
REMARK    2  A    between atoms: O_2  and  C_3
REMARK    3  A    between atoms: C_12  and  O_13
REMARK    4  A    between atoms: O_13  and  C_14
REMARK    5  A    between atoms: N_20  and  C_21
REMARK                            x       y       z     vdW  Elec       q    Type
REMARK                         _______ _______ _______ _____ _____    ______ ____
ROOT
ATOM      1  C   UNL     1      -3.369   3.944 -25.465  0.00  0.00    +0.135 C 
ATOM      2  C   UNL     1      -4.458   3.946 -24.823  0.00  0.00    +0.018 C 
ATOM      3  C   UNL     1      -4.501   3.535 -23.642  0.00  0.00    +0.040 C 
ATOM      4  C   UNL     1      -3.448   3.115 -23.082  0.00  0.00    +0.056 C 
ATOM      5  C   UNL     1      -3.496   2.701 -21.887  0.00  0.00    +0.073 C 
ATOM      6  C   UNL     1      -2.456   2.285 -21.331  0.00  0.00    +0.090 C 
ATOM      7  C   UNL     1      -1.349   2.277 -21.966  0.00  0.00    -0.034 A 
ATOM      8  C   UNL     1      -0.308   1.860 -21.409  0.00  0.00    +0.008 A 
ATOM      9  C   UNL     1       0.774   1.855 -22.036  0.00  0.00    +0.050 A 
ATOM     10  C   UNL     1       0.824   2.268 -23.231  0.00  0.00    +0.162 A 
ATOM     11  C   UNL     1      -0.232   2.689 -23.791  0.00  0.00    +0.167 A 
ATOM     12  O   UNL     1      -0.845   3.260 -25.036  0.00  0.00    -0.476 OA
ATOM     13  C   UNL     1      -1.323   2.693 -23.155  0.00  0.00    +0.012 A 
ATOM     14  N   UNL     1      -4.735   3.154 -22.427  0.00  0.00    +0.236 N 
ATOM     15  H   UNL     1      -5.601   3.144 -21.887  0.00  0.00    +0.203 HD
ATOM     16  C   UNL     1      -5.788   3.136 -21.752  0.00  0.00    +0.190 C 
ATOM     17  C   UNL     1      -4.717   3.622 -23.759  0.00  0.00    +0.132 C 
ATOM     18  C   UNL     1      -3.482   3.604 -24.440  0.00  0.00    +0.067 C 
ATOM     19  C   UNL     1      -2.364   3.108 -23.706  0.00  0.00    +0.057 C 
ATOM     20  C   UNL     1      -2.328   3.527 -24.907  0.00  0.00    +0.249 C 
ENDROOT
BRANCH   1  22
ATOM     21  C   UNL     1      -3.356   3.538 -27.592  0.00  0.00    +0.276 C 
ATOM     22  O   UNL     1      -3.330   4.354 -26.645  0.00  0.00    -0.496 OA
ENDBRANCH   1  22
BRANCH  10  23
ATOM     23  O   UNL     1       1.909   2.261 -23.854  0.00  0.00    -0.491 OA
ATOM     24  C   UNL     1       2.625   3.287 -23.880  0.00  0.00    +0.277 C 
ENDBRANCH  10  23
TORSDOF 2
ENDMDL
MODEL 2
REMARK VINA RESULT:   -10.180      2.248      5.660
REMARK INTER + INTRA:         -10.101
REMARK INTER:                 -11.356
REMARK INTRA:                   1.256
REMARK UNBOUND:                 1.269
REMARK  Name = ZINC000096316332
REMARK  5 active torsions:
REMARK  status: ('A' for Active; 'I' for Inactive)
REMARK    1  A    between atoms: C_1  and  O_2
REMARK    2  A    between atoms: O_2  and  C_3
REMARK    3  A    between atoms: C_12  and  O_13
REMARK    4  A    between atoms: O_13  and  C_14
REMARK    5  A    between atoms: N_20  and  C_21
REMARK                            x       y       z     vdW  Elec       q    Type
REMARK                         _______ _______ _______ _____ _____    ______ ____
ROOT
ATOM      1  C   UNL     1       0.076   1.855 -21.696  0.00  0.00    +0.135 C 
ATOM      2  C   UNL     1       0.924   2.035 -22.616  0.00  0.00    +0.018 C 
ATOM      3  C   UNL     1       0.584   2.554 -23.703  0.00  0.00    +0.040 C 
ATOM      4  C   UNL     1      -0.618   2.902 -23.886  0.00  0.00    +0.056 C 
ATOM      5  C   UNL     1      -0.958   3.426 -24.987  0.00  0.00    +0.073 C 
ATOM      6  C   UNL     1      -2.146   3.771 -25.171  0.00  0.00    +0.090 C 
ATOM      7  C   UNL     1      -3.014   3.595 -24.250  0.00  0.00    -0.034 A 
ATOM      8  C   UNL     1      -4.204   3.941 -24.435  0.00  0.00    +0.008 A 
ATOM      9  C   UNL     1      -5.049   3.766 -23.531  0.00  0.00    +0.050 A 
ATOM     10  C   UNL     1      -4.711   3.242 -22.430  0.00  0.00    +0.162 A 
ATOM     11  C   UNL     1      -3.507   2.894 -22.247  0.00  0.00    +0.167 A 
ATOM     12  O   UNL     1      -2.509   2.285 -21.305  0.00  0.00    -0.476 OA
ATOM     13  C   UNL     1      -2.655   3.072 -23.163  0.00  0.00    +0.012 A 
ATOM     14  N   UNL     1       0.418   3.069 -24.879  0.00  0.00    +0.236 N 
ATOM     15  H   UNL     1       1.082   3.226 -25.637  0.00  0.00    +0.203 HD
ATOM     16  C   UNL     1       1.221   3.268 -25.818  0.00  0.00    +0.190 C 
ATOM     17  C   UNL     1       0.831   2.482 -23.664  0.00  0.00    +0.132 C 
ATOM     18  C   UNL     1      -0.145   2.298 -22.663  0.00  0.00    +0.067 C 
ATOM     19  C   UNL     1      -1.467   2.729 -22.983  0.00  0.00    +0.057 C 
ATOM     20  C   UNL     1      -1.114   2.201 -21.881  0.00  0.00    +0.249 C 
ENDROOT
BRANCH   1  22
ATOM     21  C   UNL     1       1.597   1.460 -20.206  0.00  0.00    +0.276 C 
ATOM     22  O   UNL     1       0.420   1.337 -20.613  0.00  0.00    -0.496 OA
ENDBRANCH   1  22
BRANCH  10  23
ATOM     23  O   UNL     1      -5.561   3.069 -21.528  0.00  0.00    -0.491 OA
ATOM     24  C   UNL     1      -6.689   2.606 -21.808  0.00  0.00    +0.277 C 
ENDBRANCH  10  23
TORSDOF 2
ENDMDL
MODEL 3
REMARK VINA RESULT:    -9.964      1.957      3.502
REMARK INTER + INTRA:          -9.860
REMARK INTER:                 -10.794
REMARK INTRA:                   0.933
REMARK UNBOUND:                 1.269
REMARK  Name = ZINC000096316332
REMARK  5 active torsions:
REMARK  status: ('A' for Active; 'I' for Inactive)
REMARK    1  A    between atoms: C_1  and  O_2
REMARK    2  A    between atoms: O_2  and  C_3
REMARK    3  A    between atoms: C_12  and  O_13
REMARK    4  A    between atoms: O_13  and  C_14
REMARK    5  A    between atoms: N_20  and  C_21
REMARK                            x       y       z     vdW  Elec       q    Type
REMARK                         _______ _______ _______ _____ _____    ______ ____
ROOT
ATOM      1  C   UNL     1      -2.991   2.855 -21.861  0.00  0.00    +0.135 C 
ATOM      2  C   UNL     1      -3.741   3.232 -22.806  0.00  0.00    +0.018 C 
ATOM      3  C   UNL     1      -3.270   3.449 -23.945  0.00  0.00    +0.040 C 
ATOM      4  C   UNL     1      -2.032   3.291 -24.155  0.00  0.00    +0.056 C 
ATOM      5  C   UNL     1      -1.559   3.512 -25.308  0.00  0.00    +0.073 C 
ATOM      6  C   UNL     1      -0.336   3.356 -25.518  0.00  0.00    +0.090 C 
ATOM      7  C   UNL     1       0.434   2.976 -24.573  0.00  0.00    -0.034 A 
ATOM      8  C   UNL     1       1.658   2.820 -24.785  0.00  0.00    +0.008 A 
ATOM      9  C   UNL     1       2.407   2.448 -23.855  0.00  0.00    +0.050 A 
ATOM     10  C   UNL     1       1.936   2.227 -22.701  0.00  0.00    +0.162 A 
ATOM     11  C   UNL     1       0.696   2.385 -22.492  0.00  0.00    +0.167 A 
ATOM     12  O   UNL     1      -0.423   2.317 -21.494  0.00  0.00    -0.476 OA
ATOM     13  C   UNL     1      -0.058   2.762 -23.433  0.00  0.00    +0.012 A 
ATOM     14  N   UNL     1      -2.964   3.718 -25.173  0.00  0.00    +0.236 N 
ATOM     15  H   UNL     1      -3.546   4.023 -25.953  0.00  0.00    +0.203 HD
ATOM     16  C   UNL     1      -3.665   4.092 -26.139  0.00  0.00    +0.190 C 
ATOM     17  C   UNL     1      -3.524   3.481 -23.900  0.00  0.00    +0.132 C 
ATOM     18  C   UNL     1      -2.654   3.062 -22.872  0.00  0.00    +0.067 C 
ATOM     19  C   UNL     1      -1.280   2.918 -23.227  0.00  0.00    +0.057 C 
ATOM     20  C   UNL     1      -1.767   2.700 -22.073  0.00  0.00    +0.249 C 
ENDROOT
BRANCH   1  22
ATOM     21  C   UNL     1      -3.349   3.499 -19.824  0.00  0.00    +0.276 C 
ATOM     22  O   UNL     1      -3.467   2.640 -20.725  0.00  0.00    -0.496 OA
ENDBRANCH   1  22
BRANCH  10  23
ATOM     23  O   UNL     1       2.689   1.854 -21.775  0.00  0.00    -0.491 OA
ATOM     24  C   UNL     1       3.112   0.677 -21.744  0.00  0.00    +0.277 C 
ENDBRANCH  10  23
TORSDOF 2
ENDMDL
MODEL 4
REMARK VINA RESULT:    -9.336      1.634      4.653
REMARK INTER + INTRA:          -9.158
REMARK INTER:                 -10.136
REMARK INTRA:                   0.977
REMARK UNBOUND:                 1.269
REMARK  Name = ZINC000096316332
REMARK  5 active torsions:
REMARK  status: ('A' for Active; 'I' for Inactive)
REMARK    1  A    between atoms: C_1  and  O_2
REMARK    2  A    between atoms: O_2  and  C_3
REMARK    3  A    between atoms: C_12  and  O_13
REMARK    4  A    between atoms: O_13  and  C_14
REMARK    5  A    between atoms: N_20  and  C_21
REMARK                            x       y       z     vdW  Elec       q    Type
REMARK                         _______ _______ _______ _____ _____    ______ ____
ROOT
ATOM      1  C   UNL     1       0.453   2.884 -24.472  0.00  0.00    +0.135 C 
ATOM      2  C   UNL     1       1.148   2.412 -23.527  0.00  0.00    +0.018 C 
ATOM      3  C   UNL     1       0.626   2.154 -22.420  0.00  0.00    +0.040 C 
ATOM      4  C   UNL     1      -0.608   2.367 -22.241  0.00  0.00    +0.056 C 
ATOM      5  C   UNL     1      -1.133   2.105 -21.119  0.00  0.00    +0.073 C 
ATOM      6  C   UNL     1      -2.353   2.314 -20.939  0.00  0.00    +0.090 C 
ATOM      7  C   UNL     1      -3.067   2.790 -21.884  0.00  0.00    -0.034 A 
ATOM      8  C   UNL     1      -4.289   2.999 -21.703  0.00  0.00    +0.008 A 
ATOM      9  C   UNL     1      -4.984   3.466 -22.631  0.00  0.00    +0.050 A 
ATOM     10  C   UNL     1      -4.461   3.728 -23.754  0.00  0.00    +0.162 A 
ATOM     11  C   UNL     1      -3.225   3.515 -23.932  0.00  0.00    +0.167 A 
ATOM     12  O   UNL     1      -2.069   3.581 -24.888  0.00  0.00    -0.476 OA
ATOM     13  C   UNL     1      -2.525   3.044 -22.992  0.00  0.00    +0.012 A 
ATOM     14  N   UNL     1       0.263   1.831 -21.220  0.00  0.00    +0.236 N 
ATOM     15  H   UNL     1       0.800   1.449 -20.442  0.00  0.00    +0.203 HD
ATOM     16  C   UNL     1       0.909   1.363 -20.256  0.00  0.00    +0.190 C 
ATOM     17  C   UNL     1       0.879   2.111 -22.458  0.00  0.00    +0.132 C 
ATOM     18  C   UNL     1       0.070   2.637 -23.486  0.00  0.00    +0.067 C 
ATOM     19  C   UNL     1      -1.307   2.834 -23.168  0.00  0.00    +0.057 C 
ATOM     20  C   UNL     1      -0.769   3.093 -24.290  0.00  0.00    +0.249 C 
ENDROOT
BRANCH   1  22
ATOM     21  C   UNL     1       1.330   4.310 -25.846  0.00  0.00    +0.276 C 
ATOM     22  O   UNL     1       0.979   3.140 -25.576  0.00  0.00    -0.496 OA
ENDBRANCH   1  22
BRANCH  10  23
ATOM     23  O   UNL     1      -5.161   4.195 -24.680  0.00  0.00    -0.491 OA
ATOM     24  C   UNL     1      -5.309   3.549 -25.742  0.00  0.00    +0.277 C 
ENDBRANCH  10  23
TORSDOF 2
ENDMDL
MODEL 5
REMARK VINA RESULT:    -9.249      2.946      6.953
REMARK INTER + INTRA:          -9.061
REMARK INTER:                 -10.236
REMARK INTRA:                   1.175
REMARK UNBOUND:                 1.269
REMARK  Name = ZINC000096316332
REMARK  5 active torsions:
REMARK  status: ('A' for Active; 'I' for Inactive)
REMARK    1  A    between atoms: C_1  and  O_2
REMARK    2  A    between atoms: O_2  and  C_3
REMARK    3  A    between atoms: C_12  and  O_13
REMARK    4  A    between atoms: O_13  and  C_14
REMARK    5  A    between atoms: N_20  and  C_21
REMARK                            x       y       z     vdW  Elec       q    Type
REMARK                         _______ _______ _______ _____ _____    ______ ____
ROOT
ATOM      1  C   UNL     1       3.503   1.324 -21.961  0.00  0.00    +0.135 C 
ATOM      2  C   UNL     1       4.505   2.088 -22.049  0.00  0.00    +0.018 C 
ATOM      3  C   UNL     1       4.376   3.261 -22.468  0.00  0.00    +0.040 C 
ATOM      4  C   UNL     1       3.234   3.687 -22.806  0.00  0.00    +0.056 C 
ATOM      5  C   UNL     1       3.108   4.873 -23.229  0.00  0.00    +0.073 C 
ATOM      6  C   UNL     1       1.980   5.297 -23.564  0.00  0.00    +0.090 C 
ATOM      7  C   UNL     1       0.958   4.536 -23.480  0.00  0.00    -0.034 A 
ATOM      8  C   UNL     1      -0.171   4.962 -23.815  0.00  0.00    +0.008 A 
ATOM      9  C   UNL     1      -1.167   4.212 -23.731  0.00  0.00    +0.050 A 
ATOM     10  C   UNL     1      -1.044   3.025 -23.309  0.00  0.00    +0.162 A 
ATOM     11  C   UNL     1       0.101   2.599 -22.970  0.00  0.00    +0.167 A 
ATOM     12  O   UNL     1       0.900   1.443 -22.443  0.00  0.00    -0.476 OA
ATOM     13  C   UNL     1       1.106   3.359 -23.056  0.00  0.00    +0.012 A 
ATOM     14  N   UNL     1       4.434   4.489 -22.873  0.00  0.00    +0.236 N 
ATOM     15  H   UNL     1       5.226   5.126 -22.954  0.00  0.00    +0.203 HD
ATOM     16  C   UNL     1       5.396   5.282 -22.978  0.00  0.00    +0.190 C 
ATOM     17  C   UNL     1       4.610   3.171 -22.398  0.00  0.00    +0.132 C 
ATOM     18  C   UNL     1       3.467   2.350 -22.314  0.00  0.00    +0.067 C 
ATOM     19  C   UNL     1       2.234   2.940 -22.723  0.00  0.00    +0.057 C 
ATOM     20  C   UNL     1       2.373   1.749 -22.297  0.00  0.00    +0.249 C 
ENDROOT
BRANCH   1  22
ATOM     21  C   UNL     1       4.407  -0.085 -20.587  0.00  0.00    +0.276 C 
ATOM     22  O   UNL     1       3.636   0.154 -21.543  0.00  0.00    -0.496 OA
ENDBRANCH   1  22
BRANCH  10  23
ATOM     23  O   UNL     1      -2.044   2.278 -23.226  0.00  0.00    -0.491 OA
ATOM     24  C   UNL     1      -3.101   2.700 -22.705  0.00  0.00    +0.277 C 
ENDBRANCH  10  23
TORSDOF 2
ENDMDL
MODEL 6
REMARK VINA RESULT:    -8.684      1.996      4.515
REMARK INTER + INTRA:          -8.431
REMARK INTER:                  -9.500
REMARK INTRA:                   1.070
REMARK UNBOUND:                 1.269
REMARK  Name = ZINC000096316332
REMARK  5 active torsions:
REMARK  status: ('A' for Active; 'I' for Inactive)
REMARK    1  A    between atoms: C_1  and  O_2
REMARK    2  A    between atoms: O_2  and  C_3
REMARK    3  A    between atoms: C_12  and  O_13
REMARK    4  A    between atoms: O_13  and  C_14
REMARK    5  A    between atoms: N_20  and  C_21
REMARK                            x       y       z     vdW  Elec       q    Type
REMARK                         _______ _______ _______ _____ _____    ______ ____
ROOT
ATOM      1  C   UNL     1      -0.594   3.305 -24.635  0.00  0.00    +0.135 C 
ATOM      2  C   UNL     1      -0.906   3.426 -25.854  0.00  0.00    +0.018 C 
ATOM      3  C   UNL     1      -2.107   3.509 -26.197  0.00  0.00    +0.040 C 
ATOM      4  C   UNL     1      -3.018   3.471 -25.319  0.00  0.00    +0.056 C 
ATOM      5  C   UNL     1      -4.230   3.556 -25.671  0.00  0.00    +0.073 C 
ATOM      6  C   UNL     1      -5.133   3.519 -24.806  0.00  0.00    +0.090 C 
ATOM      7  C   UNL     1      -4.831   3.398 -23.571  0.00  0.00    -0.034 A 
ATOM      8  C   UNL     1      -5.736   3.361 -22.705  0.00  0.00    +0.008 A 
ATOM      9  C   UNL     1      -5.435   3.242 -21.497  0.00  0.00    +0.050 A 
ATOM     10  C   UNL     1      -4.223   3.158 -21.143  0.00  0.00    +0.162 A 
ATOM     11  C   UNL     1      -3.311   3.195 -22.023  0.00  0.00    +0.167 A 
ATOM     12  O   UNL     1      -1.836   3.154 -22.300  0.00  0.00    -0.476 OA
ATOM     13  C   UNL     1      -3.618   3.315 -23.243  0.00  0.00    +0.012 A 
ATOM     14  N   UNL     1      -3.281   3.607 -26.734  0.00  0.00    +0.236 N 
ATOM     15  H   UNL     1      -3.561   3.705 -27.710  0.00  0.00    +0.203 HD
ATOM     16  C   UNL     1      -3.640   3.728 -27.926  0.00  0.00    +0.190 C 
ATOM     17  C   UNL     1      -1.919   3.516 -26.376  0.00  0.00    +0.132 C 
ATOM     18  C   UNL     1      -1.611   3.382 -25.006  0.00  0.00    +0.067 C 
ATOM     19  C   UNL     1      -2.720   3.352 -24.110  0.00  0.00    +0.057 C 
ATOM     20  C   UNL     1      -1.498   3.268 -23.769  0.00  0.00    +0.249 C 
ENDROOT
BRANCH   1  22
ATOM     21  C   UNL     1       1.244   4.255 -23.993  0.00  0.00    +0.276 C 
ATOM     22  O   UNL     1       0.607   3.222 -24.296  0.00  0.00    -0.496 OA
ENDBRANCH   1  22
BRANCH  10  23
ATOM     23  O   UNL     1      -3.926   3.038 -19.934  0.00  0.00    -0.491 OA
ATOM     24  C   UNL     1      -3.063   3.786 -19.422  0.00  0.00    +0.277 C 
ENDBRANCH  10  23
TORSDOF 2
ENDMDL
MODEL 7
REMARK VINA RESULT:    -8.320      3.201      7.030
REMARK INTER + INTRA:          -8.024
REMARK INTER:                  -9.008
REMARK INTRA:                   0.984
REMARK UNBOUND:                 1.269
REMARK  Name = ZINC000096316332
REMARK  5 active torsions:
REMARK  status: ('A' for Active; 'I' for Inactive)
REMARK    1  A    between atoms: C_1  and  O_2
REMARK    2  A    between atoms: O_2  and  C_3
REMARK    3  A    between atoms: C_12  and  O_13
REMARK    4  A    between atoms: O_13  and  C_14
REMARK    5  A    between atoms: N_20  and  C_21
REMARK                            x       y       z     vdW  Elec       q    Type
REMARK                         _______ _______ _______ _____ _____    ______ ____
ROOT
ATOM      1  C   UNL     1       4.917   3.938 -22.832  0.00  0.00    +0.135 C 
ATOM      2  C   UNL     1       5.516   2.998 -22.237  0.00  0.00    +0.018 C 
ATOM      3  C   UNL     1       4.876   2.021 -21.785  0.00  0.00    +0.040 C 
ATOM      4  C   UNL     1       3.620   1.973 -21.924  0.00  0.00    +0.056 C 
ATOM      5  C   UNL     1       2.977   0.983 -21.466  0.00  0.00    +0.073 C 
ATOM      6  C   UNL     1       1.735   0.933 -21.601  0.00  0.00    +0.090 C 
ATOM      7  C   UNL     1       1.116   1.876 -22.200  0.00  0.00    -0.034 A 
ATOM      8  C   UNL     1      -0.128   1.824 -22.335  0.00  0.00    +0.008 A 
ATOM      9  C   UNL     1      -0.728   2.750 -22.923  0.00  0.00    +0.050 A 
ATOM     10  C   UNL     1      -0.087   3.741 -23.382  0.00  0.00    +0.162 A 
ATOM     11  C   UNL     1       1.172   3.788 -23.242  0.00  0.00    +0.167 A 
ATOM     12  O   UNL     1       2.431   4.563 -23.502  0.00  0.00    -0.476 OA
ATOM     13  C   UNL     1       1.775   2.851 -22.648  0.00  0.00    +0.012 A 
ATOM     14  N   UNL     1       4.387   0.945 -21.259  0.00  0.00    +0.236 N 
ATOM     15  H   UNL     1       4.845   0.173 -20.775  0.00  0.00    +0.203 HD
ATOM     16  C   UNL     1       4.935  -0.009 -20.663  0.00  0.00    +0.190 C 
ATOM     17  C   UNL     1       5.135   2.033 -21.758  0.00  0.00    +0.132 C 
ATOM     18  C   UNL     1       4.430   3.062 -22.415  0.00  0.00    +0.067 C 
ATOM     19  C   UNL     1       3.016   2.898 -22.511  0.00  0.00    +0.057 C 
ATOM     20  C   UNL     1       3.673   3.887 -22.967  0.00  0.00    +0.249 C 
ENDROOT
BRANCH   1  22
ATOM     21  C   UNL     1       6.027   5.768 -22.498  0.00  0.00    +0.276 C 
ATOM     22  O   UNL     1       5.560   4.912 -23.281  0.00  0.00    -0.496 OA
ENDBRANCH   1  22
BRANCH  10  23
ATOM     23  O   UNL     1      -0.692   4.665 -23.969  0.00  0.00    -0.491 OA
ATOM     24  C   UNL     1      -1.926   4.586 -24.160  0.00  0.00    +0.277 C 
ENDBRANCH  10  23
TORSDOF 2
ENDMDL
MODEL 8
REMARK VINA RESULT:    -8.285      3.946      6.729
REMARK INTER + INTRA:          -7.984
REMARK INTER:                  -8.921
REMARK INTRA:                   0.937
REMARK UNBOUND:                 1.269
REMARK  Name = ZINC000096316332
REMARK  5 active torsions:
REMARK  status: ('A' for Active; 'I' for Inactive)
REMARK    1  A    between atoms: C_1  and  O_2
REMARK    2  A    between atoms: O_2  and  C_3
REMARK    3  A    between atoms: C_12  and  O_13
REMARK    4  A    between atoms: O_13  and  C_14
REMARK    5  A    between atoms: N_20  and  C_21
REMARK                            x       y       z     vdW  Elec       q    Type
REMARK                         _______ _______ _______ _____ _____    ______ ____
ROOT
ATOM      1  C   UNL     1       1.217   4.692 -23.713  0.00  0.00    +0.135 C 
ATOM      2  C   UNL     1       1.203   3.505 -24.146  0.00  0.00    +0.018 C 
ATOM      3  C   UNL     1       2.253   2.824 -24.172  0.00  0.00    +0.040 C 
ATOM      4  C   UNL     1       3.339   3.327 -23.761  0.00  0.00    +0.056 C 
ATOM      5  C   UNL     1       4.399   2.635 -23.789  0.00  0.00    +0.073 C 
ATOM      6  C   UNL     1       5.474   3.129 -23.383  0.00  0.00    +0.090 C 
ATOM      7  C   UNL     1       5.503   4.328 -22.943  0.00  0.00    -0.034 A 
ATOM      8  C   UNL     1       6.580   4.821 -22.538  0.00  0.00    +0.008 A 
ATOM      9  C   UNL     1       6.603   5.995 -22.108  0.00  0.00    +0.050 A 
ATOM     10  C   UNL     1       5.544   6.688 -22.079  0.00  0.00    +0.162 A 
ATOM     11  C   UNL     1       4.457   6.184 -22.491  0.00  0.00    +0.167 A 
ATOM     12  O   UNL     1       2.989   6.395 -22.723  0.00  0.00    -0.476 OA
ATOM     13  C   UNL     1       4.437   4.998 -22.925  0.00  0.00    +0.012 A 
ATOM     14  N   UNL     1       3.229   1.980 -24.273  0.00  0.00    +0.236 N 
ATOM     15  H   UNL     1       3.246   1.020 -24.617  0.00  0.00    +0.203 HD
ATOM     16  C   UNL     1       3.265   0.802 -24.692  0.00  0.00    +0.190 C 
ATOM     17  C   UNL     1       2.029   2.723 -24.256  0.00  0.00    +0.132 C 
ATOM     18  C   UNL     1       2.086   4.044 -23.765  0.00  0.00    +0.067 C 
ATOM     19  C   UNL     1       3.366   4.501 -23.330  0.00  0.00    +0.057 C 
ATOM     20  C   UNL     1       2.294   5.186 -23.308  0.00  0.00    +0.249 C 
ENDROOT
BRANCH   1  22
ATOM     21  C   UNL     1      -0.697   5.154 -22.809  0.00  0.00    +0.276 C 
ATOM     22  O   UNL     1       0.166   5.368 -23.690  0.00  0.00    -0.496 OA
ENDBRANCH   1  22
BRANCH  10  23
ATOM     23  O   UNL     1       5.571   7.862 -21.648  0.00  0.00    -0.491 OA
ATOM     24  C   UNL     1       5.112   8.125 -20.514  0.00  0.00    +0.277 C 
ENDBRANCH  10  23
TORSDOF 2
ENDMDL
