MODEL 1
REMARK VINA RESULT:   -10.115      0.000      0.000
REMARK INTER + INTRA:         -10.115
REMARK INTER:                 -10.115
REMARK INTRA:                   0.000
REMARK UNBOUND:                 0.000
REMARK  Name = ZINC000043604260
REMARK  2 active torsions:
REMARK  status: ('A' for Active; 'I' for Inactive)
REMARK    1  A    between atoms: C_8  and  C_9
REMARK    2  A    between atoms: C_13  and  C_14
REMARK                            x       y       z     vdW  Elec       q    Type
REMARK                         _______ _______ _______ _____ _____    ______ ____
ROOT
ATOM      1  C   UNL     1       0.478   1.504 -21.177  0.00  0.00    +0.020 C 
ATOM      2  C   UNL     1       0.147   2.048 -22.310  0.00  0.00    +0.040 C 
ATOM      3  C   UNL     1       0.946   2.280 -23.309  0.00  0.00    +0.336 C 
ATOM      4  O   UNL     1       0.252   2.832 -24.259  0.00  0.00    -0.457 OA
ATOM      5  C   UNL     1      -0.976   2.941 -23.847  0.00  0.00    +0.189 C 
ATOM      6  C   UNL     1      -2.044   3.419 -24.414  0.00  0.00    +0.056 C 
ATOM      7  C   UNL     1      -3.177   3.413 -23.777  0.00  0.00    -0.007 C 
ATOM      8  C   UNL     1      -4.245   3.891 -24.344  0.00  0.00    +0.011 C 
ATOM      9  C   UNL     1      -5.377   3.885 -23.706  0.00  0.00    +0.001 C 
ATOM     10  C   UNL     1      -5.442   3.400 -22.501  0.00  0.00    +0.007 C 
ATOM     11  C   UNL     1      -4.375   2.922 -21.934  0.00  0.00    +0.012 C 
ATOM     12  C   UNL     1      -4.440   2.437 -20.729  0.00  0.00    +0.012 C 
ATOM     13  C   UNL     1      -3.112   3.898 -24.982  0.00  0.00    +0.016 C 
ATOM     14  C   UNL     1      -3.241   2.928 -22.572  0.00  0.00    -0.064 C 
ATOM     15  C   UNL     1      -2.174   2.450 -22.005  0.00  0.00    -0.015 C 
ATOM     16  O   UNL     1       2.217   2.008 -23.350  0.00  0.00    -0.245 OA
ATOM     17  C   UNL     1      -1.041   2.457 -22.643  0.00  0.00    +0.089 C 
ENDROOT
TORSDOF 0
ENDMDL
MODEL 2
REMARK VINA RESULT:   -10.029      0.958      2.528
REMARK INTER + INTRA:         -10.029
REMARK INTER:                 -10.029
REMARK INTRA:                   0.000
REMARK UNBOUND:                 0.000
REMARK  Name = ZINC000043604260
REMARK  2 active torsions:
REMARK  status: ('A' for Active; 'I' for Inactive)
REMARK    1  A    between atoms: C_8  and  C_9
REMARK    2  A    between atoms: C_13  and  C_14
REMARK                            x       y       z     vdW  Elec       q    Type
REMARK                         _______ _______ _______ _____ _____    ______ ____
ROOT
ATOM      1  C   UNL     1       0.551   3.337 -25.126  0.00  0.00    +0.020 C 
ATOM      2  C   UNL     1       0.122   3.011 -23.943  0.00  0.00    +0.040 C 
ATOM      3  C   UNL     1       0.850   2.569 -22.961  0.00  0.00    +0.336 C 
ATOM      4  O   UNL     1       0.067   2.355 -21.946  0.00  0.00    -0.457 OA
ATOM      5  C   UNL     1      -1.145   2.664 -22.301  0.00  0.00    +0.189 C 
ATOM      6  C   UNL     1      -2.274   2.629 -21.659  0.00  0.00    +0.056 C 
ATOM      7  C   UNL     1      -3.371   2.999 -22.251  0.00  0.00    -0.007 C 
ATOM      8  C   UNL     1      -4.501   2.964 -21.609  0.00  0.00    +0.011 C 
ATOM      9  C   UNL     1      -5.597   3.334 -22.202  0.00  0.00    +0.001 C 
ATOM     10  C   UNL     1      -5.563   3.740 -23.436  0.00  0.00    +0.007 C 
ATOM     11  C   UNL     1      -4.433   3.776 -24.079  0.00  0.00    +0.012 C 
ATOM     12  C   UNL     1      -4.399   4.182 -25.314  0.00  0.00    +0.012 C 
ATOM     13  C   UNL     1      -3.405   2.593 -21.016  0.00  0.00    +0.016 C 
ATOM     14  C   UNL     1      -3.336   3.405 -23.486  0.00  0.00    -0.064 C 
ATOM     15  C   UNL     1      -2.207   3.441 -24.128  0.00  0.00    -0.015 C 
ATOM     16  O   UNL     1       2.135   2.376 -22.989  0.00  0.00    -0.245 OA
ATOM     17  C   UNL     1      -1.111   3.070 -23.535  0.00  0.00    +0.089 C 
ENDROOT
TORSDOF 0
ENDMDL
MODEL 3
REMARK VINA RESULT:    -9.585      2.229      5.292
REMARK INTER + INTRA:          -9.585
REMARK INTER:                  -9.585
REMARK INTRA:                   0.000
REMARK UNBOUND:                 0.000
REMARK  Name = ZINC000043604260
REMARK  2 active torsions:
REMARK  status: ('A' for Active; 'I' for Inactive)
REMARK    1  A    between atoms: C_8  and  C_9
REMARK    2  A    between atoms: C_13  and  C_14
REMARK                            x       y       z     vdW  Elec       q    Type
REMARK                         _______ _______ _______ _____ _____    ______ ____
ROOT
ATOM      1  C   UNL     1      -4.657   4.199 -24.369  0.00  0.00    +0.020 C 
ATOM      2  C   UNL     1      -4.174   3.564 -23.343  0.00  0.00    +0.040 C 
ATOM      3  C   UNL     1      -4.842   3.185 -22.295  0.00  0.00    +0.336 C 
ATOM      4  O   UNL     1      -4.018   2.584 -21.489  0.00  0.00    -0.457 OA
ATOM      5  C   UNL     1      -2.840   2.592 -22.039  0.00  0.00    +0.189 C 
ATOM      6  C   UNL     1      -1.693   2.126 -21.645  0.00  0.00    +0.056 C 
ATOM      7  C   UNL     1      -0.641   2.265 -22.396  0.00  0.00    -0.007 C 
ATOM      8  C   UNL     1       0.506   1.799 -22.001  0.00  0.00    +0.011 C 
ATOM      9  C   UNL     1       1.557   1.938 -22.753  0.00  0.00    +0.001 C 
ATOM     10  C   UNL     1       1.461   2.544 -23.899  0.00  0.00    +0.007 C 
ATOM     11  C   UNL     1       0.314   3.011 -24.295  0.00  0.00    +0.012 C 
ATOM     12  C   UNL     1       0.218   3.616 -25.441  0.00  0.00    +0.012 C 
ATOM     13  C   UNL     1      -0.545   1.659 -21.250  0.00  0.00    +0.016 C 
ATOM     14  C   UNL     1      -0.738   2.871 -23.543  0.00  0.00    -0.064 C 
ATOM     15  C   UNL     1      -1.885   3.337 -23.937  0.00  0.00    -0.015 C 
ATOM     16  O   UNL     1      -6.112   3.374 -22.089  0.00  0.00    -0.245 OA
ATOM     17  C   UNL     1      -2.937   3.198 -23.186  0.00  0.00    +0.089 C 
ENDROOT
TORSDOF 0
ENDMDL
MODEL 4
REMARK VINA RESULT:    -9.414      2.151      4.626
REMARK INTER + INTRA:          -9.414
REMARK INTER:                  -9.414
REMARK INTRA:                   0.000
REMARK UNBOUND:                 0.000
REMARK  Name = ZINC000043604260
REMARK  2 active torsions:
REMARK  status: ('A' for Active; 'I' for Inactive)
REMARK    1  A    between atoms: C_8  and  C_9
REMARK    2  A    between atoms: C_13  and  C_14
REMARK                            x       y       z     vdW  Elec       q    Type
REMARK                         _______ _______ _______ _____ _____    ______ ____
ROOT
ATOM      1  C   UNL     1      -4.167   2.271 -20.585  0.00  0.00    +0.020 C 
ATOM      2  C   UNL     1      -4.023   2.771 -21.776  0.00  0.00    +0.040 C 
ATOM      3  C   UNL     1      -4.962   3.303 -22.501  0.00  0.00    +0.336 C 
ATOM      4  O   UNL     1      -4.434   3.687 -23.624  0.00  0.00    -0.457 OA
ATOM      5  C   UNL     1      -3.168   3.393 -23.594  0.00  0.00    +0.189 C 
ATOM      6  C   UNL     1      -2.214   3.568 -24.459  0.00  0.00    +0.056 C 
ATOM      7  C   UNL     1      -1.005   3.176 -24.183  0.00  0.00    -0.007 C 
ATOM      8  C   UNL     1      -0.051   3.351 -25.048  0.00  0.00    +0.011 C 
ATOM      9  C   UNL     1       1.157   2.959 -24.770  0.00  0.00    +0.001 C 
ATOM     10  C   UNL     1       1.411   2.393 -23.628  0.00  0.00    +0.007 C 
ATOM     11  C   UNL     1       0.457   2.218 -22.762  0.00  0.00    +0.012 C 
ATOM     12  C   UNL     1       0.711   1.651 -21.620  0.00  0.00    +0.012 C 
ATOM     13  C   UNL     1      -1.259   3.743 -25.325  0.00  0.00    +0.016 C 
ATOM     14  C   UNL     1      -0.752   2.610 -23.039  0.00  0.00    -0.064 C 
ATOM     15  C   UNL     1      -1.706   2.435 -22.174  0.00  0.00    -0.015 C 
ATOM     16  O   UNL     1      -6.211   3.428 -22.161  0.00  0.00    -0.245 OA
ATOM     17  C   UNL     1      -2.914   2.826 -22.452  0.00  0.00    +0.089 C 
ENDROOT
TORSDOF 0
ENDMDL
MODEL 5
REMARK VINA RESULT:    -8.734      1.887      4.834
REMARK INTER + INTRA:          -8.734
REMARK INTER:                  -8.734
REMARK INTRA:                   0.000
REMARK UNBOUND:                 0.000
REMARK  Name = ZINC000043604260
REMARK  2 active torsions:
REMARK  status: ('A' for Active; 'I' for Inactive)
REMARK    1  A    between atoms: C_8  and  C_9
REMARK    2  A    between atoms: C_13  and  C_14
REMARK                            x       y       z     vdW  Elec       q    Type
REMARK                         _______ _______ _______ _____ _____    ______ ____
ROOT
ATOM      1  C   UNL     1      -4.209   3.394 -22.710  0.00  0.00    +0.020 C 
ATOM      2  C   UNL     1      -3.353   3.642 -23.656  0.00  0.00    +0.040 C 
ATOM      3  C   UNL     1      -3.603   4.260 -24.771  0.00  0.00    +0.336 C 
ATOM      4  O   UNL     1      -2.500   4.314 -25.456  0.00  0.00    -0.457 OA
ATOM      5  C   UNL     1      -1.568   3.729 -24.764  0.00  0.00    +0.189 C 
ATOM      6  C   UNL     1      -0.308   3.521 -25.004  0.00  0.00    +0.056 C 
ATOM      7  C   UNL     1       0.427   2.897 -24.131  0.00  0.00    -0.007 C 
ATOM      8  C   UNL     1       1.687   2.689 -24.371  0.00  0.00    +0.011 C 
ATOM      9  C   UNL     1       2.420   2.065 -23.498  0.00  0.00    +0.001 C 
ATOM     10  C   UNL     1       1.893   1.649 -22.385  0.00  0.00    +0.007 C 
ATOM     11  C   UNL     1       0.632   1.857 -22.144  0.00  0.00    +0.012 C 
ATOM     12  C   UNL     1       0.105   1.441 -21.031  0.00  0.00    +0.012 C 
ATOM     13  C   UNL     1       0.954   3.313 -25.245  0.00  0.00    +0.016 C 
ATOM     14  C   UNL     1      -0.102   2.481 -23.018  0.00  0.00    -0.064 C 
ATOM     15  C   UNL     1      -1.362   2.689 -22.778  0.00  0.00    -0.015 C 
ATOM     16  O   UNL     1      -4.754   4.741 -25.137  0.00  0.00    -0.245 OA
ATOM     17  C   UNL     1      -2.095   3.313 -23.651  0.00  0.00    +0.089 C 
ENDROOT
TORSDOF 0
ENDMDL
MODEL 6
REMARK VINA RESULT:    -8.357      2.091      3.929
REMARK INTER + INTRA:          -8.357
REMARK INTER:                  -8.357
REMARK INTRA:                   0.000
REMARK UNBOUND:                 0.000
REMARK  Name = ZINC000043604260
REMARK  2 active torsions:
REMARK  status: ('A' for Active; 'I' for Inactive)
REMARK    1  A    between atoms: C_8  and  C_9
REMARK    2  A    between atoms: C_13  and  C_14
REMARK                            x       y       z     vdW  Elec       q    Type
REMARK                         _______ _______ _______ _____ _____    ______ ____
ROOT
ATOM      1  C   UNL     1       4.038   4.081 -23.500  0.00  0.00    +0.020 C 
ATOM      2  C   UNL     1       3.436   3.088 -22.917  0.00  0.00    +0.040 C 
ATOM      3  C   UNL     1       4.007   2.027 -22.430  0.00  0.00    +0.336 C 
ATOM      4  O   UNL     1       3.080   1.265 -21.929  0.00  0.00    -0.457 OA
ATOM      5  C   UNL     1       1.936   1.856 -22.108  0.00  0.00    +0.189 C 
ATOM      6  C   UNL     1       0.722   1.513 -21.793  0.00  0.00    +0.056 C 
ATOM      7  C   UNL     1      -0.273   2.296 -22.088  0.00  0.00    -0.007 C 
ATOM      8  C   UNL     1      -1.486   1.953 -21.773  0.00  0.00    +0.011 C 
ATOM      9  C   UNL     1      -2.480   2.737 -22.069  0.00  0.00    +0.001 C 
ATOM     10  C   UNL     1      -2.260   3.864 -22.679  0.00  0.00    +0.007 C 
ATOM     11  C   UNL     1      -1.047   4.207 -22.995  0.00  0.00    +0.012 C 
ATOM     12  C   UNL     1      -0.827   5.334 -23.605  0.00  0.00    +0.012 C 
ATOM     13  C   UNL     1      -0.492   1.169 -21.478  0.00  0.00    +0.016 C 
ATOM     14  C   UNL     1      -0.052   3.423 -22.699  0.00  0.00    -0.064 C 
ATOM     15  C   UNL     1       1.162   3.766 -23.014  0.00  0.00    -0.015 C 
ATOM     16  O   UNL     1       5.282   1.773 -22.441  0.00  0.00    -0.245 OA
ATOM     17  C   UNL     1       2.155   2.982 -22.718  0.00  0.00    +0.089 C 
ENDROOT
TORSDOF 0
ENDMDL
MODEL 7
REMARK VINA RESULT:    -8.202      1.415      2.316
REMARK INTER + INTRA:          -8.202
REMARK INTER:                  -8.202
REMARK INTRA:                   0.000
REMARK UNBOUND:                 0.000
REMARK  Name = ZINC000043604260
REMARK  2 active torsions:
REMARK  status: ('A' for Active; 'I' for Inactive)
REMARK    1  A    between atoms: C_8  and  C_9
REMARK    2  A    between atoms: C_13  and  C_14
REMARK                            x       y       z     vdW  Elec       q    Type
REMARK                         _______ _______ _______ _____ _____    ______ ____
ROOT
ATOM      1  C   UNL     1       2.735   1.866 -21.422  0.00  0.00    +0.020 C 
ATOM      2  C   UNL     1       2.420   2.321 -22.598  0.00  0.00    +0.040 C 
ATOM      3  C   UNL     1       3.251   2.601 -23.557  0.00  0.00    +0.336 C 
ATOM      4  O   UNL     1       2.562   3.029 -24.573  0.00  0.00    -0.457 OA
ATOM      5  C   UNL     1       1.305   3.013 -24.241  0.00  0.00    +0.189 C 
ATOM      6  C   UNL     1       0.229   3.340 -24.893  0.00  0.00    +0.056 C 
ATOM      7  C   UNL     1      -0.935   3.230 -24.325  0.00  0.00    -0.007 C 
ATOM      8  C   UNL     1      -2.011   3.557 -24.977  0.00  0.00    +0.011 C 
ATOM      9  C   UNL     1      -3.174   3.446 -24.408  0.00  0.00    +0.001 C 
ATOM     10  C   UNL     1      -3.262   3.008 -23.187  0.00  0.00    +0.007 C 
ATOM     11  C   UNL     1      -2.186   2.681 -22.534  0.00  0.00    +0.012 C 
ATOM     12  C   UNL     1      -2.274   2.243 -21.314  0.00  0.00    +0.012 C 
ATOM     13  C   UNL     1      -0.847   3.668 -25.546  0.00  0.00    +0.016 C 
ATOM     14  C   UNL     1      -1.022   2.791 -23.103  0.00  0.00    -0.064 C 
ATOM     15  C   UNL     1       0.054   2.464 -22.451  0.00  0.00    -0.015 C 
ATOM     16  O   UNL     1       4.544   2.476 -23.509  0.00  0.00    -0.245 OA
ATOM     17  C   UNL     1       1.217   2.575 -23.020  0.00  0.00    +0.089 C 
ENDROOT
TORSDOF 0
ENDMDL
MODEL 8
REMARK VINA RESULT:    -7.949      3.034      6.505
REMARK INTER + INTRA:          -7.949
REMARK INTER:                  -7.949
REMARK INTRA:                   0.000
REMARK UNBOUND:                 0.000
REMARK  Name = ZINC000043604260
REMARK  2 active torsions:
REMARK  status: ('A' for Active; 'I' for Inactive)
REMARK    1  A    between atoms: C_8  and  C_9
REMARK    2  A    between atoms: C_13  and  C_14
REMARK                            x       y       z     vdW  Elec       q    Type
REMARK                         _______ _______ _______ _____ _____    ______ ____
ROOT
ATOM      1  C   UNL     1      -1.095   5.218 -23.220  0.00  0.00    +0.020 C 
ATOM      2  C   UNL     1      -0.438   4.144 -23.544  0.00  0.00    +0.040 C 
ATOM      3  C   UNL     1      -0.956   3.024 -23.950  0.00  0.00    +0.336 C 
ATOM      4  O   UNL     1       0.015   2.190 -24.176  0.00  0.00    -0.457 OA
ATOM      5  C   UNL     1       1.134   2.796 -23.910  0.00  0.00    +0.189 C 
ATOM      6  C   UNL     1       2.372   2.404 -23.973  0.00  0.00    +0.056 C 
ATOM      7  C   UNL     1       3.331   3.218 -23.646  0.00  0.00    -0.007 C 
ATOM      8  C   UNL     1       4.568   2.826 -23.709  0.00  0.00    +0.011 C 
ATOM      9  C   UNL     1       5.526   3.642 -23.381  0.00  0.00    +0.001 C 
ATOM     10  C   UNL     1       5.246   4.850 -22.991  0.00  0.00    +0.007 C 
ATOM     11  C   UNL     1       4.008   5.243 -22.927  0.00  0.00    +0.012 C 
ATOM     12  C   UNL     1       3.728   6.451 -22.537  0.00  0.00    +0.012 C 
ATOM     13  C   UNL     1       3.610   2.010 -24.036  0.00  0.00    +0.016 C 
ATOM     14  C   UNL     1       3.050   4.427 -23.255  0.00  0.00    -0.064 C 
ATOM     15  C   UNL     1       1.812   4.820 -23.192  0.00  0.00    -0.015 C 
ATOM     16  O   UNL     1      -2.224   2.780 -24.103  0.00  0.00    -0.245 OA
ATOM     17  C   UNL     1       0.855   4.004 -23.519  0.00  0.00    +0.089 C 
ENDROOT
TORSDOF 0
ENDMDL
MODEL 9
REMARK VINA RESULT:    -7.601      2.482      6.159
REMARK INTER + INTRA:          -7.601
REMARK INTER:                  -7.601
REMARK INTRA:                   0.000
REMARK UNBOUND:                 0.000
REMARK  Name = ZINC000043604260
REMARK  2 active torsions:
REMARK  status: ('A' for Active; 'I' for Inactive)
REMARK    1  A    between atoms: C_8  and  C_9
REMARK    2  A    between atoms: C_13  and  C_14
REMARK                            x       y       z     vdW  Elec       q    Type
REMARK                         _______ _______ _______ _____ _____    ______ ____
ROOT
ATOM      1  C   UNL     1      -1.426   4.837 -23.557  0.00  0.00    +0.020 C 
ATOM      2  C   UNL     1      -1.045   3.644 -23.209  0.00  0.00    +0.040 C 
ATOM      3  C   UNL     1      -1.822   2.621 -23.009  0.00  0.00    +0.336 C 
ATOM      4  O   UNL     1      -1.076   1.610 -22.677  0.00  0.00    -0.457 OA
ATOM      5  C   UNL     1       0.162   2.008 -22.672  0.00  0.00    +0.189 C 
ATOM      6  C   UNL     1       1.273   1.387 -22.410  0.00  0.00    +0.056 C 
ATOM      7  C   UNL     1       2.405   2.023 -22.477  0.00  0.00    -0.007 C 
ATOM      8  C   UNL     1       3.517   1.403 -22.216  0.00  0.00    +0.011 C 
ATOM      9  C   UNL     1       4.648   2.040 -22.283  0.00  0.00    +0.001 C 
ATOM     10  C   UNL     1       4.667   3.297 -22.612  0.00  0.00    +0.007 C 
ATOM     11  C   UNL     1       3.555   3.919 -22.874  0.00  0.00    +0.012 C 
ATOM     12  C   UNL     1       3.575   5.176 -23.203  0.00  0.00    +0.012 C 
ATOM     13  C   UNL     1       2.386   0.766 -22.148  0.00  0.00    +0.016 C 
ATOM     14  C   UNL     1       2.423   3.282 -22.807  0.00  0.00    -0.064 C 
ATOM     15  C   UNL     1       1.312   3.902 -23.068  0.00  0.00    -0.015 C 
ATOM     16  O   UNL     1      -3.117   2.612 -23.121  0.00  0.00    -0.245 OA
ATOM     17  C   UNL     1       0.181   3.265 -23.001  0.00  0.00    +0.089 C 
ENDROOT
TORSDOF 0
ENDMDL
