MODEL 1
REMARK VINA RESULT:    -8.760      0.000      0.000
REMARK INTER + INTRA:         -10.116
REMARK INTER:                  -9.803
REMARK INTRA:                  -0.313
REMARK UNBOUND:                 0.181
REMARK  Name = ZINC000000001904
REMARK  5 active torsions:
REMARK  status: ('A' for Active; 'I' for Inactive)
REMARK    1  A    between atoms: C_1  and  C_2
REMARK    2  A    between atoms: C_2  and  C_3
REMARK    3  A    between atoms: C_4  and  C_5
REMARK    4  A    between atoms: C_5  and  O_6
REMARK    5  A    between atoms: O_6  and  C_7
REMARK                            x       y       z     vdW  Elec       q    Type
REMARK                         _______ _______ _______ _____ _____    ______ ____
ROOT
ATOM      1  C   UNL     1       0.842   1.768 -22.888  0.00  0.00    +0.207 A 
ATOM      2  C   UNL     1       0.577   2.666 -23.959  0.00  0.00    +0.180 A 
ATOM      3  O   UNL     1      -0.645   3.108 -24.437  0.00  0.00    -0.459 OA
ATOM      4  C   UNL     1      -0.394   3.967 -25.472  0.00  0.00    +0.196 A 
ATOM      5  C   UNL     1       0.952   4.126 -25.690  0.00  0.00    +0.050 A 
ATOM      6  C   UNL     1       1.603   3.292 -24.721  0.00  0.00    +0.025 A 
ATOM      7  C   UNL     1       2.939   2.992 -24.387  0.00  0.00    +0.023 A 
ATOM      8  C   UNL     1       3.230   2.131 -23.311  0.00  0.00    +0.022 A 
ATOM      9  C   UNL     1       4.601   1.850 -22.913  0.00  0.00    +0.019 A 
ATOM     10  C   UNL     1       4.863   1.082 -21.845  0.00  0.00    +0.092 A 
ATOM     11  C   UNL     1       3.777   0.492 -21.033  0.00  0.00    +0.337 A 
ATOM     12  O   UNL     1       2.496   0.716 -21.478  0.00  0.00    -0.418 OA
ATOM     13  O   UNL     1       4.013  -0.156 -20.015  0.00  0.00    -0.245 OA
ATOM     14  C   UNL     1       2.196   1.528 -22.557  0.00  0.00    +0.184 A 
ENDROOT
BRANCH   1  15
ATOM     15  O   UNL     1      -0.113   1.102 -22.138  0.00  0.00    -0.481 OA
BRANCH  15  16
ATOM     16  C   UNL     1      -0.864   1.820 -21.166  0.00  0.00    +0.257 C 
BRANCH  16  19
ATOM     17  C   UNL     1      -4.594   2.970 -21.790  0.00  0.00    +0.038 C 
ATOM     18  C   UNL     1      -3.227   2.859 -21.143  0.00  0.00    -0.076 C 
ATOM     19  C   UNL     1      -2.278   2.052 -21.664  0.00  0.00    +0.012 C 
ATOM     20  C   UNL     1      -3.070   3.734 -19.908  0.00  0.00    +0.038 C 
ENDBRANCH  16  19
ENDBRANCH  15  16
ENDBRANCH   1  15
TORSDOF 3
ENDMDL
MODEL 2
REMARK VINA RESULT:    -8.575      0.689      4.175
REMARK INTER + INTRA:          -9.899
REMARK INTER:                  -9.814
REMARK INTRA:                  -0.084
REMARK UNBOUND:                 0.181
REMARK  Name = ZINC000000001904
REMARK  5 active torsions:
REMARK  status: ('A' for Active; 'I' for Inactive)
REMARK    1  A    between atoms: C_1  and  C_2
REMARK    2  A    between atoms: C_2  and  C_3
REMARK    3  A    between atoms: C_4  and  C_5
REMARK    4  A    between atoms: C_5  and  O_6
REMARK    5  A    between atoms: O_6  and  C_7
REMARK                            x       y       z     vdW  Elec       q    Type
REMARK                         _______ _______ _______ _____ _____    ______ ____
ROOT
ATOM      1  C   UNL     1       1.174   1.533 -22.427  0.00  0.00    +0.207 A 
ATOM      2  C   UNL     1       2.483   1.281 -21.932  0.00  0.00    +0.180 A 
ATOM      3  O   UNL     1       2.883   0.384 -20.956  0.00  0.00    -0.459 OA
ATOM      4  C   UNL     1       4.240   0.497 -20.828  0.00  0.00    +0.196 A 
ATOM      5  C   UNL     1       4.762   1.425 -21.695  0.00  0.00    +0.050 A 
ATOM      6  C   UNL     1       3.641   1.948 -22.422  0.00  0.00    +0.025 A 
ATOM      7  C   UNL     1       3.461   2.902 -23.444  0.00  0.00    +0.023 A 
ATOM      8  C   UNL     1       2.180   3.147 -23.974  0.00  0.00    +0.022 A 
ATOM      9  C   UNL     1       1.978   4.087 -25.067  0.00  0.00    +0.019 A 
ATOM     10  C   UNL     1       0.763   4.260 -25.608  0.00  0.00    +0.092 A 
ATOM     11  C   UNL     1      -0.415   3.510 -25.120  0.00  0.00    +0.337 A 
ATOM     12  O   UNL     1      -0.204   2.686 -24.040  0.00  0.00    -0.418 OA
ATOM     13  O   UNL     1      -1.515   3.617 -25.658  0.00  0.00    -0.245 OA
ATOM     14  C   UNL     1       1.042   2.465 -23.483  0.00  0.00    +0.184 A 
ENDROOT
BRANCH   1  15
ATOM     15  O   UNL     1       0.009   0.944 -21.965  0.00  0.00    -0.481 OA
BRANCH  15  16
ATOM     16  C   UNL     1      -0.812   1.649 -21.042  0.00  0.00    +0.257 C 
BRANCH  16  19
ATOM     17  C   UNL     1      -4.376   3.049 -22.023  0.00  0.00    +0.038 C 
ATOM     18  C   UNL     1      -3.092   2.844 -21.243  0.00  0.00    -0.076 C 
ATOM     19  C   UNL     1      -2.150   1.978 -21.676  0.00  0.00    +0.012 C 
ATOM     20  C   UNL     1      -3.003   3.700 -19.989  0.00  0.00    +0.038 C 
ENDBRANCH  16  19
ENDBRANCH  15  16
ENDBRANCH   1  15
TORSDOF 3
ENDMDL
MODEL 3
REMARK VINA RESULT:    -8.537      1.916      6.678
REMARK INTER + INTRA:          -9.854
REMARK INTER:                  -9.915
REMARK INTRA:                   0.062
REMARK UNBOUND:                 0.181
REMARK  Name = ZINC000000001904
REMARK  5 active torsions:
REMARK  status: ('A' for Active; 'I' for Inactive)
REMARK    1  A    between atoms: C_1  and  C_2
REMARK    2  A    between atoms: C_2  and  C_3
REMARK    3  A    between atoms: C_4  and  C_5
REMARK    4  A    between atoms: C_5  and  O_6
REMARK    5  A    between atoms: O_6  and  C_7
REMARK                            x       y       z     vdW  Elec       q    Type
REMARK                         _______ _______ _______ _____ _____    ______ ____
ROOT
ATOM      1  C   UNL     1      -0.948   2.810 -23.913  0.00  0.00    +0.207 A 
ATOM      2  C   UNL     1      -0.269   2.255 -22.793  0.00  0.00    +0.180 A 
ATOM      3  O   UNL     1       1.064   1.899 -22.677  0.00  0.00    -0.459 OA
ATOM      4  C   UNL     1       1.251   1.417 -21.410  0.00  0.00    +0.196 A 
ATOM      5  C   UNL     1       0.093   1.455 -20.672  0.00  0.00    +0.050 A 
ATOM      6  C   UNL     1      -0.907   1.995 -21.548  0.00  0.00    +0.025 A 
ATOM      7  C   UNL     1      -2.278   2.304 -21.440  0.00  0.00    +0.023 A 
ATOM      8  C   UNL     1      -2.966   2.883 -22.523  0.00  0.00    +0.022 A 
ATOM      9  C   UNL     1      -4.368   3.262 -22.417  0.00  0.00    +0.019 A 
ATOM     10  C   UNL     1      -4.993   3.874 -23.434  0.00  0.00    +0.092 A 
ATOM     11  C   UNL     1      -4.290   4.188 -24.696  0.00  0.00    +0.337 A 
ATOM     12  O   UNL     1      -2.990   3.752 -24.791  0.00  0.00    -0.418 OA
ATOM     13  O   UNL     1      -4.841   4.809 -25.603  0.00  0.00    -0.245 OA
ATOM     14  C   UNL     1      -2.312   3.146 -23.749  0.00  0.00    +0.184 A 
ENDROOT
BRANCH   1  15
ATOM     15  O   UNL     1      -0.390   3.049 -25.158  0.00  0.00    -0.481 OA
BRANCH  15  16
ATOM     16  C   UNL     1       0.514   4.136 -25.321  0.00  0.00    +0.257 C 
BRANCH  16  19
ATOM     17  C   UNL     1       4.042   3.759 -23.579  0.00  0.00    +0.038 C 
ATOM     18  C   UNL     1       2.669   4.310 -23.911  0.00  0.00    -0.076 C 
ATOM     19  C   UNL     1       1.903   3.735 -24.862  0.00  0.00    +0.012 C 
ATOM     20  C   UNL     1       2.284   5.519 -23.070  0.00  0.00    +0.038 C 
ENDBRANCH  16  19
ENDBRANCH  15  16
ENDBRANCH   1  15
TORSDOF 3
ENDMDL
MODEL 4
REMARK VINA RESULT:    -8.428      1.409      2.047
REMARK INTER + INTRA:          -9.725
REMARK INTER:                  -9.580
REMARK INTRA:                  -0.145
REMARK UNBOUND:                 0.181
REMARK  Name = ZINC000000001904
REMARK  5 active torsions:
REMARK  status: ('A' for Active; 'I' for Inactive)
REMARK    1  A    between atoms: C_1  and  C_2
REMARK    2  A    between atoms: C_2  and  C_3
REMARK    3  A    between atoms: C_4  and  C_5
REMARK    4  A    between atoms: C_5  and  O_6
REMARK    5  A    between atoms: O_6  and  C_7
REMARK                            x       y       z     vdW  Elec       q    Type
REMARK                         _______ _______ _______ _____ _____    ______ ____
ROOT
ATOM      1  C   UNL     1      -0.356   2.101 -23.220  0.00  0.00    +0.207 A 
ATOM      2  C   UNL     1      -1.215   2.600 -24.237  0.00  0.00    +0.180 A 
ATOM      3  O   UNL     1      -2.562   2.347 -24.435  0.00  0.00    -0.459 OA
ATOM      4  C   UNL     1      -2.955   3.057 -25.537  0.00  0.00    +0.196 A 
ATOM      5  C   UNL     1      -1.922   3.787 -26.071  0.00  0.00    +0.050 A 
ATOM      6  C   UNL     1      -0.782   3.507 -25.244  0.00  0.00    +0.025 A 
ATOM      7  C   UNL     1       0.567   3.916 -25.219  0.00  0.00    +0.023 A 
ATOM      8  C   UNL     1       1.430   3.462 -24.204  0.00  0.00    +0.022 A 
ATOM      9  C   UNL     1       2.812   3.913 -24.125  0.00  0.00    +0.019 A 
ATOM     10  C   UNL     1       3.605   3.526 -23.114  0.00  0.00    +0.092 A 
ATOM     11  C   UNL     1       3.113   2.629 -22.046  0.00  0.00    +0.337 A 
ATOM     12  O   UNL     1       1.827   2.164 -22.190  0.00  0.00    -0.418 OA
ATOM     13  O   UNL     1       3.815   2.328 -21.084  0.00  0.00    -0.245 OA
ATOM     14  C   UNL     1       0.979   2.570 -23.204  0.00  0.00    +0.184 A 
ENDROOT
BRANCH   1  15
ATOM     15  O   UNL     1      -0.710   1.190 -22.239  0.00  0.00    -0.481 OA
BRANCH  15  16
ATOM     16  C   UNL     1      -1.390   1.646 -21.075  0.00  0.00    +0.257 C 
BRANCH  16  19
ATOM     17  C   UNL     1      -5.108   2.925 -21.475  0.00  0.00    +0.038 C 
ATOM     18  C   UNL     1      -3.642   2.908 -21.090  0.00  0.00    -0.076 C 
ATOM     19  C   UNL     1      -2.865   1.840 -21.371  0.00  0.00    +0.012 C 
ATOM     20  C   UNL     1      -3.184   4.182 -20.396  0.00  0.00    +0.038 C 
ENDBRANCH  16  19
ENDBRANCH  15  16
ENDBRANCH   1  15
TORSDOF 3
ENDMDL
MODEL 5
REMARK VINA RESULT:    -8.382      2.159      5.981
REMARK INTER + INTRA:          -9.672
REMARK INTER:                  -9.492
REMARK INTRA:                  -0.180
REMARK UNBOUND:                 0.181
REMARK  Name = ZINC000000001904
REMARK  5 active torsions:
REMARK  status: ('A' for Active; 'I' for Inactive)
REMARK    1  A    between atoms: C_1  and  C_2
REMARK    2  A    between atoms: C_2  and  C_3
REMARK    3  A    between atoms: C_4  and  C_5
REMARK    4  A    between atoms: C_5  and  O_6
REMARK    5  A    between atoms: O_6  and  C_7
REMARK                            x       y       z     vdW  Elec       q    Type
REMARK                         _______ _______ _______ _____ _____    ______ ____
ROOT
ATOM      1  C   UNL     1      -1.145   2.995 -22.766  0.00  0.00    +0.207 A 
ATOM      2  C   UNL     1      -0.241   3.240 -23.836  0.00  0.00    +0.180 A 
ATOM      3  O   UNL     1       1.128   3.033 -23.877  0.00  0.00    -0.459 OA
ATOM      4  C   UNL     1       1.562   3.409 -25.119  0.00  0.00    +0.196 A 
ATOM      5  C   UNL     1       0.529   3.844 -25.913  0.00  0.00    +0.050 A 
ATOM      6  C   UNL     1      -0.651   3.743 -25.102  0.00  0.00    +0.025 A 
ATOM      7  C   UNL     1      -2.023   4.010 -25.284  0.00  0.00    +0.023 A 
ATOM      8  C   UNL     1      -2.944   3.748 -24.253  0.00  0.00    +0.022 A 
ATOM      9  C   UNL     1      -4.372   3.964 -24.437  0.00  0.00    +0.019 A 
ATOM     10  C   UNL     1      -5.246   3.645 -23.469  0.00  0.00    +0.092 A 
ATOM     11  C   UNL     1      -4.798   3.067 -22.184  0.00  0.00    +0.337 A 
ATOM     12  O   UNL     1      -3.440   2.944 -22.015  0.00  0.00    -0.418 OA
ATOM     13  O   UNL     1      -5.601   2.711 -21.324  0.00  0.00    -0.245 OA
ATOM     14  C   UNL     1      -2.519   3.235 -23.005  0.00  0.00    +0.184 A 
ENDROOT
BRANCH   1  15
ATOM     15  O   UNL     1      -0.800   2.542 -21.504  0.00  0.00    -0.481 OA
BRANCH  15  16
ATOM     16  C   UNL     1      -0.083   1.321 -21.372  0.00  0.00    +0.257 C 
BRANCH  16  19
ATOM     17  C   UNL     1       3.825   1.561 -20.830  0.00  0.00    +0.038 C 
ATOM     18  C   UNL     1       2.493   1.178 -21.446  0.00  0.00    -0.076 C 
ATOM     19  C   UNL     1       1.331   1.593 -20.896  0.00  0.00    +0.012 C 
ATOM     20  C   UNL     1       2.630   0.327 -22.700  0.00  0.00    +0.038 C 
ENDBRANCH  16  19
ENDBRANCH  15  16
ENDBRANCH   1  15
TORSDOF 3
ENDMDL
MODEL 6
REMARK VINA RESULT:    -7.966      1.830      5.107
REMARK INTER + INTRA:          -9.182
REMARK INTER:                  -9.358
REMARK INTRA:                   0.176
REMARK UNBOUND:                 0.181
REMARK  Name = ZINC000000001904
REMARK  5 active torsions:
REMARK  status: ('A' for Active; 'I' for Inactive)
REMARK    1  A    between atoms: C_1  and  C_2
REMARK    2  A    between atoms: C_2  and  C_3
REMARK    3  A    between atoms: C_4  and  C_5
REMARK    4  A    between atoms: C_5  and  O_6
REMARK    5  A    between atoms: O_6  and  C_7
REMARK                            x       y       z     vdW  Elec       q    Type
REMARK                         _______ _______ _______ _____ _____    ______ ____
ROOT
ATOM      1  C   UNL     1      -1.253   3.075 -24.566  0.00  0.00    +0.207 A 
ATOM      2  C   UNL     1      -2.595   3.522 -24.703  0.00  0.00    +0.180 A 
ATOM      3  O   UNL     1      -3.222   4.056 -25.816  0.00  0.00    -0.459 OA
ATOM      4  C   UNL     1      -4.517   4.329 -25.466  0.00  0.00    +0.196 A 
ATOM      5  C   UNL     1      -4.779   3.982 -24.164  0.00  0.00    +0.050 A 
ATOM      6  C   UNL     1      -3.548   3.456 -23.647  0.00  0.00    +0.025 A 
ATOM      7  C   UNL     1      -3.121   2.923 -22.415  0.00  0.00    +0.023 A 
ATOM      8  C   UNL     1      -1.806   2.444 -22.262  0.00  0.00    +0.022 A 
ATOM      9  C   UNL     1      -1.358   1.839 -21.016  0.00  0.00    +0.019 A 
ATOM     10  C   UNL     1      -0.123   1.325 -20.907  0.00  0.00    +0.092 A 
ATOM     11  C   UNL     1       0.828   1.353 -22.038  0.00  0.00    +0.337 A 
ATOM     12  O   UNL     1       0.400   1.995 -23.175  0.00  0.00    -0.418 OA
ATOM     13  O   UNL     1       1.935   0.823 -21.962  0.00  0.00    -0.245 OA
ATOM     14  C   UNL     1      -0.876   2.506 -23.326  0.00  0.00    +0.184 A 
ENDROOT
BRANCH   1  15
ATOM     15  O   UNL     1      -0.274   3.148 -25.543  0.00  0.00    -0.481 OA
BRANCH  15  16
ATOM     16  C   UNL     1       0.710   4.174 -25.472  0.00  0.00    +0.257 C 
BRANCH  16  19
ATOM     17  C   UNL     1       4.038   3.416 -23.479  0.00  0.00    +0.038 C 
ATOM     18  C   UNL     1       2.770   4.122 -23.917  0.00  0.00    -0.076 C 
ATOM     19  C   UNL     1       2.004   3.619 -24.909  0.00  0.00    +0.012 C 
ATOM     20  C   UNL     1       2.482   5.392 -23.129  0.00  0.00    +0.038 C 
ENDBRANCH  16  19
ENDBRANCH  15  16
ENDBRANCH   1  15
TORSDOF 3
ENDMDL
MODEL 7
REMARK VINA RESULT:    -7.795      2.018      5.432
REMARK INTER + INTRA:          -8.981
REMARK INTER:                  -9.108
REMARK INTRA:                   0.127
REMARK UNBOUND:                 0.181
REMARK  Name = ZINC000000001904
REMARK  5 active torsions:
REMARK  status: ('A' for Active; 'I' for Inactive)
REMARK    1  A    between atoms: C_1  and  C_2
REMARK    2  A    between atoms: C_2  and  C_3
REMARK    3  A    between atoms: C_4  and  C_5
REMARK    4  A    between atoms: C_5  and  O_6
REMARK    5  A    between atoms: O_6  and  C_7
REMARK                            x       y       z     vdW  Elec       q    Type
REMARK                         _______ _______ _______ _____ _____    ______ ____
ROOT
ATOM      1  C   UNL     1      -1.630   2.774 -22.151  0.00  0.00    +0.207 A 
ATOM      2  C   UNL     1      -3.044   2.924 -22.102  0.00  0.00    +0.180 A 
ATOM      3  O   UNL     1      -3.897   2.743 -21.027  0.00  0.00    -0.459 OA
ATOM      4  C   UNL     1      -5.167   3.010 -21.462  0.00  0.00    +0.196 A 
ATOM      5  C   UNL     1      -5.188   3.378 -22.785  0.00  0.00    +0.050 A 
ATOM      6  C   UNL     1      -3.822   3.329 -23.222  0.00  0.00    +0.025 A 
ATOM      7  C   UNL     1      -3.143   3.586 -24.431  0.00  0.00    +0.023 A 
ATOM      8  C   UNL     1      -1.741   3.476 -24.498  0.00  0.00    +0.022 A 
ATOM      9  C   UNL     1      -1.013   3.789 -25.719  0.00  0.00    +0.019 A 
ATOM     10  C   UNL     1       0.328   3.745 -25.750  0.00  0.00    +0.092 A 
ATOM     11  C   UNL     1       1.117   3.379 -24.554  0.00  0.00    +0.337 A 
ATOM     12  O   UNL     1       0.397   3.019 -23.439  0.00  0.00    -0.418 OA
ATOM     13  O   UNL     1       2.346   3.404 -24.560  0.00  0.00    -0.245 OA
ATOM     14  C   UNL     1      -0.982   3.084 -23.370  0.00  0.00    +0.184 A 
ENDROOT
BRANCH   1  15
ATOM     15  O   UNL     1      -0.827   2.348 -21.107  0.00  0.00    -0.481 OA
BRANCH  15  16
ATOM     16  C   UNL     1       0.004   1.207 -21.284  0.00  0.00    +0.257 C 
BRANCH  16  19
ATOM     17  C   UNL     1       3.917   1.593 -20.889  0.00  0.00    +0.038 C 
ATOM     18  C   UNL     1       2.578   1.176 -21.465  0.00  0.00    -0.076 C 
ATOM     19  C   UNL     1       1.424   1.522 -20.856  0.00  0.00    +0.012 C 
ATOM     20  C   UNL     1       2.699   0.375 -22.753  0.00  0.00    +0.038 C 
ENDBRANCH  16  19
ENDBRANCH  15  16
ENDBRANCH   1  15
TORSDOF 3
ENDMDL
MODEL 8
REMARK VINA RESULT:    -7.780      2.206      3.772
REMARK INTER + INTRA:          -8.964
REMARK INTER:                  -8.614
REMARK INTRA:                  -0.350
REMARK UNBOUND:                 0.181
REMARK  Name = ZINC000000001904
REMARK  5 active torsions:
REMARK  status: ('A' for Active; 'I' for Inactive)
REMARK    1  A    between atoms: C_1  and  C_2
REMARK    2  A    between atoms: C_2  and  C_3
REMARK    3  A    between atoms: C_4  and  C_5
REMARK    4  A    between atoms: C_5  and  O_6
REMARK    5  A    between atoms: O_6  and  C_7
REMARK                            x       y       z     vdW  Elec       q    Type
REMARK                         _______ _______ _______ _____ _____    ______ ____
ROOT
ATOM      1  C   UNL     1       2.072   2.399 -23.650  0.00  0.00    +0.207 A 
ATOM      2  C   UNL     1       1.077   1.925 -22.751  0.00  0.00    +0.180 A 
ATOM      3  O   UNL     1      -0.255   1.644 -23.003  0.00  0.00    -0.459 OA
ATOM      4  C   UNL     1      -0.811   1.209 -21.831  0.00  0.00    +0.196 A 
ATOM      5  C   UNL     1       0.106   1.175 -20.810  0.00  0.00    +0.050 A 
ATOM      6  C   UNL     1       1.339   1.636 -21.383  0.00  0.00    +0.025 A 
ATOM      7  C   UNL     1       2.653   1.838 -20.913  0.00  0.00    +0.023 A 
ATOM      8  C   UNL     1       3.664   2.275 -21.789  0.00  0.00    +0.022 A 
ATOM      9  C   UNL     1       5.039   2.439 -21.340  0.00  0.00    +0.019 A 
ATOM     10  C   UNL     1       6.006   2.791 -22.201  0.00  0.00    +0.092 A 
ATOM     11  C   UNL     1       5.718   3.028 -23.632  0.00  0.00    +0.337 A 
ATOM     12  O   UNL     1       4.399   2.937 -24.008  0.00  0.00    -0.418 OA
ATOM     13  O   UNL     1       6.612   3.285 -24.435  0.00  0.00    -0.245 OA
ATOM     14  C   UNL     1       3.387   2.546 -23.149  0.00  0.00    +0.184 A 
ENDROOT
BRANCH   1  15
ATOM     15  O   UNL     1       1.867   2.732 -24.978  0.00  0.00    -0.481 OA
BRANCH  15  16
ATOM     16  C   UNL     1       1.306   3.998 -25.303  0.00  0.00    +0.257 C 
BRANCH  16  19
ATOM     17  C   UNL     1      -2.570   4.225 -24.562  0.00  0.00    +0.038 C 
ATOM     18  C   UNL     1      -1.074   4.398 -24.386  0.00  0.00    -0.076 C 
ATOM     19  C   UNL     1      -0.209   3.915 -25.303  0.00  0.00    +0.012 C 
ATOM     20  C   UNL     1      -0.697   5.154 -23.120  0.00  0.00    +0.038 C 
ENDBRANCH  16  19
ENDBRANCH  15  16
ENDBRANCH   1  15
TORSDOF 3
ENDMDL
MODEL 9
REMARK VINA RESULT:    -7.614      2.104      4.293
REMARK INTER + INTRA:          -8.769
REMARK INTER:                  -8.949
REMARK INTRA:                   0.181
REMARK UNBOUND:                 0.181
REMARK  Name = ZINC000000001904
REMARK  5 active torsions:
REMARK  status: ('A' for Active; 'I' for Inactive)
REMARK    1  A    between atoms: C_1  and  C_2
REMARK    2  A    between atoms: C_2  and  C_3
REMARK    3  A    between atoms: C_4  and  C_5
REMARK    4  A    between atoms: C_5  and  O_6
REMARK    5  A    between atoms: O_6  and  C_7
REMARK                            x       y       z     vdW  Elec       q    Type
REMARK                         _______ _______ _______ _____ _____    ______ ____
ROOT
ATOM      1  C   UNL     1      -0.417   3.367 -23.375  0.00  0.00    +0.207 A 
ATOM      2  C   UNL     1      -1.480   3.383 -22.431  0.00  0.00    +0.180 A 
ATOM      3  O   UNL     1      -2.674   4.082 -22.482  0.00  0.00    -0.459 OA
ATOM      4  C   UNL     1      -3.379   3.773 -21.351  0.00  0.00    +0.196 A 
ATOM      5  C   UNL     1      -2.705   2.879 -20.556  0.00  0.00    +0.050 A 
ATOM      6  C   UNL     1      -1.470   2.611 -21.235  0.00  0.00    +0.025 A 
ATOM      7  C   UNL     1      -0.342   1.802 -20.990  0.00  0.00    +0.023 A 
ATOM      8  C   UNL     1       0.710   1.743 -21.923  0.00  0.00    +0.022 A 
ATOM      9  C   UNL     1       1.859   0.874 -21.718  0.00  0.00    +0.019 A 
ATOM     10  C   UNL     1       2.822   0.777 -22.648  0.00  0.00    +0.092 A 
ATOM     11  C   UNL     1       2.758   1.545 -23.910  0.00  0.00    +0.337 A 
ATOM     12  O   UNL     1       1.699   2.411 -24.040  0.00  0.00    -0.418 OA
ATOM     13  O   UNL     1       3.604   1.407 -24.791  0.00  0.00    -0.245 OA
ATOM     14  C   UNL     1       0.677   2.508 -23.113  0.00  0.00    +0.184 A 
ENDROOT
BRANCH   1  15
ATOM     15  O   UNL     1      -0.354   4.123 -24.533  0.00  0.00    -0.481 OA
BRANCH  15  16
ATOM     16  C   UNL     1      -1.013   3.659 -25.706  0.00  0.00    +0.257 C 
BRANCH  16  19
ATOM     17  C   UNL     1      -4.936   3.208 -25.871  0.00  0.00    +0.038 C 
ATOM     18  C   UNL     1      -3.504   3.404 -26.331  0.00  0.00    -0.076 C 
ATOM     19  C   UNL     1      -2.494   3.476 -25.437  0.00  0.00    +0.012 C 
ATOM     20  C   UNL     1      -3.362   3.490 -27.843  0.00  0.00    +0.038 C 
ENDBRANCH  16  19
ENDBRANCH  15  16
ENDBRANCH   1  15
TORSDOF 3
ENDMDL
