MODEL 1
REMARK VINA RESULT:    -8.425      0.000      0.000
REMARK INTER + INTRA:          -8.671
REMARK INTER:                  -8.671
REMARK INTRA:                   0.000
REMARK UNBOUND:                 0.000
REMARK  Name = O=c1c2ccccc2nc2n1CC[C@@H]2O                                          ZINC000100064968
REMARK  1 active torsions:
REMARK  status: ('A' for Active; 'I' for Inactive)
REMARK    1  A    between atoms: C_14  and  O_15
REMARK                            x       y       z     vdW  Elec       q    Type
REMARK                         _______ _______ _______ _____ _____    ______ ____
ROOT
ATOM      1  O   UNL     1      -1.893   3.698 -25.155  0.00  0.00    -0.267 OA
ATOM      2  C   UNL     1      -1.995   3.233 -23.945  0.00  0.00    +0.262 A 
ATOM      3  C   UNL     1      -3.144   3.248 -23.338  0.00  0.00    +0.065 A 
ATOM      4  C   UNL     1      -4.191   3.728 -23.940  0.00  0.00    +0.015 A 
ATOM      5  C   UNL     1      -5.340   3.743 -23.332  0.00  0.00    +0.001 A 
ATOM      6  C   UNL     1      -5.442   3.278 -22.123  0.00  0.00    +0.002 A 
ATOM      7  C   UNL     1      -4.395   2.798 -21.521  0.00  0.00    +0.028 A 
ATOM      8  C   UNL     1      -3.245   2.783 -22.128  0.00  0.00    +0.078 A 
ATOM      9  N   UNL     1      -2.198   2.303 -21.526  0.00  0.00    -0.231 NA
ATOM     10  C   UNL     1      -1.049   2.288 -22.133  0.00  0.00    +0.142 A 
ATOM     11  C   UNL     1       0.125   1.872 -21.763  0.00  0.00    +0.182 C 
ATOM     12  C   UNL     1       0.953   2.080 -22.743  0.00  0.00    +0.061 C 
ATOM     13  C   UNL     1       0.290   2.625 -23.720  0.00  0.00    +0.129 C 
ATOM     14  N   UNL     1      -0.948   2.753 -23.343  0.00  0.00    -0.294 N 
ENDROOT
BRANCH  11  15
ATOM     15  O   UNL     1       0.420   1.341 -20.613  0.00  0.00    -0.384 OA
ATOM     16  H   UNL     1       0.028   0.456 -20.555  0.00  0.00    +0.210 HD
ENDBRANCH  11  15
TORSDOF 1
ENDMDL
MODEL 2
REMARK VINA RESULT:    -8.075      1.223      2.630
REMARK INTER + INTRA:          -8.311
REMARK INTER:                  -8.311
REMARK INTRA:                   0.000
REMARK UNBOUND:                 0.000
REMARK  Name = O=c1c2ccccc2nc2n1CC[C@@H]2O                                          ZINC000100064968
REMARK  1 active torsions:
REMARK  status: ('A' for Active; 'I' for Inactive)
REMARK    1  A    between atoms: C_14  and  O_15
REMARK                            x       y       z     vdW  Elec       q    Type
REMARK                         _______ _______ _______ _____ _____    ______ ____
ROOT
ATOM      1  O   UNL     1      -1.985   2.375 -20.873  0.00  0.00    -0.267 OA
ATOM      2  C   UNL     1      -2.072   2.716 -22.124  0.00  0.00    +0.262 A 
ATOM      3  C   UNL     1      -3.217   3.080 -22.621  0.00  0.00    +0.065 A 
ATOM      4  C   UNL     1      -4.275   3.103 -21.866  0.00  0.00    +0.015 A 
ATOM      5  C   UNL     1      -5.420   3.466 -22.363  0.00  0.00    +0.001 A 
ATOM      6  C   UNL     1      -5.506   3.807 -23.615  0.00  0.00    +0.002 A 
ATOM      7  C   UNL     1      -4.448   3.784 -24.369  0.00  0.00    +0.028 A 
ATOM      8  C   UNL     1      -3.303   3.420 -23.873  0.00  0.00    +0.078 A 
ATOM      9  N   UNL     1      -2.245   3.398 -24.627  0.00  0.00    -0.231 NA
ATOM     10  C   UNL     1      -1.100   3.034 -24.130  0.00  0.00    +0.142 A 
ATOM     11  C   UNL     1       0.083   2.927 -24.658  0.00  0.00    +0.182 C 
ATOM     12  C   UNL     1       0.900   2.520 -23.733  0.00  0.00    +0.061 C 
ATOM     13  C   UNL     1       0.223   2.375 -22.633  0.00  0.00    +0.129 C 
ATOM     14  N   UNL     1      -1.014   2.693 -22.879  0.00  0.00    -0.294 N 
ENDROOT
BRANCH  11  15
ATOM     15  O   UNL     1       0.394   3.182 -25.894  0.00  0.00    -0.384 OA
ATOM     16  H   UNL     1       1.204   2.702 -26.130  0.00  0.00    +0.210 HD
ENDBRANCH  11  15
TORSDOF 1
ENDMDL
MODEL 3
REMARK VINA RESULT:    -8.052      1.653      4.866
REMARK INTER + INTRA:          -8.287
REMARK INTER:                  -8.287
REMARK INTRA:                   0.000
REMARK UNBOUND:                 0.000
REMARK  Name = O=c1c2ccccc2nc2n1CC[C@@H]2O                                          ZINC000100064968
REMARK  1 active torsions:
REMARK  status: ('A' for Active; 'I' for Inactive)
REMARK    1  A    between atoms: C_14  and  O_15
REMARK                            x       y       z     vdW  Elec       q    Type
REMARK                         _______ _______ _______ _____ _____    ______ ____
ROOT
ATOM      1  O   UNL     1      -3.668   2.600 -20.977  0.00  0.00    -0.267 OA
ATOM      2  C   UNL     1      -3.125   2.852 -22.131  0.00  0.00    +0.262 A 
ATOM      3  C   UNL     1      -1.865   2.596 -22.326  0.00  0.00    +0.065 A 
ATOM      4  C   UNL     1      -1.149   2.089 -21.367  0.00  0.00    +0.015 A 
ATOM      5  C   UNL     1       0.111   1.833 -21.562  0.00  0.00    +0.001 A 
ATOM      6  C   UNL     1       0.654   2.085 -22.716  0.00  0.00    +0.002 A 
ATOM      7  C   UNL     1      -0.062   2.592 -23.674  0.00  0.00    +0.028 A 
ATOM      8  C   UNL     1      -1.322   2.848 -23.480  0.00  0.00    +0.078 A 
ATOM      9  N   UNL     1      -2.038   3.355 -24.439  0.00  0.00    -0.231 NA
ATOM     10  C   UNL     1      -3.298   3.611 -24.244  0.00  0.00    +0.142 A 
ATOM     11  C   UNL     1      -4.215   4.108 -25.019  0.00  0.00    +0.182 C 
ATOM     12  C   UNL     1      -5.325   4.163 -24.345  0.00  0.00    +0.061 C 
ATOM     13  C   UNL     1      -5.094   3.700 -23.152  0.00  0.00    +0.129 C 
ATOM     14  N   UNL     1      -3.841   3.359 -23.090  0.00  0.00    -0.294 N 
ENDROOT
BRANCH  11  15
ATOM     15  O   UNL     1      -4.051   4.483 -26.253  0.00  0.00    -0.384 OA
ATOM     16  H   UNL     1      -4.013   3.702 -26.827  0.00  0.00    +0.210 HD
ENDBRANCH  11  15
TORSDOF 1
ENDMDL
MODEL 4
REMARK VINA RESULT:    -7.997      1.835      4.294
REMARK INTER + INTRA:          -8.231
REMARK INTER:                  -8.231
REMARK INTRA:                   0.000
REMARK UNBOUND:                 0.000
REMARK  Name = O=c1c2ccccc2nc2n1CC[C@@H]2O                                          ZINC000100064968
REMARK  1 active torsions:
REMARK  status: ('A' for Active; 'I' for Inactive)
REMARK    1  A    between atoms: C_14  and  O_15
REMARK                            x       y       z     vdW  Elec       q    Type
REMARK                         _______ _______ _______ _____ _____    ______ ____
ROOT
ATOM      1  O   UNL     1      -1.221   3.721 -25.510  0.00  0.00    -0.267 OA
ATOM      2  C   UNL     1      -1.852   3.427 -24.412  0.00  0.00    +0.262 A 
ATOM      3  C   UNL     1      -1.217   2.861 -23.429  0.00  0.00    +0.065 A 
ATOM      4  C   UNL     1       0.049   2.589 -23.544  0.00  0.00    +0.015 A 
ATOM      5  C   UNL     1       0.683   2.023 -22.561  0.00  0.00    +0.001 A 
ATOM      6  C   UNL     1       0.052   1.729 -21.463  0.00  0.00    +0.002 A 
ATOM      7  C   UNL     1      -1.214   2.001 -21.348  0.00  0.00    +0.028 A 
ATOM      8  C   UNL     1      -1.849   2.567 -22.332  0.00  0.00    +0.078 A 
ATOM      9  N   UNL     1      -3.115   2.839 -22.217  0.00  0.00    -0.231 NA
ATOM     10  C   UNL     1      -3.750   3.405 -23.200  0.00  0.00    +0.142 A 
ATOM     11  C   UNL     1      -4.988   3.774 -23.339  0.00  0.00    +0.182 C 
ATOM     12  C   UNL     1      -5.122   4.297 -24.521  0.00  0.00    +0.061 C 
ATOM     13  C   UNL     1      -3.967   4.250 -25.114  0.00  0.00    +0.129 C 
ATOM     14  N   UNL     1      -3.118   3.699 -24.298  0.00  0.00    -0.294 N 
ENDROOT
BRANCH  11  15
ATOM     15  O   UNL     1      -5.928   3.644 -22.449  0.00  0.00    -0.384 OA
ATOM     16  H   UNL     1      -6.193   2.713 -22.393  0.00  0.00    +0.210 HD
ENDBRANCH  11  15
TORSDOF 1
ENDMDL
MODEL 5
REMARK VINA RESULT:    -7.744      1.593      4.710
REMARK INTER + INTRA:          -7.970
REMARK INTER:                  -7.970
REMARK INTRA:                   0.000
REMARK UNBOUND:                 0.000
REMARK  Name = O=c1c2ccccc2nc2n1CC[C@@H]2O                                          ZINC000100064968
REMARK  1 active torsions:
REMARK  status: ('A' for Active; 'I' for Inactive)
REMARK    1  A    between atoms: C_14  and  O_15
REMARK                            x       y       z     vdW  Elec       q    Type
REMARK                         _______ _______ _______ _____ _____    ______ ____
ROOT
ATOM      1  O   UNL     1      -1.009   2.018 -21.073  0.00  0.00    -0.267 OA
ATOM      2  C   UNL     1      -1.633   2.560 -22.077  0.00  0.00    +0.262 A 
ATOM      3  C   UNL     1      -0.976   2.887 -23.151  0.00  0.00    +0.065 A 
ATOM      4  C   UNL     1       0.304   2.673 -23.220  0.00  0.00    +0.015 A 
ATOM      5  C   UNL     1       0.961   3.000 -24.293  0.00  0.00    +0.001 A 
ATOM      6  C   UNL     1       0.337   3.542 -25.296  0.00  0.00    +0.002 A 
ATOM      7  C   UNL     1      -0.943   3.756 -25.227  0.00  0.00    +0.028 A 
ATOM      8  C   UNL     1      -1.601   3.428 -24.154  0.00  0.00    +0.078 A 
ATOM      9  N   UNL     1      -2.881   3.643 -24.085  0.00  0.00    -0.231 NA
ATOM     10  C   UNL     1      -3.537   3.315 -23.012  0.00  0.00    +0.142 A 
ATOM     11  C   UNL     1      -4.793   3.420 -22.694  0.00  0.00    +0.182 C 
ATOM     12  C   UNL     1      -4.946   2.943 -21.495  0.00  0.00    +0.061 C 
ATOM     13  C   UNL     1      -3.784   2.544 -21.070  0.00  0.00    +0.129 C 
ATOM     14  N   UNL     1      -2.913   2.774 -22.008  0.00  0.00    -0.294 N 
ENDROOT
BRANCH  11  15
ATOM     15  O   UNL     1      -5.732   3.915 -23.445  0.00  0.00    -0.384 OA
ATOM     16  H   UNL     1      -5.758   3.436 -24.289  0.00  0.00    +0.210 HD
ENDBRANCH  11  15
TORSDOF 1
ENDMDL
MODEL 6
REMARK VINA RESULT:    -7.712      2.054      4.205
REMARK INTER + INTRA:          -7.938
REMARK INTER:                  -7.938
REMARK INTRA:                   0.000
REMARK UNBOUND:                 0.000
REMARK  Name = O=c1c2ccccc2nc2n1CC[C@@H]2O                                          ZINC000100064968
REMARK  1 active torsions:
REMARK  status: ('A' for Active; 'I' for Inactive)
REMARK    1  A    between atoms: C_14  and  O_15
REMARK                            x       y       z     vdW  Elec       q    Type
REMARK                         _______ _______ _______ _____ _____    ______ ____
ROOT
ATOM      1  O   UNL     1      -3.084   2.882 -25.353  0.00  0.00    -0.267 OA
ATOM      2  C   UNL     1      -2.502   3.329 -24.279  0.00  0.00    +0.262 A 
ATOM      3  C   UNL     1      -1.256   3.697 -24.321  0.00  0.00    +0.065 A 
ATOM      4  C   UNL     1      -0.592   3.618 -25.435  0.00  0.00    +0.015 A 
ATOM      5  C   UNL     1       0.654   3.987 -25.476  0.00  0.00    +0.001 A 
ATOM      6  C   UNL     1       1.235   4.434 -24.403  0.00  0.00    +0.002 A 
ATOM      7  C   UNL     1       0.571   4.513 -23.289  0.00  0.00    +0.028 A 
ATOM      8  C   UNL     1      -0.675   4.144 -23.247  0.00  0.00    +0.078 A 
ATOM      9  N   UNL     1      -1.340   4.223 -22.133  0.00  0.00    -0.231 NA
ATOM     10  C   UNL     1      -2.585   3.855 -22.092  0.00  0.00    +0.142 A 
ATOM     11  C   UNL     1      -3.455   3.834 -21.126  0.00  0.00    +0.182 C 
ATOM     12  C   UNL     1      -4.574   3.374 -21.602  0.00  0.00    +0.061 C 
ATOM     13  C   UNL     1      -4.396   3.110 -22.862  0.00  0.00    +0.129 C 
ATOM     14  N   UNL     1      -3.167   3.408 -23.165  0.00  0.00    -0.294 N 
ENDROOT
BRANCH  11  15
ATOM     15  O   UNL     1      -3.243   4.208 -19.899  0.00  0.00    -0.384 OA
ATOM     16  H   UNL     1      -3.499   3.494 -19.294  0.00  0.00    +0.210 HD
ENDBRANCH  11  15
TORSDOF 1
ENDMDL
MODEL 7
REMARK VINA RESULT:    -7.622      2.380      3.035
REMARK INTER + INTRA:          -7.845
REMARK INTER:                  -7.845
REMARK INTRA:                   0.000
REMARK UNBOUND:                 0.000
REMARK  Name = O=c1c2ccccc2nc2n1CC[C@@H]2O                                          ZINC000100064968
REMARK  1 active torsions:
REMARK  status: ('A' for Active; 'I' for Inactive)
REMARK    1  A    between atoms: C_14  and  O_15
REMARK                            x       y       z     vdW  Elec       q    Type
REMARK                         _______ _______ _______ _____ _____    ______ ____
ROOT
ATOM      1  O   UNL     1       0.761   5.199 -23.715  0.00  0.00    -0.267 OA
ATOM      2  C   UNL     1       0.668   3.972 -23.294  0.00  0.00    +0.262 A 
ATOM      3  C   UNL     1      -0.385   3.591 -22.633  0.00  0.00    +0.065 A 
ATOM      4  C   UNL     1      -1.343   4.435 -22.392  0.00  0.00    +0.015 A 
ATOM      5  C   UNL     1      -2.395   4.053 -21.731  0.00  0.00    +0.001 A 
ATOM      6  C   UNL     1      -2.488   2.826 -21.311  0.00  0.00    +0.002 A 
ATOM      7  C   UNL     1      -1.530   1.982 -21.551  0.00  0.00    +0.028 A 
ATOM      8  C   UNL     1      -0.477   2.364 -22.213  0.00  0.00    +0.078 A 
ATOM      9  N   UNL     1       0.481   1.519 -22.454  0.00  0.00    -0.231 NA
ATOM     10  C   UNL     1       1.533   1.901 -23.115  0.00  0.00    +0.142 A 
ATOM     11  C   UNL     1       2.608   1.269 -23.480  0.00  0.00    +0.182 C 
ATOM     12  C   UNL     1       3.366   2.104 -24.127  0.00  0.00    +0.061 C 
ATOM     13  C   UNL     1       2.759   3.253 -24.161  0.00  0.00    +0.129 C 
ATOM     14  N   UNL     1       1.626   3.128 -23.535  0.00  0.00    -0.294 N 
ENDROOT
BRANCH  11  15
ATOM     15  O   UNL     1       2.878   0.020 -23.241  0.00  0.00    -0.384 OA
ATOM     16  H   UNL     1       2.106  -0.407 -22.838  0.00  0.00    +0.210 HD
ENDBRANCH  11  15
TORSDOF 1
ENDMDL
MODEL 8
REMARK VINA RESULT:    -7.585      2.488      4.018
REMARK INTER + INTRA:          -7.807
REMARK INTER:                  -7.807
REMARK INTRA:                   0.000
REMARK UNBOUND:                 0.000
REMARK  Name = O=c1c2ccccc2nc2n1CC[C@@H]2O                                          ZINC000100064968
REMARK  1 active torsions:
REMARK  status: ('A' for Active; 'I' for Inactive)
REMARK    1  A    between atoms: C_14  and  O_15
REMARK                            x       y       z     vdW  Elec       q    Type
REMARK                         _______ _______ _______ _____ _____    ______ ____
ROOT
ATOM      1  O   UNL     1       0.548   1.196 -20.284  0.00  0.00    -0.267 OA
ATOM      2  C   UNL     1       0.733   1.508 -21.532  0.00  0.00    +0.262 A 
ATOM      3  C   UNL     1      -0.232   2.047 -22.217  0.00  0.00    +0.065 A 
ATOM      4  C   UNL     1      -1.382   2.274 -21.654  0.00  0.00    +0.015 A 
ATOM      5  C   UNL     1      -2.346   2.812 -22.339  0.00  0.00    +0.001 A 
ATOM      6  C   UNL     1      -2.161   3.124 -23.587  0.00  0.00    +0.002 A 
ATOM      7  C   UNL     1      -1.012   2.898 -24.151  0.00  0.00    +0.028 A 
ATOM      8  C   UNL     1      -0.046   2.358 -23.465  0.00  0.00    +0.078 A 
ATOM      9  N   UNL     1       1.103   2.132 -24.029  0.00  0.00    -0.231 NA
ATOM     10  C   UNL     1       2.067   1.593 -23.344  0.00  0.00    +0.142 A 
ATOM     11  C   UNL     1       3.285   1.269 -23.662  0.00  0.00    +0.182 C 
ATOM     12  C   UNL     1       3.852   0.756 -22.611  0.00  0.00    +0.061 C 
ATOM     13  C   UNL     1       2.986   0.764 -21.642  0.00  0.00    +0.129 C 
ATOM     14  N   UNL     1       1.882   1.281 -22.095  0.00  0.00    -0.294 N 
ENDROOT
BRANCH  11  15
ATOM     15  O   UNL     1       3.838   1.429 -24.828  0.00  0.00    -0.384 OA
ATOM     16  H   UNL     1       3.964   0.563 -25.248  0.00  0.00    +0.210 HD
ENDBRANCH  11  15
TORSDOF 1
ENDMDL
MODEL 9
REMARK VINA RESULT:    -7.277      2.838      3.964
REMARK INTER + INTRA:          -7.489
REMARK INTER:                  -7.489
REMARK INTRA:                   0.000
REMARK UNBOUND:                 0.000
REMARK  Name = O=c1c2ccccc2nc2n1CC[C@@H]2O                                          ZINC000100064968
REMARK  1 active torsions:
REMARK  status: ('A' for Active; 'I' for Inactive)
REMARK    1  A    between atoms: C_14  and  O_15
REMARK                            x       y       z     vdW  Elec       q    Type
REMARK                         _______ _______ _______ _____ _____    ______ ____
ROOT
ATOM      1  O   UNL     1       1.360   1.474 -23.448  0.00  0.00    -0.267 OA
ATOM      2  C   UNL     1       1.072   2.742 -23.445  0.00  0.00    +0.262 A 
ATOM      3  C   UNL     1      -0.164   3.128 -23.567  0.00  0.00    +0.065 A 
ATOM      4  C   UNL     1      -1.111   2.246 -23.691  0.00  0.00    +0.015 A 
ATOM      5  C   UNL     1      -2.346   2.633 -23.812  0.00  0.00    +0.001 A 
ATOM      6  C   UNL     1      -2.634   3.900 -23.810  0.00  0.00    +0.002 A 
ATOM      7  C   UNL     1      -1.686   4.782 -23.685  0.00  0.00    +0.028 A 
ATOM      8  C   UNL     1      -0.451   4.396 -23.564  0.00  0.00    +0.078 A 
ATOM      9  N   UNL     1       0.497   5.277 -23.439  0.00  0.00    -0.231 NA
ATOM     10  C   UNL     1       1.732   4.891 -23.318  0.00  0.00    +0.142 A 
ATOM     11  C   UNL     1       2.841   5.554 -23.182  0.00  0.00    +0.182 C 
ATOM     12  C   UNL     1       3.815   4.696 -23.101  0.00  0.00    +0.061 C 
ATOM     13  C   UNL     1       3.307   3.503 -23.187  0.00  0.00    +0.129 C 
ATOM     14  N   UNL     1       2.019   3.623 -23.321  0.00  0.00    -0.294 N 
ENDROOT
BRANCH  11  15
ATOM     15  O   UNL     1       2.957   6.848 -23.136  0.00  0.00    -0.384 OA
ATOM     16  H   UNL     1       3.897   7.089 -23.112  0.00  0.00    +0.210 HD
ENDBRANCH  11  15
TORSDOF 1
ENDMDL
