MODEL 1
REMARK VINA RESULT:    -9.547      0.000      0.000
REMARK INTER + INTRA:          -9.826
REMARK INTER:                  -9.826
REMARK INTRA:                   0.000
REMARK UNBOUND:                 0.000
REMARK  Name = ZINC000005037446
REMARK  5 active torsions:
REMARK  status: ('A' for Active; 'I' for Inactive)
REMARK    1  A    between atoms: C_1  and  C_2
REMARK    2  A    between atoms: C_2  and  C_3
REMARK    3  A    between atoms: C_7  and  C_8
REMARK    4  A    between atoms: C_12  and  C_13
REMARK    5  A    between atoms: C_12  and  O_14
REMARK                            x       y       z     vdW  Elec       q    Type
REMARK                         _______ _______ _______ _____ _____    ______ ____
ROOT
ATOM      1  C   UNL     1       1.207   2.648 -22.870  0.00  0.00    +0.039 C 
ATOM      2  C   UNL     1       0.228   3.091 -23.601  0.00  0.00    -0.076 C 
ATOM      3  C   UNL     1      -0.988   3.065 -23.143  0.00  0.00    -0.070 C 
ATOM      4  C   UNL     1      -1.225   2.596 -21.954  0.00  0.00    +0.031 C 
ATOM      5  C   UNL     1      -2.441   2.570 -21.496  0.00  0.00    +0.011 C 
ATOM      6  C   UNL     1      -3.421   3.013 -22.227  0.00  0.00    -0.026 C 
ATOM      7  C   UNL     1      -4.637   2.987 -21.769  0.00  0.00    +0.007 C 
ATOM      8  C   UNL     1      -5.616   3.430 -22.500  0.00  0.00    +0.003 C 
ATOM      9  C   UNL     1      -5.379   3.899 -23.689  0.00  0.00    +0.035 C 
ATOM     10  C   UNL     1      -4.163   3.926 -24.147  0.00  0.00    +0.067 C 
ATOM     11  C   UNL     1      -3.167   4.130 -24.956  0.00  0.00    +0.041 C 
ATOM     12  C   UNL     1      -3.658   2.544 -21.038  0.00  0.00    +0.011 C 
ATOM     13  C   UNL     1      -3.184   3.483 -23.416  0.00  0.00    +0.030 C 
ATOM     14  C   UNL     1      -1.968   3.509 -23.875  0.00  0.00    +0.037 C 
ATOM     15  C   UNL     1       0.465   3.561 -24.790  0.00  0.00    +0.039 C 
ENDROOT
BRANCH  10  16
ATOM     16  O   UNL     1      -4.796   4.440 -25.159  0.00  0.00    -0.389 OA
ATOM     17  H   UNL     1      -4.485   4.026 -25.980  0.00  0.00    +0.210 HD
ENDBRANCH  10  16
TORSDOF 1
ENDMDL
MODEL 2
REMARK VINA RESULT:    -9.502      1.482      4.223
REMARK INTER + INTRA:          -9.780
REMARK INTER:                  -9.780
REMARK INTRA:                   0.000
REMARK UNBOUND:                 0.000
REMARK  Name = ZINC000005037446
REMARK  5 active torsions:
REMARK  status: ('A' for Active; 'I' for Inactive)
REMARK    1  A    between atoms: C_1  and  C_2
REMARK    2  A    between atoms: C_2  and  C_3
REMARK    3  A    between atoms: C_7  and  C_8
REMARK    4  A    between atoms: C_12  and  C_13
REMARK    5  A    between atoms: C_12  and  O_14
REMARK                            x       y       z     vdW  Elec       q    Type
REMARK                         _______ _______ _______ _____ _____    ______ ____
ROOT
ATOM      1  C   UNL     1      -5.655   3.354 -22.110  0.00  0.00    +0.039 C 
ATOM      2  C   UNL     1      -4.773   3.487 -23.056  0.00  0.00    -0.076 C 
ATOM      3  C   UNL     1      -3.538   3.141 -22.845  0.00  0.00    -0.070 C 
ATOM      4  C   UNL     1      -3.185   2.663 -21.689  0.00  0.00    +0.031 C 
ATOM      5  C   UNL     1      -1.950   2.317 -21.480  0.00  0.00    +0.011 C 
ATOM      6  C   UNL     1      -1.067   2.450 -22.425  0.00  0.00    -0.026 C 
ATOM      7  C   UNL     1       0.168   2.104 -22.215  0.00  0.00    +0.007 C 
ATOM      8  C   UNL     1       1.050   2.237 -23.160  0.00  0.00    +0.003 C 
ATOM      9  C   UNL     1       0.697   2.716 -24.316  0.00  0.00    +0.035 C 
ATOM     10  C   UNL     1      -0.538   3.061 -24.527  0.00  0.00    +0.067 C 
ATOM     11  C   UNL     1      -1.595   3.507 -25.139  0.00  0.00    +0.041 C 
ATOM     12  C   UNL     1      -0.714   1.972 -21.269  0.00  0.00    +0.011 C 
ATOM     13  C   UNL     1      -1.420   2.929 -23.581  0.00  0.00    +0.030 C 
ATOM     14  C   UNL     1      -2.655   3.274 -23.792  0.00  0.00    +0.037 C 
ATOM     15  C   UNL     1      -5.126   3.966 -24.212  0.00  0.00    +0.039 C 
ENDROOT
BRANCH  10  16
ATOM     16  O   UNL     1      -0.023   3.349 -25.685  0.00  0.00    -0.389 OA
ATOM     17  H   UNL     1       0.565   4.116 -25.596  0.00  0.00    +0.210 HD
ENDBRANCH  10  16
TORSDOF 1
ENDMDL
MODEL 3
REMARK VINA RESULT:    -9.444      1.441      2.749
REMARK INTER + INTRA:          -9.720
REMARK INTER:                  -9.720
REMARK INTRA:                   0.000
REMARK UNBOUND:                 0.000
REMARK  Name = ZINC000005037446
REMARK  5 active torsions:
REMARK  status: ('A' for Active; 'I' for Inactive)
REMARK    1  A    between atoms: C_1  and  C_2
REMARK    2  A    between atoms: C_2  and  C_3
REMARK    3  A    between atoms: C_7  and  C_8
REMARK    4  A    between atoms: C_12  and  C_13
REMARK    5  A    between atoms: C_12  and  O_14
REMARK                            x       y       z     vdW  Elec       q    Type
REMARK                         _______ _______ _______ _____ _____    ______ ____
ROOT
ATOM      1  C   UNL     1       0.408   3.781 -25.240  0.00  0.00    +0.039 C 
ATOM      2  C   UNL     1      -0.175   3.406 -24.141  0.00  0.00    -0.076 C 
ATOM      3  C   UNL     1      -1.466   3.504 -24.025  0.00  0.00    -0.070 C 
ATOM      4  C   UNL     1      -2.173   3.977 -25.008  0.00  0.00    +0.031 C 
ATOM      5  C   UNL     1      -3.464   4.074 -24.891  0.00  0.00    +0.011 C 
ATOM      6  C   UNL     1      -4.048   3.700 -23.791  0.00  0.00    -0.026 C 
ATOM      7  C   UNL     1      -5.339   3.798 -23.674  0.00  0.00    +0.007 C 
ATOM      8  C   UNL     1      -5.922   3.423 -22.575  0.00  0.00    +0.003 C 
ATOM      9  C   UNL     1      -5.215   2.950 -21.592  0.00  0.00    +0.035 C 
ATOM     10  C   UNL     1      -3.924   2.852 -21.709  0.00  0.00    +0.067 C 
ATOM     11  C   UNL     1      -2.686   2.593 -21.407  0.00  0.00    +0.041 C 
ATOM     12  C   UNL     1      -4.755   4.172 -24.774  0.00  0.00    +0.011 C 
ATOM     13  C   UNL     1      -3.340   3.227 -22.808  0.00  0.00    +0.030 C 
ATOM     14  C   UNL     1      -2.050   3.129 -22.924  0.00  0.00    +0.037 C 
ATOM     15  C   UNL     1       0.532   2.933 -23.158  0.00  0.00    +0.039 C 
ENDROOT
BRANCH  10  16
ATOM     16  O   UNL     1      -4.077   2.388 -20.505  0.00  0.00    -0.389 OA
ATOM     17  H   UNL     1      -4.814   1.756 -20.493  0.00  0.00    +0.210 HD
ENDBRANCH  10  16
TORSDOF 1
ENDMDL
MODEL 4
REMARK VINA RESULT:    -8.633      1.744      4.669
REMARK INTER + INTRA:          -8.885
REMARK INTER:                  -8.885
REMARK INTRA:                   0.000
REMARK UNBOUND:                 0.000
REMARK  Name = ZINC000005037446
REMARK  5 active torsions:
REMARK  status: ('A' for Active; 'I' for Inactive)
REMARK    1  A    between atoms: C_1  and  C_2
REMARK    2  A    between atoms: C_2  and  C_3
REMARK    3  A    between atoms: C_7  and  C_8
REMARK    4  A    between atoms: C_12  and  C_13
REMARK    5  A    between atoms: C_12  and  O_14
REMARK                            x       y       z     vdW  Elec       q    Type
REMARK                         _______ _______ _______ _____ _____    ______ ____
ROOT
ATOM      1  C   UNL     1      -3.875   2.429 -20.996  0.00  0.00    +0.039 C 
ATOM      2  C   UNL     1      -3.290   2.803 -22.095  0.00  0.00    -0.076 C 
ATOM      3  C   UNL     1      -2.023   2.569 -22.267  0.00  0.00    -0.070 C 
ATOM      4  C   UNL     1      -1.341   1.962 -21.341  0.00  0.00    +0.031 C 
ATOM      5  C   UNL     1      -0.075   1.729 -21.515  0.00  0.00    +0.011 C 
ATOM      6  C   UNL     1       0.511   2.102 -22.614  0.00  0.00    -0.026 C 
ATOM      7  C   UNL     1       1.778   1.869 -22.786  0.00  0.00    +0.007 C 
ATOM      8  C   UNL     1       2.364   2.242 -23.885  0.00  0.00    +0.003 C 
ATOM      9  C   UNL     1       1.682   2.849 -24.811  0.00  0.00    +0.035 C 
ATOM     10  C   UNL     1       0.416   3.083 -24.638  0.00  0.00    +0.067 C 
ATOM     11  C   UNL     1      -0.794   3.496 -24.875  0.00  0.00    +0.041 C 
ATOM     12  C   UNL     1       1.193   1.495 -21.688  0.00  0.00    +0.011 C 
ATOM     13  C   UNL     1      -0.170   2.709 -23.540  0.00  0.00    +0.030 C 
ATOM     14  C   UNL     1      -1.437   2.943 -23.367  0.00  0.00    +0.037 C 
ATOM     15  C   UNL     1      -3.971   3.410 -23.020  0.00  0.00    +0.039 C 
ENDROOT
BRANCH  10  16
ATOM     16  O   UNL     1       0.581   3.600 -25.819  0.00  0.00    -0.389 OA
ATOM     17  H   UNL     1       0.466   4.563 -25.769  0.00  0.00    +0.210 HD
ENDBRANCH  10  16
TORSDOF 1
ENDMDL
MODEL 5
REMARK VINA RESULT:    -8.167      1.490      2.998
REMARK INTER + INTRA:          -8.406
REMARK INTER:                  -8.406
REMARK INTRA:                   0.000
REMARK UNBOUND:                 0.000
REMARK  Name = ZINC000005037446
REMARK  5 active torsions:
REMARK  status: ('A' for Active; 'I' for Inactive)
REMARK    1  A    between atoms: C_1  and  C_2
REMARK    2  A    between atoms: C_2  and  C_3
REMARK    3  A    between atoms: C_7  and  C_8
REMARK    4  A    between atoms: C_12  and  C_13
REMARK    5  A    between atoms: C_12  and  O_14
REMARK                            x       y       z     vdW  Elec       q    Type
REMARK                         _______ _______ _______ _____ _____    ______ ____
ROOT
ATOM      1  C   UNL     1       2.523   2.391 -23.829  0.00  0.00    +0.039 C 
ATOM      2  C   UNL     1       1.526   2.251 -23.008  0.00  0.00    -0.076 C 
ATOM      3  C   UNL     1       0.331   2.616 -23.369  0.00  0.00    -0.070 C 
ATOM      4  C   UNL     1       0.135   3.121 -24.550  0.00  0.00    +0.031 C 
ATOM      5  C   UNL     1      -1.059   3.486 -24.910  0.00  0.00    +0.011 C 
ATOM      6  C   UNL     1      -2.058   3.346 -24.089  0.00  0.00    -0.026 C 
ATOM      7  C   UNL     1      -3.252   3.711 -24.449  0.00  0.00    +0.007 C 
ATOM      8  C   UNL     1      -4.250   3.571 -23.628  0.00  0.00    +0.003 C 
ATOM      9  C   UNL     1      -4.053   3.065 -22.447  0.00  0.00    +0.035 C 
ATOM     10  C   UNL     1      -2.859   2.700 -22.086  0.00  0.00    +0.067 C 
ATOM     11  C   UNL     1      -1.895   2.230 -21.352  0.00  0.00    +0.041 C 
ATOM     12  C   UNL     1      -2.254   3.851 -25.270  0.00  0.00    +0.011 C 
ATOM     13  C   UNL     1      -1.861   2.840 -22.907  0.00  0.00    +0.030 C 
ATOM     14  C   UNL     1      -0.667   2.475 -22.547  0.00  0.00    +0.037 C 
ATOM     15  C   UNL     1       1.722   1.745 -21.827  0.00  0.00    +0.039 C 
ENDROOT
BRANCH  10  16
ATOM     16  O   UNL     1      -3.522   2.396 -21.010  0.00  0.00    -0.389 OA
ATOM     17  H   UNL     1      -3.154   1.586 -20.622  0.00  0.00    +0.210 HD
ENDBRANCH  10  16
TORSDOF 1
ENDMDL
MODEL 6
REMARK VINA RESULT:    -8.113      2.045      3.425
REMARK INTER + INTRA:          -8.350
REMARK INTER:                  -8.350
REMARK INTRA:                   0.000
REMARK UNBOUND:                 0.000
REMARK  Name = ZINC000005037446
REMARK  5 active torsions:
REMARK  status: ('A' for Active; 'I' for Inactive)
REMARK    1  A    between atoms: C_1  and  C_2
REMARK    2  A    between atoms: C_2  and  C_3
REMARK    3  A    between atoms: C_7  and  C_8
REMARK    4  A    between atoms: C_12  and  C_13
REMARK    5  A    between atoms: C_12  and  O_14
REMARK                            x       y       z     vdW  Elec       q    Type
REMARK                         _______ _______ _______ _____ _____    ______ ____
ROOT
ATOM      1  C   UNL     1       3.332   0.719 -21.145  0.00  0.00    +0.039 C 
ATOM      2  C   UNL     1       2.938   1.312 -22.232  0.00  0.00    -0.076 C 
ATOM      3  C   UNL     1       1.703   1.700 -22.349  0.00  0.00    -0.070 C 
ATOM      4  C   UNL     1       0.862   1.495 -21.379  0.00  0.00    +0.031 C 
ATOM      5  C   UNL     1      -0.372   1.883 -21.497  0.00  0.00    +0.011 C 
ATOM      6  C   UNL     1      -0.767   2.476 -22.585  0.00  0.00    -0.026 C 
ATOM      7  C   UNL     1      -2.002   2.864 -22.702  0.00  0.00    +0.007 C 
ATOM      8  C   UNL     1      -2.397   3.456 -23.790  0.00  0.00    +0.003 C 
ATOM      9  C   UNL     1      -1.556   3.661 -24.760  0.00  0.00    +0.035 C 
ATOM     10  C   UNL     1      -0.321   3.273 -24.643  0.00  0.00    +0.067 C 
ATOM     11  C   UNL     1       0.928   3.066 -24.938  0.00  0.00    +0.041 C 
ATOM     12  C   UNL     1      -1.608   2.271 -21.615  0.00  0.00    +0.011 C 
ATOM     13  C   UNL     1       0.074   2.681 -23.555  0.00  0.00    +0.030 C 
ATOM     14  C   UNL     1       1.309   2.293 -23.438  0.00  0.00    +0.037 C 
ATOM     15  C   UNL     1       3.779   1.517 -23.202  0.00  0.00    +0.039 C 
ENDROOT
BRANCH  10  16
ATOM     16  O   UNL     1      -0.282   3.794 -25.833  0.00  0.00    -0.389 OA
ATOM     17  H   UNL     1      -0.501   3.114 -26.491  0.00  0.00    +0.210 HD
ENDBRANCH  10  16
TORSDOF 1
ENDMDL
MODEL 7
REMARK VINA RESULT:    -7.929      2.414      4.148
REMARK INTER + INTRA:          -8.160
REMARK INTER:                  -8.160
REMARK INTRA:                   0.000
REMARK UNBOUND:                 0.000
REMARK  Name = ZINC000005037446
REMARK  5 active torsions:
REMARK  status: ('A' for Active; 'I' for Inactive)
REMARK    1  A    between atoms: C_1  and  C_2
REMARK    2  A    between atoms: C_2  and  C_3
REMARK    3  A    between atoms: C_7  and  C_8
REMARK    4  A    between atoms: C_12  and  C_13
REMARK    5  A    between atoms: C_12  and  O_14
REMARK                            x       y       z     vdW  Elec       q    Type
REMARK                         _______ _______ _______ _____ _____    ______ ____
ROOT
ATOM      1  C   UNL     1       4.421   3.719 -23.587  0.00  0.00    +0.039 C 
ATOM      2  C   UNL     1       3.511   2.955 -23.061  0.00  0.00    -0.076 C 
ATOM      3  C   UNL     1       2.270   3.339 -23.045  0.00  0.00    -0.070 C 
ATOM      4  C   UNL     1       1.938   4.488 -23.555  0.00  0.00    +0.031 C 
ATOM      5  C   UNL     1       0.697   4.871 -23.539  0.00  0.00    +0.011 C 
ATOM      6  C   UNL     1      -0.214   4.106 -23.013  0.00  0.00    -0.026 C 
ATOM      7  C   UNL     1      -1.456   4.491 -22.997  0.00  0.00    +0.007 C 
ATOM      8  C   UNL     1      -2.365   3.726 -22.470  0.00  0.00    +0.003 C 
ATOM      9  C   UNL     1      -2.034   2.578 -21.960  0.00  0.00    +0.035 C 
ATOM     10  C   UNL     1      -0.792   2.193 -21.975  0.00  0.00    +0.067 C 
ATOM     11  C   UNL     1       0.261   1.455 -21.786  0.00  0.00    +0.041 C 
ATOM     12  C   UNL     1      -0.546   5.255 -23.523  0.00  0.00    +0.011 C 
ATOM     13  C   UNL     1       0.118   2.958 -22.502  0.00  0.00    +0.030 C 
ATOM     14  C   UNL     1       1.359   2.574 -22.518  0.00  0.00    +0.037 C 
ATOM     15  C   UNL     1       3.843   1.806 -22.550  0.00  0.00    +0.039 C 
ENDROOT
BRANCH  10  16
ATOM     16  O   UNL     1      -1.336   1.173 -21.383  0.00  0.00    -0.389 OA
ATOM     17  H   UNL     1      -1.675   0.554 -22.050  0.00  0.00    +0.210 HD
ENDBRANCH  10  16
TORSDOF 1
ENDMDL
MODEL 8
REMARK VINA RESULT:    -7.747      3.686      6.833
REMARK INTER + INTRA:          -7.974
REMARK INTER:                  -7.974
REMARK INTRA:                   0.000
REMARK UNBOUND:                 0.000
REMARK  Name = ZINC000005037446
REMARK  5 active torsions:
REMARK  status: ('A' for Active; 'I' for Inactive)
REMARK    1  A    between atoms: C_1  and  C_2
REMARK    2  A    between atoms: C_2  and  C_3
REMARK    3  A    between atoms: C_7  and  C_8
REMARK    4  A    between atoms: C_12  and  C_13
REMARK    5  A    between atoms: C_12  and  O_14
REMARK                            x       y       z     vdW  Elec       q    Type
REMARK                         _______ _______ _______ _____ _____    ______ ____
ROOT
ATOM      1  C   UNL     1      -1.422   3.318 -24.516  0.00  0.00    +0.039 C 
ATOM      2  C   UNL     1      -0.508   4.118 -24.053  0.00  0.00    -0.076 C 
ATOM      3  C   UNL     1       0.735   3.736 -24.026  0.00  0.00    -0.070 C 
ATOM      4  C   UNL     1       1.062   2.556 -24.461  0.00  0.00    +0.031 C 
ATOM      5  C   UNL     1       2.305   2.176 -24.433  0.00  0.00    +0.011 C 
ATOM      6  C   UNL     1       3.220   2.975 -23.970  0.00  0.00    -0.026 C 
ATOM      7  C   UNL     1       4.462   2.594 -23.942  0.00  0.00    +0.007 C 
ATOM      8  C   UNL     1       5.377   3.393 -23.480  0.00  0.00    +0.003 C 
ATOM      9  C   UNL     1       5.049   4.573 -23.045  0.00  0.00    +0.035 C 
ATOM     10  C   UNL     1       3.807   4.955 -23.072  0.00  0.00    +0.067 C 
ATOM     11  C   UNL     1       2.755   5.703 -22.921  0.00  0.00    +0.041 C 
ATOM     12  C   UNL     1       3.548   1.795 -24.405  0.00  0.00    +0.011 C 
ATOM     13  C   UNL     1       2.892   4.155 -23.535  0.00  0.00    +0.030 C 
ATOM     14  C   UNL     1       1.650   4.537 -23.562  0.00  0.00    +0.037 C 
ATOM     15  C   UNL     1      -0.835   5.298 -23.618  0.00  0.00    +0.039 C 
ENDROOT
BRANCH  10  16
ATOM     16  O   UNL     1       4.356   6.014 -22.557  0.00  0.00    -0.389 OA
ATOM     17  H   UNL     1       4.860   5.765 -21.766  0.00  0.00    +0.210 HD
ENDBRANCH  10  16
TORSDOF 1
ENDMDL
MODEL 9
REMARK VINA RESULT:    -7.379      4.225      6.288
REMARK INTER + INTRA:          -7.595
REMARK INTER:                  -7.595
REMARK INTRA:                   0.000
REMARK UNBOUND:                 0.000
REMARK  Name = ZINC000005037446
REMARK  5 active torsions:
REMARK  status: ('A' for Active; 'I' for Inactive)
REMARK    1  A    between atoms: C_1  and  C_2
REMARK    2  A    between atoms: C_2  and  C_3
REMARK    3  A    between atoms: C_7  and  C_8
REMARK    4  A    between atoms: C_12  and  C_13
REMARK    5  A    between atoms: C_12  and  O_14
REMARK                            x       y       z     vdW  Elec       q    Type
REMARK                         _______ _______ _______ _____ _____    ______ ____
ROOT
ATOM      1  C   UNL     1       7.166   3.690 -22.858  0.00  0.00    +0.039 C 
ATOM      2  C   UNL     1       6.080   4.403 -22.839  0.00  0.00    -0.076 C 
ATOM      3  C   UNL     1       4.954   3.882 -23.228  0.00  0.00    -0.070 C 
ATOM      4  C   UNL     1       4.915   2.648 -23.635  0.00  0.00    +0.031 C 
ATOM      5  C   UNL     1       3.789   2.128 -24.024  0.00  0.00    +0.011 C 
ATOM      6  C   UNL     1       2.702   2.841 -24.005  0.00  0.00    -0.026 C 
ATOM      7  C   UNL     1       1.576   2.320 -24.393  0.00  0.00    +0.007 C 
ATOM      8  C   UNL     1       0.490   3.033 -24.374  0.00  0.00    +0.003 C 
ATOM      9  C   UNL     1       0.529   4.267 -23.967  0.00  0.00    +0.035 C 
ATOM     10  C   UNL     1       1.655   4.788 -23.578  0.00  0.00    +0.067 C 
ATOM     11  C   UNL     1       2.506   5.661 -23.129  0.00  0.00    +0.041 C 
ATOM     12  C   UNL     1       2.663   1.607 -24.412  0.00  0.00    +0.011 C 
ATOM     13  C   UNL     1       2.741   4.075 -23.597  0.00  0.00    +0.030 C 
ATOM     14  C   UNL     1       3.867   4.596 -23.208  0.00  0.00    +0.037 C 
ATOM     15  C   UNL     1       6.119   5.636 -22.431  0.00  0.00    +0.039 C 
ENDROOT
BRANCH  10  16
ATOM     16  O   UNL     1       0.864   5.804 -23.403  0.00  0.00    -0.389 OA
ATOM     17  H   UNL     1       1.389   6.586 -23.168  0.00  0.00    +0.210 HD
ENDBRANCH  10  16
TORSDOF 1
ENDMDL
