MODEL 1
REMARK VINA RESULT:    -9.269      0.000      0.000
REMARK INTER + INTRA:          -8.200
REMARK INTER:                 -11.035
REMARK INTRA:                   2.835
REMARK UNBOUND:                 2.694
REMARK  Name = COC1=CC=C2[C@H]3Cc4ccc(OC)c(Oc5ccccc5)c4[C@@]2(CCN3C)C1              ZINC000253505528
REMARK  7 active torsions:
REMARK  status: ('A' for Active; 'I' for Inactive)
REMARK    1  A    between atoms: C_1  and  O_2
REMARK    2  A    between atoms: O_2  and  C_3
REMARK    3  A    between atoms: C_12  and  O_13
REMARK    4  A    between atoms: O_13  and  C_14
REMARK    5  A    between atoms: C_15  and  O_16
REMARK    6  A    between atoms: O_16  and  C_17
REMARK    7  A    between atoms: N_27  and  C_28
REMARK                            x       y       z     vdW  Elec       q    Type
REMARK                         _______ _______ _______ _____ _____    ______ ____
ROOT
ATOM      1  C   UNL     1      -2.943   2.858 -22.157  0.00  0.00    +0.098 C 
ATOM      2  C   UNL     1      -3.976   3.024 -22.598  0.00  0.00    +0.041 C 
ATOM      3  C   UNL     1      -4.053   3.218 -23.598  0.00  0.00    +0.009 C 
ATOM      4  C   UNL     1      -2.807   3.296 -24.548  0.00  0.00    -0.011 C 
ATOM      5  C   UNL     1      -3.479   3.459 -25.131  0.00  0.00    +0.096 C 
ATOM      6  C   UNL     1      -4.160   3.376 -24.393  0.00  0.00    +0.094 C 
ATOM      7  C   UNL     1      -3.245   3.065 -23.132  0.00  0.00    -0.034 A 
ATOM      8  C   UNL     1      -3.350   2.769 -21.507  0.00  0.00    +0.008 A 
ATOM      9  C   UNL     1      -2.260   2.553 -20.825  0.00  0.00    +0.050 A 
ATOM     10  C   UNL     1      -1.079   2.569 -21.419  0.00  0.00    +0.162 A 
ATOM     11  C   UNL     1      -0.965   2.802 -22.711  0.00  0.00    +0.174 A 
ATOM     12  C   UNL     1      -2.080   3.040 -23.497  0.00  0.00    +0.013 A 
ATOM     13  N   UNL     1      -3.049   3.653 -26.351  0.00  0.00    +0.239 N 
ATOM     14  H   UNL     1      -4.065   3.744 -26.398  0.00  0.00    +0.204 HD
ATOM     15  C   UNL     1      -3.741   3.899 -27.362  0.00  0.00    +0.191 C 
ATOM     16  C   UNL     1      -1.707   3.575 -26.512  0.00  0.00    +0.133 C 
ATOM     17  C   UNL     1      -1.014   3.314 -25.419  0.00  0.00    +0.067 C 
ATOM     18  C   UNL     1      -1.716   3.176 -24.378  0.00  0.00    +0.038 C 
ATOM     19  C   UNL     1      -1.701   2.897 -22.901  0.00  0.00    +0.090 C 
ENDROOT
BRANCH   1  21
ATOM     20  C   UNL     1      -6.263   3.023 -21.957  0.00  0.00    +0.276 C 
ATOM     21  O   UNL     1      -5.094   3.026 -22.126  0.00  0.00    -0.499 OA
ENDBRANCH   1  21
BRANCH  10  22
ATOM     22  O   UNL     1       0.094   2.355 -20.778  0.00  0.00    -0.491 OA
ATOM     23  C   UNL     1       0.571   1.196 -20.535  0.00  0.00    +0.277 C 
ENDBRANCH  10  22
BRANCH  11  24
ATOM     24  O   UNL     1       0.109   2.822 -23.274  0.00  0.00    -0.452 OA
BRANCH  24  25
ATOM     25  C   UNL     1       1.113   2.703 -23.584  0.00  0.00    +0.129 A 
ATOM     26  C   UNL     1       1.527   3.864 -23.223  0.00  0.00    +0.046 A 
ATOM     27  C   UNL     1       2.752   4.197 -23.408  0.00  0.00    +0.004 A 
ATOM     28  C   UNL     1       3.567   3.367 -23.956  0.00  0.00    +0.000 A 
ATOM     29  C   UNL     1       3.159   2.204 -24.320  0.00  0.00    +0.004 A 
ATOM     30  C   UNL     1       1.930   1.874 -24.133  0.00  0.00    +0.046 A 
ENDBRANCH  24  25
ENDBRANCH  11  24
TORSDOF 4
ENDMDL
MODEL 2
REMARK VINA RESULT:    -8.762      1.923      3.633
REMARK INTER + INTRA:          -7.605
REMARK INTER:                 -10.666
REMARK INTRA:                   3.061
REMARK UNBOUND:                 2.694
REMARK  Name = COC1=CC=C2[C@H]3Cc4ccc(OC)c(Oc5ccccc5)c4[C@@]2(CCN3C)C1              ZINC000253505528
REMARK  7 active torsions:
REMARK  status: ('A' for Active; 'I' for Inactive)
REMARK    1  A    between atoms: C_1  and  O_2
REMARK    2  A    between atoms: O_2  and  C_3
REMARK    3  A    between atoms: C_12  and  O_13
REMARK    4  A    between atoms: O_13  and  C_14
REMARK    5  A    between atoms: C_15  and  O_16
REMARK    6  A    between atoms: O_16  and  C_17
REMARK    7  A    between atoms: N_27  and  C_28
REMARK                            x       y       z     vdW  Elec       q    Type
REMARK                         _______ _______ _______ _____ _____    ______ ____
ROOT
ATOM      1  C   UNL     1      -1.418   3.450 -24.911  0.00  0.00    +0.098 C 
ATOM      2  C   UNL     1      -2.524   3.674 -24.786  0.00  0.00    +0.041 C 
ATOM      3  C   UNL     1      -2.975   3.420 -23.905  0.00  0.00    +0.009 C 
ATOM      4  C   UNL     1      -2.207   2.737 -22.720  0.00  0.00    -0.011 C 
ATOM      5  C   UNL     1      -3.039   2.800 -22.372  0.00  0.00    +0.096 C 
ATOM      6  C   UNL     1      -3.376   3.234 -23.217  0.00  0.00    +0.094 C 
ATOM      7  C   UNL     1      -2.064   3.279 -24.111  0.00  0.00    -0.034 A 
ATOM      8  C   UNL     1      -1.540   3.768 -25.604  0.00  0.00    +0.008 A 
ATOM      9  C   UNL     1      -0.290   3.593 -25.931  0.00  0.00    +0.050 A 
ATOM     10  C   UNL     1       0.556   3.031 -25.084  0.00  0.00    +0.162 A 
ATOM     11  C   UNL     1       0.167   2.633 -23.890  0.00  0.00    +0.174 A 
ATOM     12  C   UNL     1      -1.146   2.787 -23.475  0.00  0.00    +0.013 A 
ATOM     13  N   UNL     1      -3.115   2.315 -21.160  0.00  0.00    +0.239 N 
ATOM     14  H   UNL     1      -4.055   2.642 -21.386  0.00  0.00    +0.204 HD
ATOM     15  C   UNL     1      -4.129   2.265 -20.432  0.00  0.00    +0.191 C 
ATOM     16  C   UNL     1      -1.957   1.820 -20.661  0.00  0.00    +0.133 C 
ATOM     17  C   UNL     1      -0.911   1.893 -21.463  0.00  0.00    +0.067 C 
ATOM     18  C   UNL     1      -1.152   2.419 -22.586  0.00  0.00    +0.038 C 
ATOM     19  C   UNL     1      -0.574   2.826 -23.913  0.00  0.00    +0.090 C 
ENDROOT
BRANCH   1  21
ATOM     20  C   UNL     1      -4.376   4.528 -25.997  0.00  0.00    +0.276 C 
ATOM     21  O   UNL     1      -3.359   4.180 -25.506  0.00  0.00    -0.499 OA
ENDBRANCH   1  21
BRANCH  10  22
ATOM     22  O   UNL     1       1.866   2.817 -25.351  0.00  0.00    -0.491 OA
ATOM     23  C   UNL     1       2.312   1.774 -25.937  0.00  0.00    +0.277 C 
ENDBRANCH  10  22
BRANCH  11  24
ATOM     24  O   UNL     1       0.927   2.115 -23.098  0.00  0.00    -0.452 OA
BRANCH  24  25
ATOM     25  C   UNL     1       1.730   1.643 -22.598  0.00  0.00    +0.129 A 
ATOM     26  C   UNL     1       2.405   2.706 -22.347  0.00  0.00    +0.046 A 
ATOM     27  C   UNL     1       3.521   2.627 -21.718  0.00  0.00    +0.004 A 
ATOM     28  C   UNL     1       3.964   1.481 -21.339  0.00  0.00    +0.000 A 
ATOM     29  C   UNL     1       3.292   0.414 -21.587  0.00  0.00    +0.004 A 
ATOM     30  C   UNL     1       2.175   0.497 -22.217  0.00  0.00    +0.046 A 
ENDBRANCH  24  25
ENDBRANCH  11  24
TORSDOF 4
ENDMDL
MODEL 3
REMARK VINA RESULT:    -8.285      1.712      2.607
REMARK INTER + INTRA:          -7.045
REMARK INTER:                 -10.273
REMARK INTRA:                   3.229
REMARK UNBOUND:                 2.694
REMARK  Name = COC1=CC=C2[C@H]3Cc4ccc(OC)c(Oc5ccccc5)c4[C@@]2(CCN3C)C1              ZINC000253505528
REMARK  7 active torsions:
REMARK  status: ('A' for Active; 'I' for Inactive)
REMARK    1  A    between atoms: C_1  and  O_2
REMARK    2  A    between atoms: O_2  and  C_3
REMARK    3  A    between atoms: C_12  and  O_13
REMARK    4  A    between atoms: O_13  and  C_14
REMARK    5  A    between atoms: C_15  and  O_16
REMARK    6  A    between atoms: O_16  and  C_17
REMARK    7  A    between atoms: N_27  and  C_28
REMARK                            x       y       z     vdW  Elec       q    Type
REMARK                         _______ _______ _______ _____ _____    ______ ____
ROOT
ATOM      1  C   UNL     1      -0.331   1.995 -21.555  0.00  0.00    +0.098 C 
ATOM      2  C   UNL     1      -1.413   2.116 -21.878  0.00  0.00    +0.041 C 
ATOM      3  C   UNL     1      -1.604   2.459 -22.820  0.00  0.00    +0.009 C 
ATOM      4  C   UNL     1      -0.469   2.826 -23.840  0.00  0.00    -0.011 C 
ATOM      5  C   UNL     1      -1.206   3.007 -24.331  0.00  0.00    +0.096 C 
ATOM      6  C   UNL     1      -1.802   2.731 -23.566  0.00  0.00    +0.094 C 
ATOM      7  C   UNL     1      -0.744   2.323 -22.454  0.00  0.00    -0.034 A 
ATOM      8  C   UNL     1      -0.663   1.758 -20.900  0.00  0.00    +0.008 A 
ATOM      9  C   UNL     1       0.503   1.555 -20.353  0.00  0.00    +0.050 A 
ATOM     10  C   UNL     1       1.615   1.797 -21.028  0.00  0.00    +0.162 A 
ATOM     11  C   UNL     1       1.581   2.247 -22.266  0.00  0.00    +0.174 A 
ATOM     12  C   UNL     1       0.377   2.485 -22.909  0.00  0.00    +0.013 A 
ATOM     13  N   UNL     1      -0.917   3.442 -25.530  0.00  0.00    +0.239 N 
ATOM     14  H   UNL     1      -1.936   3.428 -25.480  0.00  0.00    +0.204 HD
ATOM     15  C   UNL     1      -1.724   3.771 -26.425  0.00  0.00    +0.191 C 
ATOM     16  C   UNL     1       0.405   3.539 -25.807  0.00  0.00    +0.133 C 
ATOM     17  C   UNL     1       1.222   3.182 -24.834  0.00  0.00    +0.067 C 
ATOM     18  C   UNL     1       0.640   2.801 -23.780  0.00  0.00    +0.038 C 
ATOM     19  C   UNL     1       0.824   2.290 -22.378  0.00  0.00    +0.090 C 
ENDROOT
BRANCH   1  21
ATOM     20  C   UNL     1      -3.622   1.713 -21.131  0.00  0.00    +0.276 C 
ATOM     21  O   UNL     1      -2.475   1.918 -21.325  0.00  0.00    -0.499 OA
ENDBRANCH   1  21
BRANCH  10  22
ATOM     22  O   UNL     1       2.860   1.611 -20.529  0.00  0.00    -0.491 OA
ATOM     23  C   UNL     1       3.482   0.498 -20.565  0.00  0.00    +0.277 C 
ENDBRANCH  10  22
BRANCH  11  24
ATOM     24  O   UNL     1       2.589   2.475 -22.902  0.00  0.00    -0.452 OA
BRANCH  24  25
ATOM     25  C   UNL     1       3.566   2.691 -23.242  0.00  0.00    +0.129 A 
ATOM     26  C   UNL     1       3.608   3.908 -22.835  0.00  0.00    +0.046 A 
ATOM     27  C   UNL     1       4.659   4.618 -23.034  0.00  0.00    +0.004 A 
ATOM     28  C   UNL     1       5.671   4.109 -23.642  0.00  0.00    +0.000 A 
ATOM     29  C   UNL     1       5.634   2.891 -24.053  0.00  0.00    +0.004 A 
ATOM     30  C   UNL     1       4.580   2.184 -23.851  0.00  0.00    +0.046 A 
ENDBRANCH  24  25
ENDBRANCH  11  24
TORSDOF 4
ENDMDL
MODEL 4
REMARK VINA RESULT:    -7.534      1.693      5.022
REMARK INTER + INTRA:          -6.162
REMARK INTER:                  -8.977
REMARK INTRA:                   2.815
REMARK UNBOUND:                 2.694
REMARK  Name = COC1=CC=C2[C@H]3Cc4ccc(OC)c(Oc5ccccc5)c4[C@@]2(CCN3C)C1              ZINC000253505528
REMARK  7 active torsions:
REMARK  status: ('A' for Active; 'I' for Inactive)
REMARK    1  A    between atoms: C_1  and  O_2
REMARK    2  A    between atoms: O_2  and  C_3
REMARK    3  A    between atoms: C_12  and  O_13
REMARK    4  A    between atoms: O_13  and  C_14
REMARK    5  A    between atoms: C_15  and  O_16
REMARK    6  A    between atoms: O_16  and  C_17
REMARK    7  A    between atoms: N_27  and  C_28
REMARK                            x       y       z     vdW  Elec       q    Type
REMARK                         _______ _______ _______ _____ _____    ______ ____
ROOT
ATOM      1  C   UNL     1      -0.305   1.808 -21.429  0.00  0.00    +0.098 C 
ATOM      2  C   UNL     1       0.792   1.629 -21.198  0.00  0.00    +0.041 C 
ATOM      3  C   UNL     1       1.483   1.848 -21.918  0.00  0.00    +0.009 C 
ATOM      4  C   UNL     1       1.093   2.422 -23.325  0.00  0.00    -0.011 C 
ATOM      5  C   UNL     1       1.993   2.377 -23.401  0.00  0.00    +0.096 C 
ATOM      6  C   UNL     1       2.069   2.011 -22.465  0.00  0.00    +0.094 C 
ATOM      7  C   UNL     1       0.549   1.960 -22.006  0.00  0.00    -0.034 A 
ATOM      8  C   UNL     1      -0.391   1.538 -20.710  0.00  0.00    +0.008 A 
ATOM      9  C   UNL     1      -1.686   1.675 -20.788  0.00  0.00    +0.050 A 
ATOM     10  C   UNL     1      -2.248   2.145 -21.889  0.00  0.00    +0.162 A 
ATOM     11  C   UNL     1      -1.525   2.488 -22.935  0.00  0.00    +0.174 A 
ATOM     12  C   UNL     1      -0.145   2.370 -22.923  0.00  0.00    +0.013 A 
ATOM     13  N   UNL     1       2.421   2.790 -24.566  0.00  0.00    +0.239 N 
ATOM     14  H   UNL     1       3.256   2.521 -24.045  0.00  0.00    +0.204 HD
ATOM     15  C   UNL     1       3.606   2.842 -24.956  0.00  0.00    +0.191 C 
ATOM     16  C   UNL     1       1.457   3.200 -25.424  0.00  0.00    +0.133 C 
ATOM     17  C   UNL     1       0.219   3.128 -24.972  0.00  0.00    +0.067 C 
ATOM     18  C   UNL     1       0.121   2.683 -23.793  0.00  0.00    +0.038 C 
ATOM     19  C   UNL     1      -0.822   2.331 -22.676  0.00  0.00    +0.090 C 
ENDROOT
BRANCH   1  21
ATOM     20  C   UNL     1       2.243   0.991 -19.446  0.00  0.00    +0.276 C 
ATOM     21  O   UNL     1       1.382   1.205 -20.225  0.00  0.00    -0.499 OA
ENDBRANCH   1  21
BRANCH  10  22
ATOM     22  O   UNL     1      -3.583   2.315 -22.044  0.00  0.00    -0.491 OA
ATOM     23  C   UNL     1      -4.377   2.617 -21.092  0.00  0.00    +0.277 C 
ENDBRANCH  10  22
BRANCH  11  24
ATOM     24  O   UNL     1      -2.022   2.922 -23.954  0.00  0.00    -0.452 OA
BRANCH  24  25
ATOM     25  C   UNL     1      -2.636   3.158 -24.782  0.00  0.00    +0.129 A 
ATOM     26  C   UNL     1      -3.060   4.288 -24.345  0.00  0.00    +0.046 A 
ATOM     27  C   UNL     1      -3.877   4.985 -25.048  0.00  0.00    +0.004 A 
ATOM     28  C   UNL     1      -4.270   4.550 -26.193  0.00  0.00    +0.000 A 
ATOM     29  C   UNL     1      -3.849   3.420 -26.635  0.00  0.00    +0.004 A 
ATOM     30  C   UNL     1      -3.031   2.725 -25.928  0.00  0.00    +0.046 A 
ENDBRANCH  24  25
ENDBRANCH  11  24
TORSDOF 4
ENDMDL
MODEL 5
REMARK VINA RESULT:    -7.517      2.934      6.671
REMARK INTER + INTRA:          -6.142
REMARK INTER:                  -9.200
REMARK INTRA:                   3.058
REMARK UNBOUND:                 2.694
REMARK  Name = COC1=CC=C2[C@H]3Cc4ccc(OC)c(Oc5ccccc5)c4[C@@]2(CCN3C)C1              ZINC000253505528
REMARK  7 active torsions:
REMARK  status: ('A' for Active; 'I' for Inactive)
REMARK    1  A    between atoms: C_1  and  O_2
REMARK    2  A    between atoms: O_2  and  C_3
REMARK    3  A    between atoms: C_12  and  O_13
REMARK    4  A    between atoms: O_13  and  C_14
REMARK    5  A    between atoms: C_15  and  O_16
REMARK    6  A    between atoms: O_16  and  C_17
REMARK    7  A    between atoms: N_27  and  C_28
REMARK                            x       y       z     vdW  Elec       q    Type
REMARK                         _______ _______ _______ _____ _____    ______ ____
ROOT
ATOM      1  C   UNL     1       3.176   1.133 -21.877  0.00  0.00    +0.098 C 
ATOM      2  C   UNL     1       4.294   1.178 -21.684  0.00  0.00    +0.041 C 
ATOM      3  C   UNL     1       4.785   2.053 -21.869  0.00  0.00    +0.009 C 
ATOM      4  C   UNL     1       4.062   3.337 -22.409  0.00  0.00    -0.011 C 
ATOM      5  C   UNL     1       4.915   3.634 -22.345  0.00  0.00    +0.096 C 
ATOM      6  C   UNL     1       5.218   2.735 -22.004  0.00  0.00    +0.094 C 
ATOM      7  C   UNL     1       3.860   1.910 -21.996  0.00  0.00    -0.034 A 
ATOM      8  C   UNL     1       3.269   0.407 -21.631  0.00  0.00    +0.008 A 
ATOM      9  C   UNL     1       1.998   0.164 -21.790  0.00  0.00    +0.050 A 
ATOM     10  C   UNL     1       1.183   1.105 -22.238  0.00  0.00    +0.162 A 
ATOM     11  C   UNL     1       1.625   2.309 -22.537  0.00  0.00    +0.174 A 
ATOM     12  C   UNL     1       2.964   2.637 -22.392  0.00  0.00    +0.013 A 
ATOM     13  N   UNL     1       5.042   4.881 -22.715  0.00  0.00    +0.239 N 
ATOM     14  H   UNL     1       5.978   4.576 -22.445  0.00  0.00    +0.204 HD
ATOM     15  C   UNL     1       6.093   5.556 -22.734  0.00  0.00    +0.191 C 
ATOM     16  C   UNL     1       3.899   5.485 -23.118  0.00  0.00    +0.133 C 
ATOM     17  C   UNL     1       2.813   4.736 -23.083  0.00  0.00    +0.067 C 
ATOM     18  C   UNL     1       3.007   3.557 -22.675  0.00  0.00    +0.038 C 
ATOM     19  C   UNL     1       2.370   2.229 -22.373  0.00  0.00    +0.090 C 
ENDROOT
BRANCH   1  21
ATOM     20  C   UNL     1       6.066  -0.168 -20.853  0.00  0.00    +0.276 C 
ATOM     21  O   UNL     1       5.103   0.369 -21.278  0.00  0.00    -0.499 OA
ENDBRANCH   1  21
BRANCH  10  22
ATOM     22  O   UNL     1      -0.146   0.927 -22.429  0.00  0.00    -0.491 OA
ATOM     23  C   UNL     1      -1.018   1.035 -21.504  0.00  0.00    +0.277 C 
ENDBRANCH  10  22
BRANCH  11  24
ATOM     24  O   UNL     1       0.895   3.185 -22.950  0.00  0.00    -0.452 OA
BRANCH  24  25
ATOM     25  C   UNL     1       0.086   3.799 -23.245  0.00  0.00    +0.129 A 
ATOM     26  C   UNL     1      -0.157   3.213 -24.360  0.00  0.00    +0.046 A 
ATOM     27  C   UNL     1      -1.109   3.632 -25.114  0.00  0.00    +0.004 A 
ATOM     28  C   UNL     1      -1.819   4.640 -24.750  0.00  0.00    +0.000 A 
ATOM     29  C   UNL     1      -1.580   5.231 -23.634  0.00  0.00    +0.004 A 
ATOM     30  C   UNL     1      -0.626   4.809 -22.882  0.00  0.00    +0.046 A 
ENDBRANCH  24  25
ENDBRANCH  11  24
TORSDOF 4
ENDMDL
MODEL 6
REMARK VINA RESULT:    -7.313      2.274      6.450
REMARK INTER + INTRA:          -5.902
REMARK INTER:                  -9.416
REMARK INTRA:                   3.514
REMARK UNBOUND:                 2.694
REMARK  Name = COC1=CC=C2[C@H]3Cc4ccc(OC)c(Oc5ccccc5)c4[C@@]2(CCN3C)C1              ZINC000253505528
REMARK  7 active torsions:
REMARK  status: ('A' for Active; 'I' for Inactive)
REMARK    1  A    between atoms: C_1  and  O_2
REMARK    2  A    between atoms: O_2  and  C_3
REMARK    3  A    between atoms: C_12  and  O_13
REMARK    4  A    between atoms: O_13  and  C_14
REMARK    5  A    between atoms: C_15  and  O_16
REMARK    6  A    between atoms: O_16  and  C_17
REMARK    7  A    between atoms: N_27  and  C_28
REMARK                            x       y       z     vdW  Elec       q    Type
REMARK                         _______ _______ _______ _____ _____    ______ ____
ROOT
ATOM      1  C   UNL     1       1.941   3.464 -23.874  0.00  0.00    +0.098 C 
ATOM      2  C   UNL     1       2.999   3.169 -23.586  0.00  0.00    +0.041 C 
ATOM      3  C   UNL     1       3.135   2.608 -22.744  0.00  0.00    +0.009 C 
ATOM      4  C   UNL     1       1.948   2.138 -21.832  0.00  0.00    -0.011 C 
ATOM      5  C   UNL     1       2.654   1.781 -21.394  0.00  0.00    +0.096 C 
ATOM      6  C   UNL     1       3.290   2.160 -22.078  0.00  0.00    +0.094 C 
ATOM      7  C   UNL     1       2.300   2.906 -23.071  0.00  0.00    -0.034 A 
ATOM      8  C   UNL     1       2.308   3.807 -24.460  0.00  0.00    +0.008 A 
ATOM      9  C   UNL     1       1.179   4.240 -24.948  0.00  0.00    +0.050 A 
ATOM     10  C   UNL     1       0.035   3.965 -24.344  0.00  0.00    +0.162 A 
ATOM     11  C   UNL     1      -0.001   3.251 -23.238  0.00  0.00    +0.174 A 
ATOM     12  C   UNL     1       1.159   2.759 -22.664  0.00  0.00    +0.013 A 
ATOM     13  N   UNL     1       2.298   1.122 -20.322  0.00  0.00    +0.239 N 
ATOM     14  H   UNL     1       3.314   1.047 -20.367  0.00  0.00    +0.204 HD
ATOM     15  C   UNL     1       3.049   0.525 -19.522  0.00  0.00    +0.191 C 
ATOM     16  C   UNL     1       0.967   1.096 -20.073  0.00  0.00    +0.133 C 
ATOM     17  C   UNL     1       0.209   1.739 -20.943  0.00  0.00    +0.067 C 
ATOM     18  C   UNL     1       0.849   2.285 -21.885  0.00  0.00    +0.038 C 
ATOM     19  C   UNL     1       0.745   3.109 -23.138  0.00  0.00    +0.090 C 
ENDROOT
BRANCH   1  21
ATOM     20  C   UNL     1       5.267   3.415 -24.037  0.00  0.00    +0.276 C 
ATOM     21  O   UNL     1       4.087   3.379 -24.081  0.00  0.00    -0.499 OA
ENDBRANCH   1  21
BRANCH  10  22
ATOM     22  O   UNL     1      -1.175   4.378 -24.790  0.00  0.00    -0.491 OA
ATOM     23  C   UNL     1      -1.840   3.782 -25.701  0.00  0.00    +0.277 C 
ENDBRANCH  10  22
BRANCH  11  24
ATOM     24  O   UNL     1      -1.040   2.988 -22.669  0.00  0.00    -0.452 OA
BRANCH  24  25
ATOM     25  C   UNL     1      -2.028   2.944 -22.294  0.00  0.00    +0.129 A 
ATOM     26  C   UNL     1      -1.937   3.943 -21.494  0.00  0.00    +0.046 A 
ATOM     27  C   UNL     1      -2.946   4.292 -20.781  0.00  0.00    +0.004 A 
ATOM     28  C   UNL     1      -4.050   3.638 -20.869  0.00  0.00    +0.000 A 
ATOM     29  C   UNL     1      -4.147   2.637 -21.669  0.00  0.00    +0.004 A 
ATOM     30  C   UNL     1      -3.134   2.291 -22.382  0.00  0.00    +0.046 A 
ENDBRANCH  24  25
ENDBRANCH  11  24
TORSDOF 4
ENDMDL
MODEL 7
REMARK VINA RESULT:    -7.279      3.621      8.004
REMARK INTER + INTRA:          -5.862
REMARK INTER:                  -8.711
REMARK INTRA:                   2.849
REMARK UNBOUND:                 2.694
REMARK  Name = COC1=CC=C2[C@H]3Cc4ccc(OC)c(Oc5ccccc5)c4[C@@]2(CCN3C)C1              ZINC000253505528
REMARK  7 active torsions:
REMARK  status: ('A' for Active; 'I' for Inactive)
REMARK    1  A    between atoms: C_1  and  O_2
REMARK    2  A    between atoms: O_2  and  C_3
REMARK    3  A    between atoms: C_12  and  O_13
REMARK    4  A    between atoms: O_13  and  C_14
REMARK    5  A    between atoms: C_15  and  O_16
REMARK    6  A    between atoms: O_16  and  C_17
REMARK    7  A    between atoms: N_27  and  C_28
REMARK                            x       y       z     vdW  Elec       q    Type
REMARK                         _______ _______ _______ _____ _____    ______ ____
ROOT
ATOM      1  C   UNL     1       5.957   3.646 -22.889  0.00  0.00    +0.098 C 
ATOM      2  C   UNL     1       6.738   4.397 -22.550  0.00  0.00    +0.041 C 
ATOM      3  C   UNL     1       6.441   5.355 -22.358  0.00  0.00    +0.009 C 
ATOM      4  C   UNL     1       4.954   5.833 -22.512  0.00  0.00    -0.011 C 
ATOM      5  C   UNL     1       5.354   6.598 -22.240  0.00  0.00    +0.096 C 
ATOM      6  C   UNL     1       6.247   6.133 -22.194  0.00  0.00    +0.094 C 
ATOM      7  C   UNL     1       5.874   4.655 -22.644  0.00  0.00    -0.034 A 
ATOM      8  C   UNL     1       6.567   3.173 -22.897  0.00  0.00    +0.008 A 
ATOM      9  C   UNL     1       5.823   2.179 -23.292  0.00  0.00    +0.050 A 
ATOM     10  C   UNL     1       4.526   2.345 -23.490  0.00  0.00    +0.162 A 
ATOM     11  C   UNL     1       3.947   3.513 -23.297  0.00  0.00    +0.174 A 
ATOM     12  C   UNL     1       4.677   4.613 -22.878  0.00  0.00    +0.013 A 
ATOM     13  N   UNL     1       4.514   7.595 -22.140  0.00  0.00    +0.239 N 
ATOM     14  H   UNL     1       5.424   7.972 -21.873  0.00  0.00    +0.204 HD
ATOM     15  C   UNL     1       4.775   8.765 -21.790  0.00  0.00    +0.191 C 
ATOM     16  C   UNL     1       3.229   7.303 -22.454  0.00  0.00    +0.133 C 
ATOM     17  C   UNL     1       2.997   6.056 -22.818  0.00  0.00    +0.067 C 
ATOM     18  C   UNL     1       4.021   5.316 -22.819  0.00  0.00    +0.038 C 
ATOM     19  C   UNL     1       4.550   3.932 -23.077  0.00  0.00    +0.090 C 
ENDROOT
BRANCH   1  21
ATOM     20  C   UNL     1       9.062   4.641 -22.213  0.00  0.00    +0.276 C 
ATOM     21  O   UNL     1       7.932   4.324 -22.347  0.00  0.00    -0.499 OA
ENDBRANCH   1  21
BRANCH  10  22
ATOM     22  O   UNL     1       3.690   1.361 -23.899  0.00  0.00    -0.491 OA
ATOM     23  C   UNL     1       3.237   0.448 -23.133  0.00  0.00    +0.277 C 
ENDBRANCH  10  22
BRANCH  11  24
ATOM     24  O   UNL     1       2.759   3.686 -23.473  0.00  0.00    -0.452 OA
BRANCH  24  25
ATOM     25  C   UNL     1       1.708   3.612 -23.557  0.00  0.00    +0.129 A 
ATOM     26  C   UNL     1       1.631   3.887 -24.809  0.00  0.00    +0.046 A 
ATOM     27  C   UNL     1       0.488   3.918 -25.392  0.00  0.00    +0.004 A 
ATOM     28  C   UNL     1      -0.582   3.671 -24.721  0.00  0.00    +0.000 A 
ATOM     29  C   UNL     1      -0.510   3.395 -23.468  0.00  0.00    +0.004 A 
ATOM     30  C   UNL     1       0.637   3.366 -22.888  0.00  0.00    +0.046 A 
ENDBRANCH  24  25
ENDBRANCH  11  24
TORSDOF 4
ENDMDL
MODEL 8
REMARK VINA RESULT:    -6.757      3.289      6.067
REMARK INTER + INTRA:          -5.248
REMARK INTER:                  -7.908
REMARK INTRA:                   2.660
REMARK UNBOUND:                 2.694
REMARK  Name = COC1=CC=C2[C@H]3Cc4ccc(OC)c(Oc5ccccc5)c4[C@@]2(CCN3C)C1              ZINC000253505528
REMARK  7 active torsions:
REMARK  status: ('A' for Active; 'I' for Inactive)
REMARK    1  A    between atoms: C_1  and  O_2
REMARK    2  A    between atoms: O_2  and  C_3
REMARK    3  A    between atoms: C_12  and  O_13
REMARK    4  A    between atoms: O_13  and  C_14
REMARK    5  A    between atoms: C_15  and  O_16
REMARK    6  A    between atoms: O_16  and  C_17
REMARK    7  A    between atoms: N_27  and  C_28
REMARK                            x       y       z     vdW  Elec       q    Type
REMARK                         _______ _______ _______ _____ _____    ______ ____
ROOT
ATOM      1  C   UNL     1       2.013   4.985 -23.474  0.00  0.00    +0.098 C 
ATOM      2  C   UNL     1       1.241   4.317 -23.970  0.00  0.00    +0.041 C 
ATOM      3  C   UNL     1       1.521   3.378 -24.256  0.00  0.00    +0.009 C 
ATOM      4  C   UNL     1       2.971   2.819 -24.040  0.00  0.00    -0.011 C 
ATOM      5  C   UNL     1       2.571   2.112 -24.439  0.00  0.00    +0.096 C 
ATOM      6  C   UNL     1       1.702   2.619 -24.501  0.00  0.00    +0.094 C 
ATOM      7  C   UNL     1       2.083   4.011 -23.837  0.00  0.00    -0.034 A 
ATOM      8  C   UNL     1       1.421   5.480 -23.457  0.00  0.00    +0.008 A 
ATOM      9  C   UNL     1       2.160   6.384 -22.878  0.00  0.00    +0.050 A 
ATOM     10  C   UNL     1       3.428   6.136 -22.594  0.00  0.00    +0.162 A 
ATOM     11  C   UNL     1       3.982   4.977 -22.884  0.00  0.00    +0.174 A 
ATOM     12  C   UNL     1       3.256   3.970 -23.500  0.00  0.00    +0.013 A 
ATOM     13  N   UNL     1       3.383   1.098 -24.594  0.00  0.00    +0.239 N 
ATOM     14  H   UNL     1       2.488   0.798 -24.982  0.00  0.00    +0.204 HD
ATOM     15  C   UNL     1       3.115  -0.007 -25.110  0.00  0.00    +0.191 C 
ATOM     16  C   UNL     1       4.643   1.291 -24.138  0.00  0.00    +0.133 C 
ATOM     17  C   UNL     1       4.884   2.472 -23.600  0.00  0.00    +0.067 C 
ATOM     18  C   UNL     1       3.890   3.252 -23.592  0.00  0.00    +0.038 C 
ATOM     19  C   UNL     1       3.388   4.615 -23.206  0.00  0.00    +0.090 C 
ENDROOT
BRANCH   1  21
ATOM     20  C   UNL     1      -1.056   4.276 -24.554  0.00  0.00    +0.276 C 
ATOM     21  O   UNL     1       0.072   4.469 -24.263  0.00  0.00    -0.499 OA
ENDBRANCH   1  21
BRANCH  10  22
ATOM     22  O   UNL     1       4.257   7.023 -21.994  0.00  0.00    -0.491 OA
ATOM     23  C   UNL     1       4.145   8.290 -22.105  0.00  0.00    +0.277 C 
ENDBRANCH  10  22
BRANCH  11  24
ATOM     24  O   UNL     1       5.142   4.730 -22.632  0.00  0.00    -0.452 OA
BRANCH  24  25
ATOM     25  C   UNL     1       6.141   4.714 -22.285  0.00  0.00    +0.129 A 
ATOM     26  C   UNL     1       6.674   5.262 -23.316  0.00  0.00    +0.046 A 
ATOM     27  C   UNL     1       7.941   5.462 -23.357  0.00  0.00    +0.004 A 
ATOM     28  C   UNL     1       8.678   5.112 -22.362  0.00  0.00    +0.000 A 
ATOM     29  C   UNL     1       8.150   4.563 -21.327  0.00  0.00    +0.004 A 
ATOM     30  C   UNL     1       6.880   4.364 -21.291  0.00  0.00    +0.046 A 
ENDBRANCH  24  25
ENDBRANCH  11  24
TORSDOF 4
ENDMDL
MODEL 9
REMARK VINA RESULT:    -6.703      5.564      9.176
REMARK INTER + INTRA:          -5.185
REMARK INTER:                  -7.879
REMARK INTRA:                   2.694
REMARK UNBOUND:                 2.694
REMARK  Name = COC1=CC=C2[C@H]3Cc4ccc(OC)c(Oc5ccccc5)c4[C@@]2(CCN3C)C1              ZINC000253505528
REMARK  7 active torsions:
REMARK  status: ('A' for Active; 'I' for Inactive)
REMARK    1  A    between atoms: C_1  and  O_2
REMARK    2  A    between atoms: O_2  and  C_3
REMARK    3  A    between atoms: C_12  and  O_13
REMARK    4  A    between atoms: O_13  and  C_14
REMARK    5  A    between atoms: C_15  and  O_16
REMARK    6  A    between atoms: O_16  and  C_17
REMARK    7  A    between atoms: N_27  and  C_28
REMARK                            x       y       z     vdW  Elec       q    Type
REMARK                         _______ _______ _______ _____ _____    ______ ____
ROOT
ATOM      1  C   UNL     1       7.250   5.116 -22.559  0.00  0.00    +0.098 C 
ATOM      2  C   UNL     1       7.056   4.102 -23.031  0.00  0.00    +0.041 C 
ATOM      3  C   UNL     1       6.097   3.856 -23.279  0.00  0.00    +0.009 C 
ATOM      4  C   UNL     1       4.881   4.817 -23.036  0.00  0.00    -0.011 C 
ATOM      5  C   UNL     1       4.465   4.105 -23.408  0.00  0.00    +0.096 C 
ATOM      6  C   UNL     1       5.343   3.618 -23.493  0.00  0.00    +0.094 C 
ATOM      7  C   UNL     1       6.365   4.670 -22.883  0.00  0.00    -0.034 A 
ATOM      8  C   UNL     1       7.979   4.862 -22.564  0.00  0.00    +0.008 A 
ATOM      9  C   UNL     1       8.395   5.970 -22.018  0.00  0.00    +0.050 A 
ATOM     10  C   UNL     1       7.542   6.936 -21.719  0.00  0.00    +0.162 A 
ATOM     11  C   UNL     1       6.253   6.811 -21.962  0.00  0.00    +0.174 A 
ATOM     12  C   UNL     1       5.741   5.661 -22.540  0.00  0.00    +0.013 A 
ATOM     13  N   UNL     1       3.174   4.279 -23.521  0.00  0.00    +0.239 N 
ATOM     14  H   UNL     1       3.362   3.350 -23.900  0.00  0.00    +0.204 HD
ATOM     15  C   UNL     1       2.345   3.473 -23.994  0.00  0.00    +0.191 C 
ATOM     16  C   UNL     1       2.708   5.467 -23.068  0.00  0.00    +0.133 C 
ATOM     17  C   UNL     1       3.617   6.288 -22.576  0.00  0.00    +0.067 C 
ATOM     18  C   UNL     1       4.796   5.835 -22.602  0.00  0.00    +0.038 C 
ATOM     19  C   UNL     1       6.237   6.110 -22.271  0.00  0.00    +0.090 C 
ENDROOT
BRANCH   1  21
ATOM     20  C   UNL     1       8.202   2.190 -23.832  0.00  0.00    +0.276 C 
ATOM     21  O   UNL     1       7.775   3.172 -23.334  0.00  0.00    -0.499 OA
ENDBRANCH   1  21
BRANCH  10  22
ATOM     22  O   UNL     1       7.899   8.113 -21.152  0.00  0.00    -0.491 OA
ATOM     23  C   UNL     1       8.982   8.289 -20.501  0.00  0.00    +0.277 C 
ENDBRANCH  10  22
BRANCH  11  24
ATOM     24  O   UNL     1       5.455   7.685 -21.696  0.00  0.00    -0.452 OA
BRANCH  24  25
ATOM     25  C   UNL     1       4.937   8.533 -21.334  0.00  0.00    +0.129 A 
ATOM     26  C   UNL     1       5.002   9.228 -22.411  0.00  0.00    +0.046 A 
ATOM     27  C   UNL     1       4.479  10.400 -22.454  0.00  0.00    +0.004 A 
ATOM     28  C   UNL     1       3.890  10.878 -21.416  0.00  0.00    +0.000 A 
ATOM     29  C   UNL     1       3.822  10.186 -20.335  0.00  0.00    +0.004 A 
ATOM     30  C   UNL     1       4.347   9.013 -20.296  0.00  0.00    +0.046 A 
ENDBRANCH  24  25
ENDBRANCH  11  24
TORSDOF 4
ENDMDL
