MODEL 1
REMARK VINA RESULT:    -9.370      0.000      0.000
REMARK INTER + INTRA:         -10.629
REMARK INTER:                 -10.504
REMARK INTRA:                  -0.124
REMARK UNBOUND:                 0.111
REMARK  Name = ZINC000018825330
REMARK  4 active torsions:
REMARK  status: ('A' for Active; 'I' for Inactive)
REMARK    1  A    between atoms: C_3  and  C_4
REMARK    2  A    between atoms: C_7  and  O_8
REMARK    3  A    between atoms: C_15  and  O_16
REMARK    4  A    between atoms: C_18  and  O_19
REMARK                            x       y       z     vdW  Elec       q    Type
REMARK                         _______ _______ _______ _____ _____    ______ ____
ROOT
ATOM      1  O   UNL     1      -0.474   4.973 -23.119  0.00  0.00    -0.286 OA
ATOM      2  C   UNL     1      -0.022   3.760 -22.982  0.00  0.00    +0.204 A 
ATOM      3  C   UNL     1      -0.841   2.789 -22.703  0.00  0.00    +0.064 A 
ATOM      4  C   UNL     1      -0.390   1.578 -22.566  0.00  0.00    +0.208 A 
ATOM      5  O   UNL     1       0.881   1.338 -22.707  0.00  0.00    -0.462 OA
ATOM      6  C   UNL     1       1.699   2.309 -22.985  0.00  0.00    +0.145 A 
ATOM      7  C   UNL     1       2.968   2.068 -23.126  0.00  0.00    +0.092 A 
ATOM      8  C   UNL     1       3.787   3.040 -23.404  0.00  0.00    +0.124 A 
ATOM      9  C   UNL     1       3.336   4.251 -23.541  0.00  0.00    +0.091 A 
ATOM     10  C   UNL     1       2.065   4.491 -23.400  0.00  0.00    +0.135 A 
ATOM     11  C   UNL     1       1.247   3.520 -23.122  0.00  0.00    +0.106 A 
ENDROOT
BRANCH   3  12
ATOM     12  C   UNL     1      -2.111   3.030 -22.563  0.00  0.00    -0.011 A 
ATOM     13  C   UNL     1      -2.863   3.182 -23.612  0.00  0.00    +0.012 A 
ATOM     14  C   UNL     1      -4.133   3.423 -23.473  0.00  0.00    +0.046 A 
ATOM     15  C   UNL     1      -4.651   3.513 -22.284  0.00  0.00    +0.117 A 
ATOM     16  C   UNL     1      -3.898   3.361 -21.234  0.00  0.00    +0.046 A 
ATOM     17  C   UNL     1      -2.628   3.120 -21.374  0.00  0.00    +0.012 A 
BRANCH  15  18
ATOM     18  O   UNL     1      -5.920   3.754 -22.144  0.00  0.00    -0.507 OA
ATOM     19  H   UNL     1      -6.496   3.076 -21.852  0.00  0.00    +0.292 HD
ENDBRANCH  15  18
ENDBRANCH   3  12
BRANCH  10  20
ATOM     20  O   UNL     1       1.614   5.703 -23.538  0.00  0.00    -0.506 OA
ATOM     21  H   UNL     1       2.127   6.346 -23.985  0.00  0.00    +0.292 HD
ENDBRANCH  10  20
BRANCH   8  22
ATOM     22  O   UNL     1       5.057   2.799 -23.545  0.00  0.00    -0.507 OA
ATOM     23  H   UNL     1       5.682   3.481 -23.396  0.00  0.00    +0.292 HD
ENDBRANCH   8  22
TORSDOF 4
ENDMDL
MODEL 2
REMARK VINA RESULT:    -9.369      0.731      2.109
REMARK INTER + INTRA:         -10.628
REMARK INTER:                 -10.496
REMARK INTRA:                  -0.132
REMARK UNBOUND:                 0.111
REMARK  Name = ZINC000018825330
REMARK  4 active torsions:
REMARK  status: ('A' for Active; 'I' for Inactive)
REMARK    1  A    between atoms: C_3  and  C_4
REMARK    2  A    between atoms: C_7  and  O_8
REMARK    3  A    between atoms: C_15  and  O_16
REMARK    4  A    between atoms: C_18  and  O_19
REMARK                            x       y       z     vdW  Elec       q    Type
REMARK                         _______ _______ _______ _____ _____    ______ ____
ROOT
ATOM      1  O   UNL     1      -0.686   1.650 -22.384  0.00  0.00    -0.286 OA
ATOM      2  C   UNL     1      -0.195   2.813 -22.699  0.00  0.00    +0.204 A 
ATOM      3  C   UNL     1      -0.979   3.847 -22.789  0.00  0.00    +0.064 A 
ATOM      4  C   UNL     1      -0.488   5.009 -23.104  0.00  0.00    +0.208 A 
ATOM      5  O   UNL     1       0.787   5.136 -23.329  0.00  0.00    -0.462 OA
ATOM      6  C   UNL     1       1.570   4.103 -23.239  0.00  0.00    +0.145 A 
ATOM      7  C   UNL     1       2.843   4.231 -23.463  0.00  0.00    +0.092 A 
ATOM      8  C   UNL     1       3.627   3.197 -23.373  0.00  0.00    +0.124 A 
ATOM      9  C   UNL     1       3.136   2.035 -23.058  0.00  0.00    +0.091 A 
ATOM     10  C   UNL     1       1.862   1.907 -22.833  0.00  0.00    +0.135 A 
ATOM     11  C   UNL     1       1.079   2.941 -22.924  0.00  0.00    +0.106 A 
ENDROOT
BRANCH   3  12
ATOM     12  C   UNL     1      -2.253   3.718 -22.564  0.00  0.00    -0.011 A 
ATOM     13  C   UNL     1      -3.080   3.612 -23.561  0.00  0.00    +0.012 A 
ATOM     14  C   UNL     1      -4.355   3.483 -23.338  0.00  0.00    +0.046 A 
ATOM     15  C   UNL     1      -4.801   3.459 -22.117  0.00  0.00    +0.117 A 
ATOM     16  C   UNL     1      -3.973   3.565 -21.120  0.00  0.00    +0.046 A 
ATOM     17  C   UNL     1      -2.699   3.694 -21.344  0.00  0.00    +0.012 A 
BRANCH  15  18
ATOM     18  O   UNL     1      -6.075   3.330 -21.893  0.00  0.00    -0.507 OA
ATOM     19  H   UNL     1      -6.484   2.492 -21.984  0.00  0.00    +0.292 HD
ENDBRANCH  15  18
ENDBRANCH   3  12
BRANCH  10  20
ATOM     20  O   UNL     1       1.371   0.745 -22.518  0.00  0.00    -0.506 OA
ATOM     21  H   UNL     1       1.145   0.134 -23.191  0.00  0.00    +0.292 HD
ENDBRANCH  10  20
BRANCH   8  22
ATOM     22  O   UNL     1       4.901   3.325 -23.598  0.00  0.00    -0.507 OA
ATOM     23  H   UNL     1       5.229   4.102 -24.005  0.00  0.00    +0.292 HD
ENDBRANCH   8  22
TORSDOF 4
ENDMDL
MODEL 3
REMARK VINA RESULT:    -8.928      1.853      3.065
REMARK INTER + INTRA:         -10.122
REMARK INTER:                  -9.974
REMARK INTRA:                  -0.148
REMARK UNBOUND:                 0.111
REMARK  Name = ZINC000018825330
REMARK  4 active torsions:
REMARK  status: ('A' for Active; 'I' for Inactive)
REMARK    1  A    between atoms: C_3  and  C_4
REMARK    2  A    between atoms: C_7  and  O_8
REMARK    3  A    between atoms: C_15  and  O_16
REMARK    4  A    between atoms: C_18  and  O_19
REMARK                            x       y       z     vdW  Elec       q    Type
REMARK                         _______ _______ _______ _____ _____    ______ ____
ROOT
ATOM      1  O   UNL     1      -0.687   1.638 -23.225  0.00  0.00    -0.286 OA
ATOM      2  C   UNL     1       0.163   2.605 -23.416  0.00  0.00    +0.204 A 
ATOM      3  C   UNL     1      -0.194   3.660 -24.087  0.00  0.00    +0.064 A 
ATOM      4  C   UNL     1       0.655   4.626 -24.277  0.00  0.00    +0.208 A 
ATOM      5  O   UNL     1       1.860   4.537 -23.797  0.00  0.00    -0.462 OA
ATOM      6  C   UNL     1       2.216   3.481 -23.126  0.00  0.00    +0.145 A 
ATOM      7  C   UNL     1       3.420   3.392 -22.646  0.00  0.00    +0.092 A 
ATOM      8  C   UNL     1       3.777   2.336 -21.975  0.00  0.00    +0.124 A 
ATOM      9  C   UNL     1       2.928   1.370 -21.785  0.00  0.00    +0.091 A 
ATOM     10  C   UNL     1       1.723   1.460 -22.266  0.00  0.00    +0.135 A 
ATOM     11  C   UNL     1       1.367   2.515 -22.936  0.00  0.00    +0.106 A 
ENDROOT
BRANCH   3  12
ATOM     12  C   UNL     1      -1.399   3.749 -24.567  0.00  0.00    -0.011 A 
ATOM     13  C   UNL     1      -2.371   4.158 -23.807  0.00  0.00    +0.012 A 
ATOM     14  C   UNL     1      -3.577   4.247 -24.286  0.00  0.00    +0.046 A 
ATOM     15  C   UNL     1      -3.810   3.927 -25.524  0.00  0.00    +0.117 A 
ATOM     16  C   UNL     1      -2.836   3.518 -26.284  0.00  0.00    +0.046 A 
ATOM     17  C   UNL     1      -1.631   3.429 -25.805  0.00  0.00    +0.012 A 
BRANCH  15  18
ATOM     18  O   UNL     1      -5.014   4.015 -26.003  0.00  0.00    -0.507 OA
ATOM     19  H   UNL     1      -5.169   4.488 -26.797  0.00  0.00    +0.292 HD
ENDBRANCH  15  18
ENDBRANCH   3  12
BRANCH  10  20
ATOM     20  O   UNL     1       0.874   0.494 -22.075  0.00  0.00    -0.506 OA
ATOM     21  H   UNL     1       0.192   0.588 -21.440  0.00  0.00    +0.292 HD
ENDBRANCH  10  20
BRANCH   8  22
ATOM     22  O   UNL     1       4.981   2.247 -21.495  0.00  0.00    -0.507 OA
ATOM     23  H   UNL     1       5.169   2.571 -20.636  0.00  0.00    +0.292 HD
ENDBRANCH   8  22
TORSDOF 4
ENDMDL
MODEL 4
REMARK VINA RESULT:    -8.869      1.456      6.378
REMARK INTER + INTRA:         -10.055
REMARK INTER:                  -9.921
REMARK INTRA:                  -0.134
REMARK UNBOUND:                 0.111
REMARK  Name = ZINC000018825330
REMARK  4 active torsions:
REMARK  status: ('A' for Active; 'I' for Inactive)
REMARK    1  A    between atoms: C_3  and  C_4
REMARK    2  A    between atoms: C_7  and  O_8
REMARK    3  A    between atoms: C_15  and  O_16
REMARK    4  A    between atoms: C_18  and  O_19
REMARK                            x       y       z     vdW  Elec       q    Type
REMARK                         _______ _______ _______ _____ _____    ______ ____
ROOT
ATOM      1  O   UNL     1      -0.164   2.631 -21.958  0.00  0.00    -0.286 OA
ATOM      2  C   UNL     1      -0.718   3.042 -23.061  0.00  0.00    +0.204 A 
ATOM      3  C   UNL     1       0.013   3.264 -24.113  0.00  0.00    +0.064 A 
ATOM      4  C   UNL     1      -0.541   3.674 -25.215  0.00  0.00    +0.208 A 
ATOM      5  O   UNL     1      -1.826   3.862 -25.265  0.00  0.00    -0.462 OA
ATOM      6  C   UNL     1      -2.557   3.641 -24.214  0.00  0.00    +0.145 A 
ATOM      7  C   UNL     1      -3.842   3.829 -24.264  0.00  0.00    +0.092 A 
ATOM      8  C   UNL     1      -4.574   3.607 -23.212  0.00  0.00    +0.124 A 
ATOM      9  C   UNL     1      -4.020   3.197 -22.110  0.00  0.00    +0.091 A 
ATOM     10  C   UNL     1      -2.734   3.009 -22.060  0.00  0.00    +0.135 A 
ATOM     11  C   UNL     1      -2.003   3.230 -23.111  0.00  0.00    +0.106 A 
ENDROOT
BRANCH   3  12
ATOM     12  C   UNL     1       1.299   3.075 -24.062  0.00  0.00    -0.011 A 
ATOM     13  C   UNL     1       1.813   1.979 -24.537  0.00  0.00    +0.012 A 
ATOM     14  C   UNL     1       3.099   1.789 -24.486  0.00  0.00    +0.046 A 
ATOM     15  C   UNL     1       3.869   2.695 -23.960  0.00  0.00    +0.117 A 
ATOM     16  C   UNL     1       3.354   3.791 -23.486  0.00  0.00    +0.046 A 
ATOM     17  C   UNL     1       2.069   3.981 -23.537  0.00  0.00    +0.012 A 
BRANCH  15  18
ATOM     18  O   UNL     1       5.154   2.506 -23.910  0.00  0.00    -0.507 OA
ATOM     19  H   UNL     1       5.736   3.147 -24.266  0.00  0.00    +0.292 HD
ENDBRANCH  15  18
ENDBRANCH   3  12
BRANCH  10  20
ATOM     20  O   UNL     1      -2.180   2.599 -20.958  0.00  0.00    -0.506 OA
ATOM     21  H   UNL     1      -1.338   2.189 -20.981  0.00  0.00    +0.292 HD
ENDBRANCH  10  20
BRANCH   8  22
ATOM     22  O   UNL     1      -5.859   3.796 -23.262  0.00  0.00    -0.507 OA
ATOM     23  H   UNL     1      -6.202   4.660 -23.383  0.00  0.00    +0.292 HD
ENDBRANCH   8  22
TORSDOF 4
ENDMDL
MODEL 5
REMARK VINA RESULT:    -8.786      1.743      6.179
REMARK INTER + INTRA:          -9.959
REMARK INTER:                  -9.852
REMARK INTRA:                  -0.107
REMARK UNBOUND:                 0.111
REMARK  Name = ZINC000018825330
REMARK  4 active torsions:
REMARK  status: ('A' for Active; 'I' for Inactive)
REMARK    1  A    between atoms: C_3  and  C_4
REMARK    2  A    between atoms: C_7  and  O_8
REMARK    3  A    between atoms: C_15  and  O_16
REMARK    4  A    between atoms: C_18  and  O_19
REMARK                            x       y       z     vdW  Elec       q    Type
REMARK                         _______ _______ _______ _____ _____    ______ ____
ROOT
ATOM      1  O   UNL     1       0.828   2.724 -24.750  0.00  0.00    -0.286 OA
ATOM      2  C   UNL     1       0.091   2.600 -23.685  0.00  0.00    +0.204 A 
ATOM      3  C   UNL     1       0.626   2.209 -22.566  0.00  0.00    +0.064 A 
ATOM      4  C   UNL     1      -0.111   2.085 -21.502  0.00  0.00    +0.208 A 
ATOM      5  O   UNL     1      -1.382   2.353 -21.557  0.00  0.00    -0.462 OA
ATOM      6  C   UNL     1      -1.916   2.744 -22.676  0.00  0.00    +0.145 A 
ATOM      7  C   UNL     1      -3.187   3.012 -22.731  0.00  0.00    +0.092 A 
ATOM      8  C   UNL     1      -3.722   3.404 -23.850  0.00  0.00    +0.124 A 
ATOM      9  C   UNL     1      -2.985   3.527 -24.914  0.00  0.00    +0.091 A 
ATOM     10  C   UNL     1      -1.714   3.259 -24.859  0.00  0.00    +0.135 A 
ATOM     11  C   UNL     1      -1.180   2.868 -23.740  0.00  0.00    +0.106 A 
ENDROOT
BRANCH   3  12
ATOM     12  C   UNL     1       1.897   1.941 -22.513  0.00  0.00    -0.011 A 
ATOM     13  C   UNL     1       2.762   2.910 -22.467  0.00  0.00    +0.012 A 
ATOM     14  C   UNL     1       4.034   2.643 -22.414  0.00  0.00    +0.046 A 
ATOM     15  C   UNL     1       4.439   1.408 -22.405  0.00  0.00    +0.117 A 
ATOM     16  C   UNL     1       3.573   0.439 -22.450  0.00  0.00    +0.046 A 
ATOM     17  C   UNL     1       2.302   0.706 -22.504  0.00  0.00    +0.012 A 
BRANCH  15  18
ATOM     18  O   UNL     1       5.710   1.141 -22.351  0.00  0.00    -0.507 OA
ATOM     19  H   UNL     1       6.282   1.445 -23.029  0.00  0.00    +0.292 HD
ENDBRANCH  15  18
ENDBRANCH   3  12
BRANCH  10  20
ATOM     20  O   UNL     1      -0.977   3.383 -25.923  0.00  0.00    -0.506 OA
ATOM     21  H   UNL     1      -0.984   2.713 -26.578  0.00  0.00    +0.292 HD
ENDBRANCH  10  20
BRANCH   8  22
ATOM     22  O   UNL     1      -4.992   3.671 -23.904  0.00  0.00    -0.507 OA
ATOM     23  H   UNL     1      -5.326   4.446 -23.497  0.00  0.00    +0.292 HD
ENDBRANCH   8  22
TORSDOF 4
ENDMDL
MODEL 6
REMARK VINA RESULT:    -8.706      1.495      6.290
REMARK INTER + INTRA:          -9.868
REMARK INTER:                  -9.912
REMARK INTRA:                   0.044
REMARK UNBOUND:                 0.111
REMARK  Name = ZINC000018825330
REMARK  4 active torsions:
REMARK  status: ('A' for Active; 'I' for Inactive)
REMARK    1  A    between atoms: C_3  and  C_4
REMARK    2  A    between atoms: C_7  and  O_8
REMARK    3  A    between atoms: C_15  and  O_16
REMARK    4  A    between atoms: C_18  and  O_19
REMARK                            x       y       z     vdW  Elec       q    Type
REMARK                         _______ _______ _______ _____ _____    ______ ____
ROOT
ATOM      1  O   UNL     1      -1.295   3.757 -24.691  0.00  0.00    -0.286 OA
ATOM      2  C   UNL     1      -1.658   3.373 -23.502  0.00  0.00    +0.204 A 
ATOM      3  C   UNL     1      -0.763   2.976 -22.645  0.00  0.00    +0.064 A 
ATOM      4  C   UNL     1      -1.126   2.593 -21.457  0.00  0.00    +0.208 A 
ATOM      5  O   UNL     1      -2.383   2.608 -21.125  0.00  0.00    -0.462 OA
ATOM      6  C   UNL     1      -3.277   3.006 -21.981  0.00  0.00    +0.145 A 
ATOM      7  C   UNL     1      -4.533   3.020 -21.649  0.00  0.00    +0.092 A 
ATOM      8  C   UNL     1      -5.428   3.418 -22.505  0.00  0.00    +0.124 A 
ATOM      9  C   UNL     1      -5.065   3.801 -23.693  0.00  0.00    +0.091 A 
ATOM     10  C   UNL     1      -3.808   3.786 -24.025  0.00  0.00    +0.135 A 
ATOM     11  C   UNL     1      -2.914   3.388 -23.169  0.00  0.00    +0.106 A 
ENDROOT
BRANCH   3  12
ATOM     12  C   UNL     1       0.493   2.961 -22.978  0.00  0.00    -0.011 A 
ATOM     13  C   UNL     1       1.111   4.077 -23.231  0.00  0.00    +0.012 A 
ATOM     14  C   UNL     1       2.368   4.063 -23.564  0.00  0.00    +0.046 A 
ATOM     15  C   UNL     1       3.006   2.934 -23.645  0.00  0.00    +0.117 A 
ATOM     16  C   UNL     1       2.388   1.818 -23.392  0.00  0.00    +0.046 A 
ATOM     17  C   UNL     1       1.132   1.832 -23.059  0.00  0.00    +0.012 A 
BRANCH  15  18
ATOM     18  O   UNL     1       4.263   2.920 -23.978  0.00  0.00    -0.507 OA
ATOM     19  H   UNL     1       4.883   2.461 -23.447  0.00  0.00    +0.292 HD
ENDBRANCH  15  18
ENDBRANCH   3  12
BRANCH  10  20
ATOM     20  O   UNL     1      -3.445   4.169 -25.213  0.00  0.00    -0.506 OA
ATOM     21  H   UNL     1      -2.559   4.429 -25.372  0.00  0.00    +0.292 HD
ENDBRANCH  10  20
BRANCH   8  22
ATOM     22  O   UNL     1      -6.684   3.433 -22.173  0.00  0.00    -0.507 OA
ATOM     23  H   UNL     1      -6.963   3.031 -21.374  0.00  0.00    +0.292 HD
ENDBRANCH   8  22
TORSDOF 4
ENDMDL
MODEL 7
REMARK VINA RESULT:    -8.489      1.945      2.294
REMARK INTER + INTRA:          -9.618
REMARK INTER:                  -9.485
REMARK INTRA:                  -0.133
REMARK UNBOUND:                 0.111
REMARK  Name = ZINC000018825330
REMARK  4 active torsions:
REMARK  status: ('A' for Active; 'I' for Inactive)
REMARK    1  A    between atoms: C_3  and  C_4
REMARK    2  A    between atoms: C_7  and  O_8
REMARK    3  A    between atoms: C_15  and  O_16
REMARK    4  A    between atoms: C_18  and  O_19
REMARK                            x       y       z     vdW  Elec       q    Type
REMARK                         _______ _______ _______ _____ _____    ______ ____
ROOT
ATOM      1  O   UNL     1       0.696   3.836 -24.494  0.00  0.00    -0.286 OA
ATOM      2  C   UNL     1       0.469   3.068 -23.469  0.00  0.00    +0.204 A 
ATOM      3  C   UNL     1      -0.750   2.726 -23.170  0.00  0.00    +0.064 A 
ATOM      4  C   UNL     1      -0.977   1.958 -22.145  0.00  0.00    +0.208 A 
ATOM      5  O   UNL     1       0.015   1.533 -21.420  0.00  0.00    -0.462 OA
ATOM      6  C   UNL     1       1.233   1.875 -21.719  0.00  0.00    +0.145 A 
ATOM      7  C   UNL     1       2.224   1.449 -20.993  0.00  0.00    +0.092 A 
ATOM      8  C   UNL     1       3.442   1.791 -21.292  0.00  0.00    +0.124 A 
ATOM      9  C   UNL     1       3.669   2.559 -22.317  0.00  0.00    +0.091 A 
ATOM     10  C   UNL     1       2.677   2.984 -23.042  0.00  0.00    +0.135 A 
ATOM     11  C   UNL     1       1.460   2.642 -22.743  0.00  0.00    +0.106 A 
ENDROOT
BRANCH   3  12
ATOM     12  C   UNL     1      -1.741   3.152 -23.896  0.00  0.00    -0.011 A 
ATOM     13  C   UNL     1      -2.258   2.380 -24.805  0.00  0.00    +0.012 A 
ATOM     14  C   UNL     1      -3.249   2.805 -25.532  0.00  0.00    +0.046 A 
ATOM     15  C   UNL     1      -3.722   4.002 -25.349  0.00  0.00    +0.117 A 
ATOM     16  C   UNL     1      -3.205   4.774 -24.439  0.00  0.00    +0.046 A 
ATOM     17  C   UNL     1      -2.214   4.349 -23.713  0.00  0.00    +0.012 A 
BRANCH  15  18
ATOM     18  O   UNL     1      -4.712   4.427 -26.076  0.00  0.00    -0.507 OA
ATOM     19  H   UNL     1      -5.005   5.314 -25.996  0.00  0.00    +0.292 HD
ENDBRANCH  15  18
ENDBRANCH   3  12
BRANCH  10  20
ATOM     20  O   UNL     1       2.904   3.752 -24.067  0.00  0.00    -0.506 OA
ATOM     21  H   UNL     1       3.193   4.634 -23.937  0.00  0.00    +0.292 HD
ENDBRANCH  10  20
BRANCH   8  22
ATOM     22  O   UNL     1       4.433   1.366 -20.567  0.00  0.00    -0.507 OA
ATOM     23  H   UNL     1       5.030   0.732 -20.914  0.00  0.00    +0.292 HD
ENDBRANCH   8  22
TORSDOF 4
ENDMDL
MODEL 8
REMARK VINA RESULT:    -8.347      1.969      6.079
REMARK INTER + INTRA:          -9.456
REMARK INTER:                  -9.732
REMARK INTRA:                   0.275
REMARK UNBOUND:                 0.111
REMARK  Name = ZINC000018825330
REMARK  4 active torsions:
REMARK  status: ('A' for Active; 'I' for Inactive)
REMARK    1  A    between atoms: C_3  and  C_4
REMARK    2  A    between atoms: C_7  and  O_8
REMARK    3  A    between atoms: C_15  and  O_16
REMARK    4  A    between atoms: C_18  and  O_19
REMARK                            x       y       z     vdW  Elec       q    Type
REMARK                         _______ _______ _______ _____ _____    ______ ____
ROOT
ATOM      1  O   UNL     1      -0.938   2.710 -21.723  0.00  0.00    -0.286 OA
ATOM      2  C   UNL     1      -0.809   2.932 -22.999  0.00  0.00    +0.204 A 
ATOM      3  C   UNL     1       0.360   2.835 -23.560  0.00  0.00    +0.064 A 
ATOM      4  C   UNL     1       0.490   3.057 -24.835  0.00  0.00    +0.208 A 
ATOM      5  O   UNL     1      -0.550   3.376 -25.547  0.00  0.00    -0.462 OA
ATOM      6  C   UNL     1      -1.718   3.474 -24.986  0.00  0.00    +0.145 A 
ATOM      7  C   UNL     1      -2.757   3.793 -25.699  0.00  0.00    +0.092 A 
ATOM      8  C   UNL     1      -3.926   3.890 -25.137  0.00  0.00    +0.124 A 
ATOM      9  C   UNL     1      -4.055   3.668 -23.863  0.00  0.00    +0.091 A 
ATOM     10  C   UNL     1      -3.016   3.349 -23.150  0.00  0.00    +0.135 A 
ATOM     11  C   UNL     1      -1.848   3.252 -23.711  0.00  0.00    +0.106 A 
ENDROOT
BRANCH   3  12
ATOM     12  C   UNL     1       1.399   2.515 -22.847  0.00  0.00    -0.011 A 
ATOM     13  C   UNL     1       2.462   3.263 -22.876  0.00  0.00    +0.012 A 
ATOM     14  C   UNL     1       3.501   2.945 -22.163  0.00  0.00    +0.046 A 
ATOM     15  C   UNL     1       3.478   1.878 -21.420  0.00  0.00    +0.117 A 
ATOM     16  C   UNL     1       2.414   1.130 -21.391  0.00  0.00    +0.046 A 
ATOM     17  C   UNL     1       1.375   1.449 -22.104  0.00  0.00    +0.012 A 
BRANCH  15  18
ATOM     18  O   UNL     1       4.516   1.560 -20.707  0.00  0.00    -0.507 OA
ATOM     19  H   UNL     1       4.753   0.660 -20.601  0.00  0.00    +0.292 HD
ENDBRANCH  15  18
ENDBRANCH   3  12
BRANCH  10  20
ATOM     20  O   UNL     1      -3.145   3.127 -21.875  0.00  0.00    -0.506 OA
ATOM     21  H   UNL     1      -3.992   3.163 -21.477  0.00  0.00    +0.292 HD
ENDBRANCH  10  20
BRANCH   8  22
ATOM     22  O   UNL     1      -4.965   4.210 -25.850  0.00  0.00    -0.507 OA
ATOM     23  H   UNL     1      -4.868   4.394 -26.763  0.00  0.00    +0.292 HD
ENDBRANCH   8  22
TORSDOF 4
ENDMDL
MODEL 9
REMARK VINA RESULT:    -8.148      1.425      6.301
REMARK INTER + INTRA:          -9.228
REMARK INTER:                  -9.339
REMARK INTRA:                   0.111
REMARK UNBOUND:                 0.111
REMARK  Name = ZINC000018825330
REMARK  4 active torsions:
REMARK  status: ('A' for Active; 'I' for Inactive)
REMARK    1  A    between atoms: C_3  and  C_4
REMARK    2  A    between atoms: C_7  and  O_8
REMARK    3  A    between atoms: C_15  and  O_16
REMARK    4  A    between atoms: C_18  and  O_19
REMARK                            x       y       z     vdW  Elec       q    Type
REMARK                         _______ _______ _______ _____ _____    ______ ____
ROOT
ATOM      1  O   UNL     1       1.971   4.665 -23.125  0.00  0.00    -0.286 OA
ATOM      2  C   UNL     1       1.379   3.523 -22.924  0.00  0.00    +0.204 A 
ATOM      3  C   UNL     1       2.085   2.461 -22.669  0.00  0.00    +0.064 A 
ATOM      4  C   UNL     1       1.494   1.321 -22.469  0.00  0.00    +0.208 A 
ATOM      5  O   UNL     1       0.197   1.242 -22.524  0.00  0.00    -0.462 OA
ATOM      6  C   UNL     1      -0.508   2.304 -22.779  0.00  0.00    +0.145 A 
ATOM      7  C   UNL     1      -1.804   2.225 -22.834  0.00  0.00    +0.092 A 
ATOM      8  C   UNL     1      -2.510   3.287 -23.089  0.00  0.00    +0.124 A 
ATOM      9  C   UNL     1      -1.919   4.428 -23.289  0.00  0.00    +0.091 A 
ATOM     10  C   UNL     1      -0.622   4.506 -23.234  0.00  0.00    +0.135 A 
ATOM     11  C   UNL     1       0.083   3.444 -22.979  0.00  0.00    +0.106 A 
ENDROOT
BRANCH   3  12
ATOM     12  C   UNL     1       3.382   2.541 -22.614  0.00  0.00    -0.011 A 
ATOM     13  C   UNL     1       4.054   2.909 -23.664  0.00  0.00    +0.012 A 
ATOM     14  C   UNL     1       5.351   2.989 -23.611  0.00  0.00    +0.046 A 
ATOM     15  C   UNL     1       5.975   2.701 -22.507  0.00  0.00    +0.117 A 
ATOM     16  C   UNL     1       5.302   2.332 -21.457  0.00  0.00    +0.046 A 
ATOM     17  C   UNL     1       4.006   2.252 -21.511  0.00  0.00    +0.012 A 
BRANCH  15  18
ATOM     18  O   UNL     1       7.271   2.781 -22.453  0.00  0.00    -0.507 OA
ATOM     19  H   UNL     1       7.750   3.120 -23.184  0.00  0.00    +0.292 HD
ENDBRANCH  15  18
ENDBRANCH   3  12
BRANCH  10  20
ATOM     20  O   UNL     1      -0.031   5.647 -23.435  0.00  0.00    -0.506 OA
ATOM     21  H   UNL     1      -0.270   6.394 -22.923  0.00  0.00    +0.292 HD
ENDBRANCH  10  20
BRANCH   8  22
ATOM     22  O   UNL     1      -3.806   3.208 -23.144  0.00  0.00    -0.507 OA
ATOM     23  H   UNL     1      -4.214   2.469 -23.551  0.00  0.00    +0.292 HD
ENDBRANCH   8  22
TORSDOF 4
ENDMDL
