MODEL 1
REMARK VINA RESULT:    -9.754      0.000      0.000
REMARK INTER + INTRA:         -11.927
REMARK INTER:                 -11.463
REMARK INTRA:                  -0.464
REMARK UNBOUND:                -0.463
REMARK  Name = ZINC000018185774
REMARK  5 active torsions:
REMARK  status: ('A' for Active; 'I' for Inactive)
REMARK    1  A    between atoms: C_4  and  C_5
REMARK    2  A    between atoms: C_8  and  O_9
REMARK    3  A    between atoms: C_10  and  O_11
REMARK    4  A    between atoms: C_16  and  O_17
REMARK    5  A    between atoms: C_19  and  O_20
REMARK                            x       y       z     vdW  Elec       q    Type
REMARK                         _______ _______ _______ _____ _____    ______ ____
ROOT
ATOM      1  O   UNL     1      -4.061   2.457 -20.621  0.00  0.00    -0.287 OA
ATOM      2  C   UNL     1      -3.189   2.623 -21.570  0.00  0.00    +0.197 A 
ATOM      3  C   UNL     1      -1.944   2.305 -21.373  0.00  0.00    +0.098 A 
ATOM      4  C   UNL     1      -1.071   2.472 -22.323  0.00  0.00    +0.139 A 
ATOM      5  O   UNL     1      -1.444   2.956 -23.470  0.00  0.00    -0.454 OA
ATOM      6  C   UNL     1      -2.689   3.274 -23.667  0.00  0.00    +0.146 A 
ATOM      7  C   UNL     1      -3.062   3.759 -24.815  0.00  0.00    +0.092 A 
ATOM      8  C   UNL     1      -4.306   4.077 -25.012  0.00  0.00    +0.124 A 
ATOM      9  C   UNL     1      -5.179   3.911 -24.063  0.00  0.00    +0.091 A 
ATOM     10  C   UNL     1      -4.806   3.426 -22.916  0.00  0.00    +0.135 A 
ATOM     11  C   UNL     1      -3.561   3.108 -22.718  0.00  0.00    +0.105 A 
ENDROOT
BRANCH   4  12
ATOM     12  C   UNL     1       0.173   2.153 -22.125  0.00  0.00    +0.021 A 
ATOM     13  C   UNL     1       1.023   2.214 -23.106  0.00  0.00    +0.015 A 
ATOM     14  C   UNL     1       2.268   1.895 -22.908  0.00  0.00    +0.050 A 
ATOM     15  C   UNL     1       2.663   1.517 -21.729  0.00  0.00    +0.158 A 
ATOM     16  C   UNL     1       1.812   1.456 -20.747  0.00  0.00    +0.159 A 
ATOM     17  C   UNL     1       0.568   1.775 -20.945  0.00  0.00    +0.060 A 
BRANCH  16  18
ATOM     18  O   UNL     1       2.207   1.078 -19.568  0.00  0.00    -0.503 OA
ATOM     19  H   UNL     1       1.921   0.257 -19.220  0.00  0.00    +0.292 HD
ENDBRANCH  16  18
BRANCH  15  20
ATOM     20  O   UNL     1       3.907   1.199 -21.532  0.00  0.00    -0.503 OA
ATOM     21  H   UNL     1       4.514   1.213 -22.245  0.00  0.00    +0.292 HD
ENDBRANCH  15  20
ENDBRANCH   4  12
BRANCH  10  22
ATOM     22  O   UNL     1      -5.678   3.260 -21.967  0.00  0.00    -0.506 OA
ATOM     23  H   UNL     1      -5.458   3.483 -21.084  0.00  0.00    +0.292 HD
ENDBRANCH  10  22
BRANCH   8  24
ATOM     24  O   UNL     1      -4.679   4.562 -26.159  0.00  0.00    -0.507 OA
ATOM     25  H   UNL     1      -4.092   4.542 -26.889  0.00  0.00    +0.292 HD
ENDBRANCH   8  24
TORSDOF 5
ENDMDL
MODEL 2
REMARK VINA RESULT:    -9.443      1.369      6.520
REMARK INTER + INTRA:         -11.562
REMARK INTER:                 -11.099
REMARK INTRA:                  -0.463
REMARK UNBOUND:                -0.463
REMARK  Name = ZINC000018185774
REMARK  5 active torsions:
REMARK  status: ('A' for Active; 'I' for Inactive)
REMARK    1  A    between atoms: C_4  and  C_5
REMARK    2  A    between atoms: C_8  and  O_9
REMARK    3  A    between atoms: C_10  and  O_11
REMARK    4  A    between atoms: C_16  and  O_17
REMARK    5  A    between atoms: C_19  and  O_20
REMARK                            x       y       z     vdW  Elec       q    Type
REMARK                         _______ _______ _______ _____ _____    ______ ____
ROOT
ATOM      1  O   UNL     1       0.267   1.308 -20.624  0.00  0.00    -0.287 OA
ATOM      2  C   UNL     1       0.308   1.800 -21.826  0.00  0.00    +0.197 A 
ATOM      3  C   UNL     1      -0.788   2.182 -22.411  0.00  0.00    +0.098 A 
ATOM      4  C   UNL     1      -0.747   2.675 -23.614  0.00  0.00    +0.139 A 
ATOM      5  O   UNL     1       0.391   2.785 -24.232  0.00  0.00    -0.454 OA
ATOM      6  C   UNL     1       1.488   2.404 -23.647  0.00  0.00    +0.146 A 
ATOM      7  C   UNL     1       2.627   2.514 -24.265  0.00  0.00    +0.092 A 
ATOM      8  C   UNL     1       3.723   2.133 -23.681  0.00  0.00    +0.124 A 
ATOM      9  C   UNL     1       3.682   1.640 -22.479  0.00  0.00    +0.091 A 
ATOM     10  C   UNL     1       2.544   1.529 -21.861  0.00  0.00    +0.135 A 
ATOM     11  C   UNL     1       1.446   1.911 -22.445  0.00  0.00    +0.105 A 
ENDROOT
BRANCH   4  12
ATOM     12  C   UNL     1      -1.843   3.056 -24.197  0.00  0.00    +0.021 A 
ATOM     13  C   UNL     1      -1.856   3.271 -25.479  0.00  0.00    +0.015 A 
ATOM     14  C   UNL     1      -2.953   3.653 -26.064  0.00  0.00    +0.050 A 
ATOM     15  C   UNL     1      -4.037   3.819 -25.366  0.00  0.00    +0.158 A 
ATOM     16  C   UNL     1      -4.025   3.604 -24.084  0.00  0.00    +0.159 A 
ATOM     17  C   UNL     1      -2.928   3.222 -23.500  0.00  0.00    +0.060 A 
BRANCH  16  18
ATOM     18  O   UNL     1      -5.109   3.769 -23.387  0.00  0.00    -0.503 OA
ATOM     19  H   UNL     1      -5.629   4.540 -23.506  0.00  0.00    +0.292 HD
ENDBRANCH  16  18
BRANCH  15  20
ATOM     20  O   UNL     1      -5.134   4.200 -25.951  0.00  0.00    -0.503 OA
ATOM     21  H   UNL     1      -5.734   3.563 -26.285  0.00  0.00    +0.292 HD
ENDBRANCH  15  20
ENDBRANCH   4  12
BRANCH  10  22
ATOM     22  O   UNL     1       2.502   1.037 -20.658  0.00  0.00    -0.506 OA
ATOM     23  H   UNL     1       2.947   0.236 -20.465  0.00  0.00    +0.292 HD
ENDBRANCH  10  22
BRANCH   8  24
ATOM     24  O   UNL     1       4.861   2.243 -24.299  0.00  0.00    -0.507 OA
ATOM     25  H   UNL     1       5.622   2.529 -23.833  0.00  0.00    +0.292 HD
ENDBRANCH   8  24
TORSDOF 5
ENDMDL
MODEL 3
REMARK VINA RESULT:    -9.395      0.982      2.449
REMARK INTER + INTRA:         -11.505
REMARK INTER:                 -11.031
REMARK INTRA:                  -0.475
REMARK UNBOUND:                -0.463
REMARK  Name = ZINC000018185774
REMARK  5 active torsions:
REMARK  status: ('A' for Active; 'I' for Inactive)
REMARK    1  A    between atoms: C_4  and  C_5
REMARK    2  A    between atoms: C_8  and  O_9
REMARK    3  A    between atoms: C_10  and  O_11
REMARK    4  A    between atoms: C_16  and  O_17
REMARK    5  A    between atoms: C_19  and  O_20
REMARK                            x       y       z     vdW  Elec       q    Type
REMARK                         _______ _______ _______ _____ _____    ______ ____
ROOT
ATOM      1  O   UNL     1      -2.190   3.763 -26.175  0.00  0.00    -0.287 OA
ATOM      2  C   UNL     1      -2.103   3.420 -24.924  0.00  0.00    +0.197 A 
ATOM      3  C   UNL     1      -0.959   3.053 -24.428  0.00  0.00    +0.098 A 
ATOM      4  C   UNL     1      -0.872   2.710 -23.176  0.00  0.00    +0.139 A 
ATOM      5  O   UNL     1      -1.930   2.734 -22.421  0.00  0.00    -0.454 OA
ATOM      6  C   UNL     1      -3.074   3.101 -22.917  0.00  0.00    +0.146 A 
ATOM      7  C   UNL     1      -4.132   3.125 -22.162  0.00  0.00    +0.092 A 
ATOM      8  C   UNL     1      -5.276   3.492 -22.658  0.00  0.00    +0.124 A 
ATOM      9  C   UNL     1      -5.363   3.835 -23.909  0.00  0.00    +0.091 A 
ATOM     10  C   UNL     1      -4.306   3.811 -24.664  0.00  0.00    +0.135 A 
ATOM     11  C   UNL     1      -3.160   3.444 -24.168  0.00  0.00    +0.105 A 
ENDROOT
BRANCH   4  12
ATOM     12  C   UNL     1       0.272   2.343 -22.681  0.00  0.00    +0.021 A 
ATOM     13  C   UNL     1       1.333   2.340 -23.432  0.00  0.00    +0.015 A 
ATOM     14  C   UNL     1       2.478   1.973 -22.937  0.00  0.00    +0.050 A 
ATOM     15  C   UNL     1       2.562   1.610 -21.692  0.00  0.00    +0.158 A 
ATOM     16  C   UNL     1       1.500   1.612 -20.941  0.00  0.00    +0.159 A 
ATOM     17  C   UNL     1       0.356   1.979 -21.436  0.00  0.00    +0.060 A 
BRANCH  16  18
ATOM     18  O   UNL     1       1.584   1.249 -19.696  0.00  0.00    -0.503 OA
ATOM     19  H   UNL     1       2.414   1.253 -19.262  0.00  0.00    +0.292 HD
ENDBRANCH  16  18
BRANCH  15  20
ATOM     20  O   UNL     1       3.707   1.243 -21.198  0.00  0.00    -0.503 OA
ATOM     21  H   UNL     1       3.853   1.282 -20.273  0.00  0.00    +0.292 HD
ENDBRANCH  15  20
ENDBRANCH   4  12
BRANCH  10  22
ATOM     22  O   UNL     1      -4.392   4.154 -25.915  0.00  0.00    -0.506 OA
ATOM     23  H   UNL     1      -3.639   4.096 -26.469  0.00  0.00    +0.292 HD
ENDBRANCH  10  22
BRANCH   8  24
ATOM     24  O   UNL     1      -6.334   3.516 -21.903  0.00  0.00    -0.507 OA
ATOM     25  H   UNL     1      -7.187   3.473 -22.289  0.00  0.00    +0.292 HD
ENDBRANCH   8  24
TORSDOF 5
ENDMDL
MODEL 4
REMARK VINA RESULT:    -9.331      2.019      7.006
REMARK INTER + INTRA:         -11.430
REMARK INTER:                 -10.984
REMARK INTRA:                  -0.446
REMARK UNBOUND:                -0.463
REMARK  Name = ZINC000018185774
REMARK  5 active torsions:
REMARK  status: ('A' for Active; 'I' for Inactive)
REMARK    1  A    between atoms: C_4  and  C_5
REMARK    2  A    between atoms: C_8  and  O_9
REMARK    3  A    between atoms: C_10  and  O_11
REMARK    4  A    between atoms: C_16  and  O_17
REMARK    5  A    between atoms: C_19  and  O_20
REMARK                            x       y       z     vdW  Elec       q    Type
REMARK                         _______ _______ _______ _____ _____    ______ ____
ROOT
ATOM      1  O   UNL     1       2.020   5.513 -23.621  0.00  0.00    -0.287 OA
ATOM      2  C   UNL     1       1.283   4.442 -23.600  0.00  0.00    +0.197 A 
ATOM      3  C   UNL     1       0.072   4.476 -24.073  0.00  0.00    +0.098 A 
ATOM      4  C   UNL     1      -0.665   3.405 -24.051  0.00  0.00    +0.139 A 
ATOM      5  O   UNL     1      -0.192   2.300 -23.556  0.00  0.00    -0.454 OA
ATOM      6  C   UNL     1       1.018   2.266 -23.083  0.00  0.00    +0.146 A 
ATOM      7  C   UNL     1       1.492   1.161 -22.588  0.00  0.00    +0.092 A 
ATOM      8  C   UNL     1       2.702   1.127 -22.115  0.00  0.00    +0.124 A 
ATOM      9  C   UNL     1       3.439   2.197 -22.137  0.00  0.00    +0.091 A 
ATOM     10  C   UNL     1       2.966   3.302 -22.632  0.00  0.00    +0.135 A 
ATOM     11  C   UNL     1       1.755   3.337 -23.105  0.00  0.00    +0.105 A 
ENDROOT
BRANCH   4  12
ATOM     12  C   UNL     1      -1.875   3.440 -24.524  0.00  0.00    +0.021 A 
ATOM     13  C   UNL     1      -2.889   3.488 -23.712  0.00  0.00    +0.015 A 
ATOM     14  C   UNL     1      -4.100   3.523 -24.185  0.00  0.00    +0.050 A 
ATOM     15  C   UNL     1      -4.296   3.510 -25.470  0.00  0.00    +0.158 A 
ATOM     16  C   UNL     1      -3.282   3.462 -26.282  0.00  0.00    +0.159 A 
ATOM     17  C   UNL     1      -2.072   3.427 -25.810  0.00  0.00    +0.060 A 
BRANCH  16  18
ATOM     18  O   UNL     1      -3.479   3.449 -27.567  0.00  0.00    -0.503 OA
ATOM     19  H   UNL     1      -4.238   3.028 -27.920  0.00  0.00    +0.292 HD
ENDBRANCH  16  18
BRANCH  15  20
ATOM     20  O   UNL     1      -5.507   3.545 -25.942  0.00  0.00    -0.503 OA
ATOM     21  H   UNL     1      -6.121   4.170 -25.612  0.00  0.00    +0.292 HD
ENDBRANCH  15  20
ENDBRANCH   4  12
BRANCH  10  22
ATOM     22  O   UNL     1       3.703   4.373 -22.653  0.00  0.00    -0.506 OA
ATOM     23  H   UNL     1       4.070   4.705 -21.858  0.00  0.00    +0.292 HD
ENDBRANCH  10  22
BRANCH   8  24
ATOM     24  O   UNL     1       3.175   0.022 -21.621  0.00  0.00    -0.507 OA
ATOM     25  H   UNL     1       3.081  -0.782 -22.094  0.00  0.00    +0.292 HD
ENDBRANCH   8  24
TORSDOF 5
ENDMDL
MODEL 5
REMARK VINA RESULT:    -9.281      1.642      6.764
REMARK INTER + INTRA:         -11.372
REMARK INTER:                 -10.917
REMARK INTRA:                  -0.454
REMARK UNBOUND:                -0.463
REMARK  Name = ZINC000018185774
REMARK  5 active torsions:
REMARK  status: ('A' for Active; 'I' for Inactive)
REMARK    1  A    between atoms: C_4  and  C_5
REMARK    2  A    between atoms: C_8  and  O_9
REMARK    3  A    between atoms: C_10  and  O_11
REMARK    4  A    between atoms: C_16  and  O_17
REMARK    5  A    between atoms: C_19  and  O_20
REMARK                            x       y       z     vdW  Elec       q    Type
REMARK                         _______ _______ _______ _____ _____    ______ ____
ROOT
ATOM      1  O   UNL     1       1.388   5.258 -23.895  0.00  0.00    -0.287 OA
ATOM      2  C   UNL     1       0.773   4.250 -23.351  0.00  0.00    +0.197 A 
ATOM      3  C   UNL     1      -0.517   4.280 -23.200  0.00  0.00    +0.098 A 
ATOM      4  C   UNL     1      -1.133   3.272 -22.656  0.00  0.00    +0.139 A 
ATOM      5  O   UNL     1      -0.457   2.233 -22.264  0.00  0.00    -0.454 OA
ATOM      6  C   UNL     1       0.833   2.202 -22.415  0.00  0.00    +0.146 A 
ATOM      7  C   UNL     1       1.510   1.163 -22.023  0.00  0.00    +0.092 A 
ATOM      8  C   UNL     1       2.800   1.132 -22.175  0.00  0.00    +0.124 A 
ATOM      9  C   UNL     1       3.415   2.140 -22.718  0.00  0.00    +0.091 A 
ATOM     10  C   UNL     1       2.740   3.179 -23.110  0.00  0.00    +0.135 A 
ATOM     11  C   UNL     1       1.448   3.210 -22.959  0.00  0.00    +0.105 A 
ENDROOT
BRANCH   4  12
ATOM     12  C   UNL     1      -2.423   3.303 -22.505  0.00  0.00    +0.021 A 
ATOM     13  C   UNL     1      -2.955   2.927 -21.380  0.00  0.00    +0.015 A 
ATOM     14  C   UNL     1      -4.246   2.959 -21.228  0.00  0.00    +0.050 A 
ATOM     15  C   UNL     1      -5.005   3.365 -22.202  0.00  0.00    +0.158 A 
ATOM     16  C   UNL     1      -4.473   3.741 -23.327  0.00  0.00    +0.159 A 
ATOM     17  C   UNL     1      -3.183   3.710 -23.479  0.00  0.00    +0.060 A 
BRANCH  16  18
ATOM     18  O   UNL     1      -5.232   4.148 -24.301  0.00  0.00    -0.503 OA
ATOM     19  H   UNL     1      -4.855   4.362 -25.131  0.00  0.00    +0.292 HD
ENDBRANCH  16  18
BRANCH  15  20
ATOM     20  O   UNL     1      -6.295   3.396 -22.050  0.00  0.00    -0.503 OA
ATOM     21  H   UNL     1      -6.698   2.916 -21.353  0.00  0.00    +0.292 HD
ENDBRANCH  15  20
ENDBRANCH   4  12
BRANCH  10  22
ATOM     22  O   UNL     1       3.355   4.187 -23.654  0.00  0.00    -0.506 OA
ATOM     23  H   UNL     1       3.588   4.160 -24.561  0.00  0.00    +0.292 HD
ENDBRANCH  10  22
BRANCH   8  24
ATOM     24  O   UNL     1       3.476   0.094 -21.783  0.00  0.00    -0.507 OA
ATOM     25  H   UNL     1       4.412   0.117 -21.779  0.00  0.00    +0.292 HD
ENDBRANCH   8  24
TORSDOF 5
ENDMDL
MODEL 6
REMARK VINA RESULT:    -9.248      1.218      1.865
REMARK INTER + INTRA:         -11.333
REMARK INTER:                 -10.858
REMARK INTRA:                  -0.475
REMARK UNBOUND:                -0.463
REMARK  Name = ZINC000018185774
REMARK  5 active torsions:
REMARK  status: ('A' for Active; 'I' for Inactive)
REMARK    1  A    between atoms: C_4  and  C_5
REMARK    2  A    between atoms: C_8  and  O_9
REMARK    3  A    between atoms: C_10  and  O_11
REMARK    4  A    between atoms: C_16  and  O_17
REMARK    5  A    between atoms: C_19  and  O_20
REMARK                            x       y       z     vdW  Elec       q    Type
REMARK                         _______ _______ _______ _____ _____    ______ ____
ROOT
ATOM      1  O   UNL     1      -3.017   2.632 -20.952  0.00  0.00    -0.287 OA
ATOM      2  C   UNL     1      -2.242   2.657 -21.995  0.00  0.00    +0.197 A 
ATOM      3  C   UNL     1      -1.003   2.277 -21.894  0.00  0.00    +0.098 A 
ATOM      4  C   UNL     1      -0.227   2.303 -22.938  0.00  0.00    +0.139 A 
ATOM      5  O   UNL     1      -0.691   2.709 -24.082  0.00  0.00    -0.454 OA
ATOM      6  C   UNL     1      -1.930   3.089 -24.183  0.00  0.00    +0.146 A 
ATOM      7  C   UNL     1      -2.394   3.495 -25.328  0.00  0.00    +0.092 A 
ATOM      8  C   UNL     1      -3.633   3.875 -25.429  0.00  0.00    +0.124 A 
ATOM      9  C   UNL     1      -4.408   3.849 -24.386  0.00  0.00    +0.091 A 
ATOM     10  C   UNL     1      -3.945   3.444 -23.242  0.00  0.00    +0.135 A 
ATOM     11  C   UNL     1      -2.705   3.063 -23.140  0.00  0.00    +0.105 A 
ENDROOT
BRANCH   4  12
ATOM     12  C   UNL     1       1.011   1.923 -22.836  0.00  0.00    +0.021 A 
ATOM     13  C   UNL     1       1.473   1.514 -21.692  0.00  0.00    +0.015 A 
ATOM     14  C   UNL     1       2.713   1.133 -21.590  0.00  0.00    +0.050 A 
ATOM     15  C   UNL     1       3.489   1.162 -22.632  0.00  0.00    +0.158 A 
ATOM     16  C   UNL     1       3.027   1.570 -23.776  0.00  0.00    +0.159 A 
ATOM     17  C   UNL     1       1.789   1.951 -23.879  0.00  0.00    +0.060 A 
BRANCH  16  18
ATOM     18  O   UNL     1       3.804   1.599 -24.818  0.00  0.00    -0.503 OA
ATOM     19  H   UNL     1       4.734   1.625 -24.708  0.00  0.00    +0.292 HD
ENDBRANCH  16  18
BRANCH  15  20
ATOM     20  O   UNL     1       4.728   0.781 -22.529  0.00  0.00    -0.503 OA
ATOM     21  H   UNL     1       5.335   0.970 -23.217  0.00  0.00    +0.292 HD
ENDBRANCH  15  20
ENDBRANCH   4  12
BRANCH  10  22
ATOM     22  O   UNL     1      -4.720   3.418 -22.198  0.00  0.00    -0.506 OA
ATOM     23  H   UNL     1      -5.648   3.484 -22.303  0.00  0.00    +0.292 HD
ENDBRANCH  10  22
BRANCH   8  24
ATOM     24  O   UNL     1      -4.097   4.281 -26.573  0.00  0.00    -0.507 OA
ATOM     25  H   UNL     1      -3.749   3.932 -27.370  0.00  0.00    +0.292 HD
ENDBRANCH   8  24
TORSDOF 5
ENDMDL
MODEL 7
REMARK VINA RESULT:    -9.089      1.617      6.990
REMARK INTER + INTRA:         -11.145
REMARK INTER:                 -10.681
REMARK INTRA:                  -0.464
REMARK UNBOUND:                -0.463
REMARK  Name = ZINC000018185774
REMARK  5 active torsions:
REMARK  status: ('A' for Active; 'I' for Inactive)
REMARK    1  A    between atoms: C_4  and  C_5
REMARK    2  A    between atoms: C_8  and  O_9
REMARK    3  A    between atoms: C_10  and  O_11
REMARK    4  A    between atoms: C_16  and  O_17
REMARK    5  A    between atoms: C_19  and  O_20
REMARK                            x       y       z     vdW  Elec       q    Type
REMARK                         _______ _______ _______ _____ _____    ______ ____
ROOT
ATOM      1  O   UNL     1       1.935   2.439 -25.399  0.00  0.00    -0.287 OA
ATOM      2  C   UNL     1       1.446   2.279 -24.204  0.00  0.00    +0.197 A 
ATOM      3  C   UNL     1       0.210   2.599 -23.960  0.00  0.00    +0.098 A 
ATOM      4  C   UNL     1      -0.278   2.439 -22.765  0.00  0.00    +0.139 A 
ATOM      5  O   UNL     1       0.469   1.959 -21.815  0.00  0.00    -0.454 OA
ATOM      6  C   UNL     1       1.705   1.640 -22.060  0.00  0.00    +0.146 A 
ATOM      7  C   UNL     1       2.453   1.160 -21.111  0.00  0.00    +0.092 A 
ATOM      8  C   UNL     1       3.689   0.841 -21.356  0.00  0.00    +0.124 A 
ATOM      9  C   UNL     1       4.177   1.001 -22.550  0.00  0.00    +0.091 A 
ATOM     10  C   UNL     1       3.430   1.480 -23.499  0.00  0.00    +0.135 A 
ATOM     11  C   UNL     1       2.193   1.800 -23.254  0.00  0.00    +0.105 A 
ENDROOT
BRANCH   4  12
ATOM     12  C   UNL     1      -1.514   2.758 -22.521  0.00  0.00    +0.021 A 
ATOM     13  C   UNL     1      -1.940   2.813 -21.294  0.00  0.00    +0.015 A 
ATOM     14  C   UNL     1      -3.177   3.133 -21.049  0.00  0.00    +0.050 A 
ATOM     15  C   UNL     1      -3.987   3.398 -22.031  0.00  0.00    +0.158 A 
ATOM     16  C   UNL     1      -3.560   3.343 -23.258  0.00  0.00    +0.159 A 
ATOM     17  C   UNL     1      -2.324   3.023 -23.503  0.00  0.00    +0.060 A 
BRANCH  16  18
ATOM     18  O   UNL     1      -4.369   3.608 -24.240  0.00  0.00    -0.503 OA
ATOM     19  H   UNL     1      -4.151   3.343 -25.111  0.00  0.00    +0.292 HD
ENDBRANCH  16  18
BRANCH  15  20
ATOM     20  O   UNL     1      -5.222   3.718 -21.786  0.00  0.00    -0.503 OA
ATOM     21  H   UNL     1      -5.646   4.378 -22.297  0.00  0.00    +0.292 HD
ENDBRANCH  15  20
ENDBRANCH   4  12
BRANCH  10  22
ATOM     22  O   UNL     1       3.918   1.640 -24.693  0.00  0.00    -0.506 OA
ATOM     23  H   UNL     1       3.811   0.968 -25.337  0.00  0.00    +0.292 HD
ENDBRANCH  10  22
BRANCH   8  24
ATOM     24  O   UNL     1       4.436   0.362 -20.407  0.00  0.00    -0.507 OA
ATOM     25  H   UNL     1       4.047   0.070 -19.605  0.00  0.00    +0.292 HD
ENDBRANCH   8  24
TORSDOF 5
ENDMDL
MODEL 8
REMARK VINA RESULT:    -8.796      1.578      3.477
REMARK INTER + INTRA:         -10.802
REMARK INTER:                 -10.339
REMARK INTRA:                  -0.462
REMARK UNBOUND:                -0.463
REMARK  Name = ZINC000018185774
REMARK  5 active torsions:
REMARK  status: ('A' for Active; 'I' for Inactive)
REMARK    1  A    between atoms: C_4  and  C_5
REMARK    2  A    between atoms: C_8  and  O_9
REMARK    3  A    between atoms: C_10  and  O_11
REMARK    4  A    between atoms: C_16  and  O_17
REMARK    5  A    between atoms: C_19  and  O_20
REMARK                            x       y       z     vdW  Elec       q    Type
REMARK                         _______ _______ _______ _____ _____    ______ ____
ROOT
ATOM      1  O   UNL     1      -1.010   3.755 -25.540  0.00  0.00    -0.287 OA
ATOM      2  C   UNL     1      -0.672   3.182 -24.423  0.00  0.00    +0.197 A 
ATOM      3  C   UNL     1       0.554   2.794 -24.236  0.00  0.00    +0.098 A 
ATOM      4  C   UNL     1       0.893   2.220 -23.119  0.00  0.00    +0.139 A 
ATOM      5  O   UNL     1       0.004   2.035 -22.189  0.00  0.00    -0.454 OA
ATOM      6  C   UNL     1      -1.222   2.422 -22.376  0.00  0.00    +0.146 A 
ATOM      7  C   UNL     1      -2.112   2.237 -21.445  0.00  0.00    +0.092 A 
ATOM      8  C   UNL     1      -3.339   2.624 -21.632  0.00  0.00    +0.124 A 
ATOM      9  C   UNL     1      -3.676   3.198 -22.749  0.00  0.00    +0.091 A 
ATOM     10  C   UNL     1      -2.788   3.383 -23.679  0.00  0.00    +0.135 A 
ATOM     11  C   UNL     1      -1.560   2.996 -23.492  0.00  0.00    +0.105 A 
ENDROOT
BRANCH   4  12
ATOM     12  C   UNL     1       2.119   1.833 -22.933  0.00  0.00    +0.021 A 
ATOM     13  C   UNL     1       2.385   0.924 -22.043  0.00  0.00    +0.015 A 
ATOM     14  C   UNL     1       3.613   0.537 -21.856  0.00  0.00    +0.050 A 
ATOM     15  C   UNL     1       4.573   1.058 -22.560  0.00  0.00    +0.158 A 
ATOM     16  C   UNL     1       4.307   1.966 -23.451  0.00  0.00    +0.159 A 
ATOM     17  C   UNL     1       3.080   2.354 -23.637  0.00  0.00    +0.060 A 
BRANCH  16  18
ATOM     18  O   UNL     1       5.267   2.487 -24.155  0.00  0.00    -0.503 OA
ATOM     19  H   UNL     1       5.507   2.105 -24.976  0.00  0.00    +0.292 HD
ENDBRANCH  16  18
BRANCH  15  20
ATOM     20  O   UNL     1       5.799   0.670 -22.374  0.00  0.00    -0.503 OA
ATOM     21  H   UNL     1       6.507   1.148 -22.760  0.00  0.00    +0.292 HD
ENDBRANCH  15  20
ENDBRANCH   4  12
BRANCH  10  22
ATOM     22  O   UNL     1      -3.126   3.957 -24.795  0.00  0.00    -0.506 OA
ATOM     23  H   UNL     1      -3.894   3.677 -25.252  0.00  0.00    +0.292 HD
ENDBRANCH  10  22
BRANCH   8  24
ATOM     24  O   UNL     1      -4.227   2.438 -20.702  0.00  0.00    -0.507 OA
ATOM     25  H   UNL     1      -4.590   3.173 -20.247  0.00  0.00    +0.292 HD
ENDBRANCH   8  24
TORSDOF 5
ENDMDL
MODEL 9
REMARK VINA RESULT:    -8.781      1.803      6.683
REMARK INTER + INTRA:         -10.784
REMARK INTER:                 -10.321
REMARK INTRA:                  -0.463
REMARK UNBOUND:                -0.463
REMARK  Name = ZINC000018185774
REMARK  5 active torsions:
REMARK  status: ('A' for Active; 'I' for Inactive)
REMARK    1  A    between atoms: C_4  and  C_5
REMARK    2  A    between atoms: C_8  and  O_9
REMARK    3  A    between atoms: C_10  and  O_11
REMARK    4  A    between atoms: C_16  and  O_17
REMARK    5  A    between atoms: C_19  and  O_20
REMARK                            x       y       z     vdW  Elec       q    Type
REMARK                         _______ _______ _______ _____ _____    ______ ____
ROOT
ATOM      1  O   UNL     1       1.447   0.377 -22.135  0.00  0.00    -0.287 OA
ATOM      2  C   UNL     1       1.060   1.568 -22.483  0.00  0.00    +0.197 A 
ATOM      3  C   UNL     1      -0.206   1.822 -22.635  0.00  0.00    +0.098 A 
ATOM      4  C   UNL     1      -0.593   3.015 -22.983  0.00  0.00    +0.139 A 
ATOM      5  O   UNL     1       0.286   3.952 -23.178  0.00  0.00    -0.454 OA
ATOM      6  C   UNL     1       1.552   3.698 -23.026  0.00  0.00    +0.146 A 
ATOM      7  C   UNL     1       2.431   4.636 -23.221  0.00  0.00    +0.092 A 
ATOM      8  C   UNL     1       3.697   4.382 -23.069  0.00  0.00    +0.124 A 
ATOM      9  C   UNL     1       4.084   3.190 -22.721  0.00  0.00    +0.091 A 
ATOM     10  C   UNL     1       3.205   2.253 -22.526  0.00  0.00    +0.135 A 
ATOM     11  C   UNL     1       1.939   2.507 -22.678  0.00  0.00    +0.105 A 
ENDROOT
BRANCH   4  12
ATOM     12  C   UNL     1      -1.858   3.268 -23.135  0.00  0.00    +0.021 A 
ATOM     13  C   UNL     1      -2.718   2.821 -22.269  0.00  0.00    +0.015 A 
ATOM     14  C   UNL     1      -3.985   3.074 -22.421  0.00  0.00    +0.050 A 
ATOM     15  C   UNL     1      -4.391   3.774 -23.439  0.00  0.00    +0.158 A 
ATOM     16  C   UNL     1      -3.530   4.221 -24.305  0.00  0.00    +0.159 A 
ATOM     17  C   UNL     1      -2.264   3.968 -24.153  0.00  0.00    +0.060 A 
BRANCH  16  18
ATOM     18  O   UNL     1      -3.935   4.921 -25.322  0.00  0.00    -0.503 OA
ATOM     19  H   UNL     1      -4.783   4.765 -25.690  0.00  0.00    +0.292 HD
ENDBRANCH  16  18
BRANCH  15  20
ATOM     20  O   UNL     1      -5.656   4.027 -23.590  0.00  0.00    -0.503 OA
ATOM     21  H   UNL     1      -6.113   3.702 -24.341  0.00  0.00    +0.292 HD
ENDBRANCH  15  20
ENDBRANCH   4  12
BRANCH  10  22
ATOM     22  O   UNL     1       3.592   1.061 -22.178  0.00  0.00    -0.506 OA
ATOM     23  H   UNL     1       4.495   0.898 -21.991  0.00  0.00    +0.292 HD
ENDBRANCH  10  22
BRANCH   8  24
ATOM     24  O   UNL     1       4.576   5.319 -23.264  0.00  0.00    -0.507 OA
ATOM     25  H   UNL     1       4.627   5.748 -24.096  0.00  0.00    +0.292 HD
ENDBRANCH   8  24
TORSDOF 5
ENDMDL
